MODEL 1
REMARK VINA RESULT:      -6.6      0.000      0.000
REMARK  Name = 
REMARK  7 active torsions:
REMARK  status: ('A' for Active; 'I' for Inactive)
REMARK    1  A    between atoms: C_1  and  C_2
REMARK    2  A    between atoms: C_6  and  C_7
REMARK    3  A    between atoms: C_8  and  O_9
REMARK    4  A    between atoms: O_9  and  C_10
REMARK    5  A    between atoms: C_10  and  C_11
REMARK    6  A    between atoms: N_13  and  C_14
REMARK    7  A    between atoms: C_17  and  O_18
REMARK                            x       y       z     vdW  Elec       q    Type
REMARK                         _______ _______ _______ _____ _____    ______ ____
ROOT
ATOM      1  C   UNL     1       2.387   5.679  19.658  0.00  0.00    +0.000 C 
ATOM      2  O   UNL     1       1.912   4.783  18.963  0.00  0.00    +0.000 OA
ATOM      3  N   UNL     1       3.709   6.081  19.559  0.00  0.00    +0.000 N 
ATOM      4  H   UNL     1       4.040   6.842  20.139  0.00  0.00    +0.000 HD
ENDROOT
BRANCH   3   5
ATOM      5  C   UNL     1       4.643   5.437  18.647  0.00  0.00    +0.000 C 
ATOM      6  C   UNL     1       4.572   6.033  17.233  0.00  0.00    +0.000 C 
ATOM      7  C   UNL     1       5.554   5.334  16.291  0.00  0.00    +0.000 C 
ATOM      8  C   UNL     1       6.982   5.359  16.835  0.00  0.00    +0.000 C 
ATOM      9  C   UNL     1       7.059   4.820  18.263  0.00  0.00    +0.000 C 
ATOM     10  C   UNL     1       6.077   5.534  19.186  0.00  0.00    +0.000 C 
BRANCH   8  11
ATOM     11  O   UNL     1       7.835   4.595  15.990  0.00  0.00    +0.000 OA
ATOM     12  H   UNL     1       7.793   4.969  15.093  0.00  0.00    +0.000 HD
ENDBRANCH   8  11
ENDBRANCH   3   5
BRANCH   1  13
ATOM     13  C   UNL     1       1.557   6.451  20.691  0.00  0.00    +0.000 C 
BRANCH  13  14
ATOM     14  O   UNL     1       1.967   7.803  20.758  0.00  0.00    +0.000 OA
BRANCH  14  22
ATOM     15  C   UNL     1       2.110   8.641  17.712  0.00  0.00    +0.000 C 
ATOM     16  C   UNL     1       1.281   9.239  18.814  0.00  0.00    +0.000 A 
ATOM     17  C   UNL     1       0.464  10.326  18.428  0.00  0.00    +0.000 A 
ATOM     18  C   UNL     1      -0.381  10.966  19.327  0.00  0.00    +0.000 A 
ATOM     19  C   UNL     1      -0.433  10.529  20.640  0.00  0.00    +0.000 A 
ATOM     20  C   UNL     1       0.367   9.458  21.065  0.00  0.00    +0.000 A 
ATOM     21  C   UNL     1       0.254   9.008  22.501  0.00  0.00    +0.000 C 
ATOM     22  C   UNL     1       1.245   8.805  20.158  0.00  0.00    +0.000 A 
ENDBRANCH  14  22
ENDBRANCH  13  14
ENDBRANCH   1  13
TORSDOF 5
ENDMDL
MODEL 2
REMARK VINA RESULT:      -6.6      0.321      1.980
REMARK  Name = 
REMARK  7 active torsions:
REMARK  status: ('A' for Active; 'I' for Inactive)
REMARK    1  A    between atoms: C_1  and  C_2
REMARK    2  A    between atoms: C_6  and  C_7
REMARK    3  A    between atoms: C_8  and  O_9
REMARK    4  A    between atoms: O_9  and  C_10
REMARK    5  A    between atoms: C_10  and  C_11
REMARK    6  A    between atoms: N_13  and  C_14
REMARK    7  A    between atoms: C_17  and  O_18
REMARK                            x       y       z     vdW  Elec       q    Type
REMARK                         _______ _______ _______ _____ _____    ______ ____
ROOT
ATOM      1  C   UNL     1       2.421   5.793  19.515  0.00  0.00    +0.000 C 
ATOM      2  O   UNL     1       1.976   4.764  19.011  0.00  0.00    +0.000 OA
ATOM      3  N   UNL     1       3.684   6.282  19.223  0.00  0.00    +0.000 N 
ATOM      4  H   UNL     1       3.990   7.149  19.648  0.00  0.00    +0.000 HD
ENDROOT
BRANCH   3   5
ATOM      5  C   UNL     1       4.592   5.584  18.325  0.00  0.00    +0.000 C 
ATOM      6  C   UNL     1       4.627   6.225  16.929  0.00  0.00    +0.000 C 
ATOM      7  C   UNL     1       5.579   5.467  16.001  0.00  0.00    +0.000 C 
ATOM      8  C   UNL     1       6.982   5.349  16.595  0.00  0.00    +0.000 C 
ATOM      9  C   UNL     1       6.957   4.765  18.007  0.00  0.00    +0.000 C 
ATOM     10  C   UNL     1       6.006   5.537  18.918  0.00  0.00    +0.000 C 
BRANCH   8  11
ATOM     11  O   UNL     1       7.796   4.536  15.758  0.00  0.00    +0.000 OA
ATOM     12  H   UNL     1       7.903   4.989  14.903  0.00  0.00    +0.000 HD
ENDBRANCH   8  11
ENDBRANCH   3   5
BRANCH   1  13
ATOM     13  C   UNL     1       1.615   6.645  20.503  0.00  0.00    +0.000 C 
BRANCH  13  14
ATOM     14  O   UNL     1       2.001   8.003  20.429  0.00  0.00    +0.000 OA
BRANCH  14  22
ATOM     15  C   UNL     1       0.169   9.219  22.702  0.00  0.00    +0.000 C 
ATOM     16  C   UNL     1       0.218   9.575  21.243  0.00  0.00    +0.000 A 
ATOM     17  C   UNL     1      -0.685  10.586  20.841  0.00  0.00    +0.000 A 
ATOM     18  C   UNL     1      -0.741  11.045  19.531  0.00  0.00    +0.000 A 
ATOM     19  C   UNL     1       0.115  10.504  18.585  0.00  0.00    +0.000 A 
ATOM     20  C   UNL     1       1.021   9.494  18.941  0.00  0.00    +0.000 A 
ATOM     21  C   UNL     1       1.946   8.957  17.876  0.00  0.00    +0.000 C 
ATOM     22  C   UNL     1       1.076   9.008  20.276  0.00  0.00    +0.000 A 
ENDBRANCH  14  22
ENDBRANCH  13  14
ENDBRANCH   1  13
TORSDOF 5
ENDMDL
MODEL 3
REMARK VINA RESULT:      -6.6      2.465      6.322
REMARK  Name = 
REMARK  7 active torsions:
REMARK  status: ('A' for Active; 'I' for Inactive)
REMARK    1  A    between atoms: C_1  and  C_2
REMARK    2  A    between atoms: C_6  and  C_7
REMARK    3  A    between atoms: C_8  and  O_9
REMARK    4  A    between atoms: O_9  and  C_10
REMARK    5  A    between atoms: C_10  and  C_11
REMARK    6  A    between atoms: N_13  and  C_14
REMARK    7  A    between atoms: C_17  and  O_18
REMARK                            x       y       z     vdW  Elec       q    Type
REMARK                         _______ _______ _______ _____ _____    ______ ____
ROOT
ATOM      1  C   UNL     1       4.393   5.332  18.418  0.00  0.00    +0.000 C 
ATOM      2  O   UNL     1       5.005   5.606  19.448  0.00  0.00    +0.000 OA
ATOM      3  N   UNL     1       3.402   6.149  17.898  0.00  0.00    +0.000 N 
ATOM      4  H   UNL     1       2.949   5.887  17.032  0.00  0.00    +0.000 HD
ENDROOT
BRANCH   3   5
ATOM      5  C   UNL     1       2.988   7.376  18.563  0.00  0.00    +0.000 C 
ATOM      6  C   UNL     1       2.278   8.341  17.601  0.00  0.00    +0.000 C 
ATOM      7  C   UNL     1       1.862   9.626  18.320  0.00  0.00    +0.000 C 
ATOM      8  C   UNL     1       1.005   9.338  19.553  0.00  0.00    +0.000 C 
ATOM      9  C   UNL     1       1.674   8.335  20.492  0.00  0.00    +0.000 C 
ATOM     10  C   UNL     1       2.077   7.060  19.757  0.00  0.00    +0.000 C 
BRANCH   8  11
ATOM     11  O   UNL     1       0.745  10.548  20.255  0.00  0.00    +0.000 OA
ATOM     12  H   UNL     1       0.563  11.247  19.604  0.00  0.00    +0.000 HD
ENDBRANCH   8  11
ENDBRANCH   3   5
BRANCH   1  13
ATOM     13  C   UNL     1       4.679   4.068  17.599  0.00  0.00    +0.000 C 
BRANCH  13  14
ATOM     14  O   UNL     1       3.669   3.099  17.799  0.00  0.00    +0.000 OA
BRANCH  14  22
ATOM     15  C   UNL     1       4.869   2.060  20.535  0.00  0.00    +0.000 C 
ATOM     16  C   UNL     1       3.470   2.522  20.237  0.00  0.00    +0.000 A 
ATOM     17  C   UNL     1       2.576   2.475  21.331  0.00  0.00    +0.000 A 
ATOM     18  C   UNL     1       1.256   2.895  21.222  0.00  0.00    +0.000 A 
ATOM     19  C   UNL     1       0.795   3.380  20.008  0.00  0.00    +0.000 A 
ATOM     20  C   UNL     1       1.649   3.436  18.896  0.00  0.00    +0.000 A 
ATOM     21  C   UNL     1       1.102   3.995  17.604  0.00  0.00    +0.000 C 
ATOM     22  C   UNL     1       2.997   2.996  18.993  0.00  0.00    +0.000 A 
ENDBRANCH  14  22
ENDBRANCH  13  14
ENDBRANCH   1  13
TORSDOF 5
ENDMDL
MODEL 4
REMARK VINA RESULT:      -6.5      2.453      6.240
REMARK  Name = 
REMARK  7 active torsions:
REMARK  status: ('A' for Active; 'I' for Inactive)
REMARK    1  A    between atoms: C_1  and  C_2
REMARK    2  A    between atoms: C_6  and  C_7
REMARK    3  A    between atoms: C_8  and  O_9
REMARK    4  A    between atoms: O_9  and  C_10
REMARK    5  A    between atoms: C_10  and  C_11
REMARK    6  A    between atoms: N_13  and  C_14
REMARK    7  A    between atoms: C_17  and  O_18
REMARK                            x       y       z     vdW  Elec       q    Type
REMARK                         _______ _______ _______ _____ _____    ______ ____
ROOT
ATOM      1  C   UNL     1       4.342   5.331  18.372  0.00  0.00    +0.000 C 
ATOM      2  O   UNL     1       4.954   5.568  19.412  0.00  0.00    +0.000 OA
ATOM      3  N   UNL     1       3.357   6.171  17.878  0.00  0.00    +0.000 N 
ATOM      4  H   UNL     1       2.902   5.940  17.004  0.00  0.00    +0.000 HD
ENDROOT
BRANCH   3   5
ATOM      5  C   UNL     1       2.949   7.378  18.582  0.00  0.00    +0.000 C 
ATOM      6  C   UNL     1       2.227   8.369  17.657  0.00  0.00    +0.000 C 
ATOM      7  C   UNL     1       1.819   9.633  18.416  0.00  0.00    +0.000 C 
ATOM      8  C   UNL     1       0.978   9.310  19.651  0.00  0.00    +0.000 C 
ATOM      9  C   UNL     1       1.658   8.281  20.553  0.00  0.00    +0.000 C 
ATOM     10  C   UNL     1       2.053   7.028  19.778  0.00  0.00    +0.000 C 
BRANCH   8  11
ATOM     11  O   UNL     1       0.725  10.499  20.390  0.00  0.00    +0.000 OA
ATOM     12  H   UNL     1       1.160  11.241  19.935  0.00  0.00    +0.000 HD
ENDBRANCH   8  11
ENDBRANCH   3   5
BRANCH   1  13
ATOM     13  C   UNL     1       4.621   4.092  17.513  0.00  0.00    +0.000 C 
BRANCH  13  14
ATOM     14  O   UNL     1       4.066   2.934  18.104  0.00  0.00    +0.000 OA
BRANCH  14  22
ATOM     15  C   UNL     1       1.115   3.921  17.534  0.00  0.00    +0.000 C 
ATOM     16  C   UNL     1       1.719   3.462  18.832  0.00  0.00    +0.000 A 
ATOM     17  C   UNL     1       0.845   3.485  19.942  0.00  0.00    +0.000 A 
ATOM     18  C   UNL     1       1.246   3.064  21.205  0.00  0.00    +0.000 A 
ATOM     19  C   UNL     1       2.540   2.603  21.387  0.00  0.00    +0.000 A 
ATOM     20  C   UNL     1       3.441   2.571  20.312  0.00  0.00    +0.000 A 
ATOM     21  C   UNL     1       4.831   2.036  20.561  0.00  0.00    +0.000 C 
ATOM     22  C   UNL     1       3.045   3.012  19.020  0.00  0.00    +0.000 A 
ENDBRANCH  14  22
ENDBRANCH  13  14
ENDBRANCH   1  13
TORSDOF 5
ENDMDL
MODEL 5
REMARK VINA RESULT:      -6.4      2.655      3.443
REMARK  Name = 
REMARK  7 active torsions:
REMARK  status: ('A' for Active; 'I' for Inactive)
REMARK    1  A    between atoms: C_1  and  C_2
REMARK    2  A    between atoms: C_6  and  C_7
REMARK    3  A    between atoms: C_8  and  O_9
REMARK    4  A    between atoms: O_9  and  C_10
REMARK    5  A    between atoms: C_10  and  C_11
REMARK    6  A    between atoms: N_13  and  C_14
REMARK    7  A    between atoms: C_17  and  O_18
REMARK                            x       y       z     vdW  Elec       q    Type
REMARK                         _______ _______ _______ _____ _____    ______ ____
ROOT
ATOM      1  C   UNL     1       1.840   7.463  20.198  0.00  0.00    +0.000 C 
ATOM      2  O   UNL     1       2.257   7.731  19.072  0.00  0.00    +0.000 OA
ATOM      3  N   UNL     1       1.712   6.163  20.657  0.00  0.00    +0.000 N 
ATOM      4  H   UNL     1       1.388   6.001  21.602  0.00  0.00    +0.000 HD
ENDROOT
BRANCH   3   5
ATOM      5  C   UNL     1       2.027   5.015  19.818  0.00  0.00    +0.000 C 
ATOM      6  C   UNL     1       3.513   4.633  19.899  0.00  0.00    +0.000 C 
ATOM      7  C   UNL     1       3.821   3.433  19.002  0.00  0.00    +0.000 C 
ATOM      8  C   UNL     1       2.920   2.238  19.317  0.00  0.00    +0.000 C 
ATOM      9  C   UNL     1       1.440   2.618  19.296  0.00  0.00    +0.000 C 
ATOM     10  C   UNL     1       1.153   3.813  20.200  0.00  0.00    +0.000 C 
BRANCH   8  11
ATOM     11  O   UNL     1       3.157   1.192  18.382  0.00  0.00    +0.000 OA
ATOM     12  H   UNL     1       2.778   0.370  18.739  0.00  0.00    +0.000 HD
ENDBRANCH   8  11
ENDBRANCH   3   5
BRANCH   1  13
ATOM     13  C   UNL     1       1.437   8.544  21.208  0.00  0.00    +0.000 C 
BRANCH  13  14
ATOM     14  O   UNL     1       0.063   8.857  21.089  0.00  0.00    +0.000 OA
BRANCH  14  22
ATOM     15  C   UNL     1      -0.057  10.059  18.166  0.00  0.00    +0.000 C 
ATOM     16  C   UNL     1      -0.417  10.716  19.469  0.00  0.00    +0.000 A 
ATOM     17  C   UNL     1      -0.862  12.054  19.363  0.00  0.00    +0.000 A 
ATOM     18  C   UNL     1      -1.258  12.788  20.475  0.00  0.00    +0.000 A 
ATOM     19  C   UNL     1      -1.223  12.197  21.727  0.00  0.00    +0.000 A 
ATOM     20  C   UNL     1      -0.782  10.873  21.876  0.00  0.00    +0.000 A 
ATOM     21  C   UNL     1      -0.786  10.270  23.260  0.00  0.00    +0.000 C 
ATOM     22  C   UNL     1      -0.361  10.118  20.747  0.00  0.00    +0.000 A 
ENDBRANCH  14  22
ENDBRANCH  13  14
ENDBRANCH   1  13
TORSDOF 5
ENDMDL
MODEL 6
REMARK VINA RESULT:      -6.3      2.019      7.194
REMARK  Name = 
REMARK  7 active torsions:
REMARK  status: ('A' for Active; 'I' for Inactive)
REMARK    1  A    between atoms: C_1  and  C_2
REMARK    2  A    between atoms: C_6  and  C_7
REMARK    3  A    between atoms: C_8  and  O_9
REMARK    4  A    between atoms: O_9  and  C_10
REMARK    5  A    between atoms: C_10  and  C_11
REMARK    6  A    between atoms: N_13  and  C_14
REMARK    7  A    between atoms: C_17  and  O_18
REMARK                            x       y       z     vdW  Elec       q    Type
REMARK                         _______ _______ _______ _____ _____    ______ ____
ROOT
ATOM      1  C   UNL     1       1.918   6.110  20.428  0.00  0.00    +0.000 C 
ATOM      2  O   UNL     1       0.874   5.523  20.708  0.00  0.00    +0.000 OA
ATOM      3  N   UNL     1       2.062   7.481  20.564  0.00  0.00    +0.000 N 
ATOM      4  H   UNL     1       2.953   7.909  20.343  0.00  0.00    +0.000 HD
ENDROOT
BRANCH   3   5
ATOM      5  C   UNL     1       0.969   8.330  21.014  0.00  0.00    +0.000 C 
ATOM      6  C   UNL     1       1.241   8.937  22.399  0.00  0.00    +0.000 C 
ATOM      7  C   UNL     1       0.074   9.815  22.853  0.00  0.00    +0.000 C 
ATOM      8  C   UNL     1      -0.258  10.898  21.826  0.00  0.00    +0.000 C 
ATOM      9  C   UNL     1      -0.476  10.314  20.431  0.00  0.00    +0.000 C 
ATOM     10  C   UNL     1       0.700   9.446  19.995  0.00  0.00    +0.000 C 
BRANCH   8  11
ATOM     11  O   UNL     1      -1.422  11.610  22.233  0.00  0.00    +0.000 OA
ATOM     12  H   UNL     1      -1.428  12.471  21.779  0.00  0.00    +0.000 HD
ENDBRANCH   8  11
ENDBRANCH   3   5
BRANCH   1  13
ATOM     13  C   UNL     1       3.165   5.380  19.916  0.00  0.00    +0.000 C 
BRANCH  13  14
ATOM     14  O   UNL     1       2.953   4.873  18.614  0.00  0.00    +0.000 OA
BRANCH  14  22
ATOM     15  C   UNL     1       3.767   7.710  17.477  0.00  0.00    +0.000 C 
ATOM     16  C   UNL     1       4.226   6.351  17.030  0.00  0.00    +0.000 A 
ATOM     17  C   UNL     1       5.141   6.351  15.952  0.00  0.00    +0.000 A 
ATOM     18  C   UNL     1       5.679   5.175  15.443  0.00  0.00    +0.000 A 
ATOM     19  C   UNL     1       5.317   3.962  16.007  0.00  0.00    +0.000 A 
ATOM     20  C   UNL     1       4.408   3.919  17.075  0.00  0.00    +0.000 A 
ATOM     21  C   UNL     1       4.067   2.573  17.667  0.00  0.00    +0.000 C 
ATOM     22  C   UNL     1       3.841   5.114  17.593  0.00  0.00    +0.000 A 
ENDBRANCH  14  22
ENDBRANCH  13  14
ENDBRANCH   1  13
TORSDOF 5
ENDMDL
MODEL 7
REMARK VINA RESULT:      -6.3      2.638      7.312
REMARK  Name = 
REMARK  7 active torsions:
REMARK  status: ('A' for Active; 'I' for Inactive)
REMARK    1  A    between atoms: C_1  and  C_2
REMARK    2  A    between atoms: C_6  and  C_7
REMARK    3  A    between atoms: C_8  and  O_9
REMARK    4  A    between atoms: O_9  and  C_10
REMARK    5  A    between atoms: C_10  and  C_11
REMARK    6  A    between atoms: N_13  and  C_14
REMARK    7  A    between atoms: C_17  and  O_18
REMARK                            x       y       z     vdW  Elec       q    Type
REMARK                         _______ _______ _______ _____ _____    ______ ____
ROOT
ATOM      1  C   UNL     1       2.043   8.242  19.052  0.00  0.00    +0.000 C 
ATOM      2  O   UNL     1       1.739   8.110  20.236  0.00  0.00    +0.000 OA
ATOM      3  N   UNL     1       1.686   9.356  18.309  0.00  0.00    +0.000 N 
ATOM      4  H   UNL     1       1.985   9.423  17.344  0.00  0.00    +0.000 HD
ENDROOT
BRANCH   3   5
ATOM      5  C   UNL     1       0.886  10.434  18.872  0.00  0.00    +0.000 C 
ATOM      6  C   UNL     1       1.511  11.813  18.610  0.00  0.00    +0.000 C 
ATOM      7  C   UNL     1       0.659  12.927  19.220  0.00  0.00    +0.000 C 
ATOM      8  C   UNL     1      -0.789  12.870  18.733  0.00  0.00    +0.000 C 
ATOM      9  C   UNL     1      -1.406  11.486  18.936  0.00  0.00    +0.000 C 
ATOM     10  C   UNL     1      -0.544  10.391  18.316  0.00  0.00    +0.000 C 
BRANCH   8  11
ATOM     11  O   UNL     1      -1.568  13.845  19.416  0.00  0.00    +0.000 OA
ATOM     12  H   UNL     1      -2.506  13.597  19.338  0.00  0.00    +0.000 HD
ENDBRANCH   8  11
ENDBRANCH   3   5
BRANCH   1  13
ATOM     13  C   UNL     1       2.861   7.195  18.288  0.00  0.00    +0.000 C 
BRANCH  13  14
ATOM     14  O   UNL     1       3.142   6.078  19.109  0.00  0.00    +0.000 OA
BRANCH  14  22
ATOM     15  C   UNL     1       4.708   4.672  16.748  0.00  0.00    +0.000 C 
ATOM     16  C   UNL     1       3.605   4.119  17.606  0.00  0.00    +0.000 A 
ATOM     17  C   UNL     1       3.218   2.793  17.304  0.00  0.00    +0.000 A 
ATOM     18  C   UNL     1       2.232   2.132  18.027  0.00  0.00    +0.000 A 
ATOM     19  C   UNL     1       1.608   2.784  19.078  0.00  0.00    +0.000 A 
ATOM     20  C   UNL     1       1.958   4.102  19.405  0.00  0.00    +0.000 A 
ATOM     21  C   UNL     1       1.263   4.756  20.575  0.00  0.00    +0.000 C 
ATOM     22  C   UNL     1       2.955   4.792  18.664  0.00  0.00    +0.000 A 
ENDBRANCH  14  22
ENDBRANCH  13  14
ENDBRANCH   1  13
TORSDOF 5
ENDMDL
MODEL 8
REMARK VINA RESULT:      -6.3      2.449      3.198
REMARK  Name = 
REMARK  7 active torsions:
REMARK  status: ('A' for Active; 'I' for Inactive)
REMARK    1  A    between atoms: C_1  and  C_2
REMARK    2  A    between atoms: C_6  and  C_7
REMARK    3  A    between atoms: C_8  and  O_9
REMARK    4  A    between atoms: O_9  and  C_10
REMARK    5  A    between atoms: C_10  and  C_11
REMARK    6  A    between atoms: N_13  and  C_14
REMARK    7  A    between atoms: C_17  and  O_18
REMARK                            x       y       z     vdW  Elec       q    Type
REMARK                         _______ _______ _______ _____ _____    ______ ____
ROOT
ATOM      1  C   UNL     1       2.850   7.465  18.057  0.00  0.00    +0.000 C 
ATOM      2  O   UNL     1       3.971   7.510  17.554  0.00  0.00    +0.000 OA
ATOM      3  N   UNL     1       2.251   6.276  18.442  0.00  0.00    +0.000 N 
ATOM      4  H   UNL     1       1.336   6.301  18.874  0.00  0.00    +0.000 HD
ENDROOT
BRANCH   3   5
ATOM      5  C   UNL     1       2.896   4.988  18.239  0.00  0.00    +0.000 C 
ATOM      6  C   UNL     1       3.668   4.527  19.486  0.00  0.00    +0.000 C 
ATOM      7  C   UNL     1       4.345   3.177  19.245  0.00  0.00    +0.000 C 
ATOM      8  C   UNL     1       3.350   2.113  18.781  0.00  0.00    +0.000 C 
ATOM      9  C   UNL     1       2.535   2.581  17.576  0.00  0.00    +0.000 C 
ATOM     10  C   UNL     1       1.864   3.925  17.838  0.00  0.00    +0.000 C 
BRANCH   8  11
ATOM     11  O   UNL     1       4.041   0.913  18.454  0.00  0.00    +0.000 OA
ATOM     12  H   UNL     1       4.666   0.714  19.172  0.00  0.00    +0.000 HD
ENDBRANCH   8  11
ENDBRANCH   3   5
BRANCH   1  13
ATOM     13  C   UNL     1       2.012   8.722  18.321  0.00  0.00    +0.000 C 
BRANCH  13  14
ATOM     14  O   UNL     1       1.232   8.570  19.491  0.00  0.00    +0.000 OA
BRANCH  14  22
ATOM     15  C   UNL     1      -0.906  10.115  17.747  0.00  0.00    +0.000 C 
ATOM     16  C   UNL     1      -0.564  10.303  19.198  0.00  0.00    +0.000 A 
ATOM     17  C   UNL     1      -1.297  11.313  19.863  0.00  0.00    +0.000 A 
ATOM     18  C   UNL     1      -1.114  11.587  21.213  0.00  0.00    +0.000 A 
ATOM     19  C   UNL     1      -0.192  10.850  21.937  0.00  0.00    +0.000 A 
ATOM     20  C   UNL     1       0.560   9.844  21.314  0.00  0.00    +0.000 A 
ATOM     21  C   UNL     1       1.535   9.055  22.156  0.00  0.00    +0.000 C 
ATOM     22  C   UNL     1       0.392   9.564  19.930  0.00  0.00    +0.000 A 
ENDBRANCH  14  22
ENDBRANCH  13  14
ENDBRANCH   1  13
TORSDOF 5
ENDMDL
MODEL 9
REMARK VINA RESULT:      -6.3      1.776      6.551
REMARK  Name = 
REMARK  7 active torsions:
REMARK  status: ('A' for Active; 'I' for Inactive)
REMARK    1  A    between atoms: C_1  and  C_2
REMARK    2  A    between atoms: C_6  and  C_7
REMARK    3  A    between atoms: C_8  and  O_9
REMARK    4  A    between atoms: O_9  and  C_10
REMARK    5  A    between atoms: C_10  and  C_11
REMARK    6  A    between atoms: N_13  and  C_14
REMARK    7  A    between atoms: C_17  and  O_18
REMARK                            x       y       z     vdW  Elec       q    Type
REMARK                         _______ _______ _______ _____ _____    ______ ____
ROOT
ATOM      1  C   UNL     1       2.713   5.057  19.755  0.00  0.00    +0.000 C 
ATOM      2  O   UNL     1       1.683   4.613  19.251  0.00  0.00    +0.000 OA
ATOM      3  N   UNL     1       2.940   6.415  19.917  0.00  0.00    +0.000 N 
ATOM      4  H   UNL     1       3.795   6.724  20.362  0.00  0.00    +0.000 HD
ENDROOT
BRANCH   3   5
ATOM      5  C   UNL     1       1.986   7.415  19.459  0.00  0.00    +0.000 C 
ATOM      6  C   UNL     1       1.628   8.418  20.567  0.00  0.00    +0.000 C 
ATOM      7  C   UNL     1       0.617   9.451  20.066  0.00  0.00    +0.000 C 
ATOM      8  C   UNL     1       1.107  10.164  18.805  0.00  0.00    +0.000 C 
ATOM      9  C   UNL     1       1.521   9.176  17.715  0.00  0.00    +0.000 C 
ATOM     10  C   UNL     1       2.532   8.158  18.233  0.00  0.00    +0.000 C 
BRANCH   8  11
ATOM     11  O   UNL     1       0.088  11.024  18.308  0.00  0.00    +0.000 OA
ATOM     12  H   UNL     1       0.513  11.793  17.891  0.00  0.00    +0.000 HD
ENDBRANCH   8  11
ENDBRANCH   3   5
BRANCH   1  13
ATOM     13  C   UNL     1       3.838   4.152  20.271  0.00  0.00    +0.000 C 
BRANCH  13  14
ATOM     14  O   UNL     1       4.502   3.514  19.198  0.00  0.00    +0.000 OA
BRANCH  14  22
ATOM     15  C   UNL     1       6.970   5.472  19.486  0.00  0.00    +0.000 C 
ATOM     16  C   UNL     1       6.175   5.135  18.256  0.00  0.00    +0.000 A 
ATOM     17  C   UNL     1       6.590   5.793  17.074  0.00  0.00    +0.000 A 
ATOM     18  C   UNL     1       5.973   5.565  15.850  0.00  0.00    +0.000 A 
ATOM     19  C   UNL     1       4.922   4.665  15.776  0.00  0.00    +0.000 A 
ATOM     20  C   UNL     1       4.476   3.997  16.926  0.00  0.00    +0.000 A 
ATOM     21  C   UNL     1       3.343   3.010  16.784  0.00  0.00    +0.000 C 
ATOM     22  C   UNL     1       5.090   4.233  18.186  0.00  0.00    +0.000 A 
ENDBRANCH  14  22
ENDBRANCH  13  14
ENDBRANCH   1  13
TORSDOF 5
ENDMDL
