MODEL 1
REMARK VINA RESULT:      -7.0      0.000      0.000
REMARK  Name = 
REMARK  9 active torsions:
REMARK  status: ('A' for Active; 'I' for Inactive)
REMARK    1  A    between atoms: C_1  and  O_2
REMARK    2  A    between atoms: O_2  and  C_3
REMARK    3  A    between atoms: C_3  and  C_4
REMARK    4  A    between atoms: C_3  and  C_5
REMARK    5  A    between atoms: C_8  and  C_9
REMARK    6  A    between atoms: C_9  and  N_10
REMARK    7  A    between atoms: C_13  and  N_14
REMARK    8  A    between atoms: N_14  and  S_15
REMARK    9  A    between atoms: S_15  and  C_18
REMARK                            x       y       z     vdW  Elec       q    Type
REMARK                         _______ _______ _______ _____ _____    ______ ____
ROOT
ATOM      1  N   UNL     1       4.426   5.945  18.027  0.00  0.00    +0.000 NA
ATOM      2  C   UNL     1       4.228   5.561  19.432  0.00  0.00    +0.000 C 
ATOM      3  C   UNL     1       2.750   5.395  19.762  0.00  0.00    +0.000 C 
ATOM      4  C   UNL     1       1.979   6.683  19.512  0.00  0.00    +0.000 C 
ATOM      5  C   UNL     1       2.218   7.123  18.062  0.00  0.00    +0.000 C 
ATOM      6  C   UNL     1       3.706   7.183  17.698  0.00  0.00    +0.000 C 
ENDROOT
BRANCH   4   7
ATOM      7  N   UNL     1       2.367   7.788  20.433  0.00  0.00    +0.000 NA
ATOM      8  H   UNL     1       2.933   8.512  19.984  0.00  0.00    +0.000 HD
BRANCH   7   9
ATOM      9  S   UNL     1       1.148   8.586  21.315  0.00  0.00    +0.000 S 
ATOM     10  O   UNL     1       0.072   7.630  21.454  0.00  0.00    +0.000 OA
ATOM     11  O   UNL     1       1.759   9.213  22.461  0.00  0.00    +0.000 OA
BRANCH   9  12
ATOM     12  C   UNL     1       0.497   9.913  20.325  0.00  0.00    +0.000 A 
ATOM     13  C   UNL     1       0.375  10.082  18.958  0.00  0.00    +0.000 A 
ATOM     14  C   UNL     1      -0.210  11.336  18.612  0.00  0.00    +0.000 A 
ATOM     15  C   UNL     1      -0.520  12.083  19.728  0.00  0.00    +0.000 A 
ATOM     16  S   UNL     1      -0.111  11.271  21.179  0.00  0.00    +0.000 S 
ENDBRANCH   9  12
ENDBRANCH   7   9
ENDBRANCH   4   7
BRANCH   1  17
ATOM     17  C   UNL     1       5.875   6.117  17.737  0.00  0.00    +0.000 C 
BRANCH  17  21
ATOM     18  C   UNL     1       6.589   4.573  14.597  0.00  0.00    +0.000 A 
ATOM     19  N   UNL     1       7.658   5.381  14.679  0.00  0.00    +0.000 NA
ATOM     20  O   UNL     1       7.462   6.049  15.890  0.00  0.00    +0.000 OA
ATOM     21  C   UNL     1       6.292   5.574  16.409  0.00  0.00    +0.000 A 
ATOM     22  N   UNL     1       5.713   4.671  15.648  0.00  0.00    +0.000 NA
BRANCH  18  23
ATOM     23  C   UNL     1       6.257   3.731  13.403  0.00  0.00    +0.000 C 
ATOM     24  C   UNL     1       7.089   4.116  12.182  0.00  0.00    +0.000 C 
BRANCH  23  26
ATOM     25  C   UNL     1       4.633   3.258  11.721  0.00  0.00    +0.000 C 
ATOM     26  O   UNL     1       4.866   3.791  13.021  0.00  0.00    +0.000 OA
ENDBRANCH  23  26
ENDBRANCH  18  23
ENDBRANCH  17  21
ENDBRANCH   1  17
TORSDOF 7
ENDMDL
MODEL 2
REMARK VINA RESULT:      -6.8      1.415      1.784
REMARK  Name = 
REMARK  9 active torsions:
REMARK  status: ('A' for Active; 'I' for Inactive)
REMARK    1  A    between atoms: C_1  and  O_2
REMARK    2  A    between atoms: O_2  and  C_3
REMARK    3  A    between atoms: C_3  and  C_4
REMARK    4  A    between atoms: C_3  and  C_5
REMARK    5  A    between atoms: C_8  and  C_9
REMARK    6  A    between atoms: C_9  and  N_10
REMARK    7  A    between atoms: C_13  and  N_14
REMARK    8  A    between atoms: N_14  and  S_15
REMARK    9  A    between atoms: S_15  and  C_18
REMARK                            x       y       z     vdW  Elec       q    Type
REMARK                         _______ _______ _______ _____ _____    ______ ____
ROOT
ATOM      1  N   UNL     1       3.604   4.846  19.201  0.00  0.00    +0.000 NA
ATOM      2  C   UNL     1       2.927   4.723  20.500  0.00  0.00    +0.000 C 
ATOM      3  C   UNL     1       1.487   5.215  20.428  0.00  0.00    +0.000 C 
ATOM      4  C   UNL     1       1.420   6.673  19.997  0.00  0.00    +0.000 C 
ATOM      5  C   UNL     1       2.167   6.825  18.666  0.00  0.00    +0.000 C 
ATOM      6  C   UNL     1       3.579   6.229  18.706  0.00  0.00    +0.000 C 
ENDROOT
BRANCH   4   7
ATOM      7  N   UNL     1       2.004   7.608  20.999  0.00  0.00    +0.000 NA
ATOM      8  H   UNL     1       2.854   8.075  20.674  0.00  0.00    +0.000 HD
BRANCH   7   9
ATOM      9  S   UNL     1       1.006   8.810  21.677  0.00  0.00    +0.000 S 
ATOM     10  O   UNL     1      -0.262   8.168  21.940  0.00  0.00    +0.000 OA
ATOM     11  O   UNL     1       1.749   9.478  22.717  0.00  0.00    +0.000 OA
BRANCH   9  12
ATOM     12  C   UNL     1       0.678  10.049  20.442  0.00  0.00    +0.000 A 
ATOM     13  C   UNL     1       0.083   9.988  19.196  0.00  0.00    +0.000 A 
ATOM     14  C   UNL     1       0.046  11.255  18.544  0.00  0.00    +0.000 A 
ATOM     15  C   UNL     1       0.612  12.246  19.316  0.00  0.00    +0.000 A 
ATOM     16  S   UNL     1       1.178  11.647  20.817  0.00  0.00    +0.000 S 
ENDBRANCH   9  12
ENDBRANCH   7   9
ENDBRANCH   4   7
BRANCH   1  17
ATOM     17  C   UNL     1       5.011   4.377  19.303  0.00  0.00    +0.000 C 
BRANCH  17  21
ATOM     18  C   UNL     1       6.544   4.712  16.095  0.00  0.00    +0.000 A 
ATOM     19  N   UNL     1       7.653   4.607  16.845  0.00  0.00    +0.000 NA
ATOM     20  O   UNL     1       7.150   4.482  18.142  0.00  0.00    +0.000 OA
ATOM     21  C   UNL     1       5.790   4.527  18.037  0.00  0.00    +0.000 A 
ATOM     22  N   UNL     1       5.368   4.675  16.800  0.00  0.00    +0.000 NA
BRANCH  18  23
ATOM     23  C   UNL     1       6.544   5.002  14.625  0.00  0.00    +0.000 C 
ATOM     24  C   UNL     1       6.167   3.773  13.799  0.00  0.00    +0.000 C 
BRANCH  23  26
ATOM     25  C   UNL     1       7.985   5.241  12.739  0.00  0.00    +0.000 C 
ATOM     26  O   UNL     1       7.810   5.489  14.131  0.00  0.00    +0.000 OA
ENDBRANCH  23  26
ENDBRANCH  18  23
ENDBRANCH  17  21
ENDBRANCH   1  17
TORSDOF 7
ENDMDL
MODEL 3
REMARK VINA RESULT:      -6.8      4.553      7.227
REMARK  Name = 
REMARK  9 active torsions:
REMARK  status: ('A' for Active; 'I' for Inactive)
REMARK    1  A    between atoms: C_1  and  O_2
REMARK    2  A    between atoms: O_2  and  C_3
REMARK    3  A    between atoms: C_3  and  C_4
REMARK    4  A    between atoms: C_3  and  C_5
REMARK    5  A    between atoms: C_8  and  C_9
REMARK    6  A    between atoms: C_9  and  N_10
REMARK    7  A    between atoms: C_13  and  N_14
REMARK    8  A    between atoms: N_14  and  S_15
REMARK    9  A    between atoms: S_15  and  C_18
REMARK                            x       y       z     vdW  Elec       q    Type
REMARK                         _______ _______ _______ _____ _____    ______ ____
ROOT
ATOM      1  N   UNL     1       7.061   6.184  17.468  0.00  0.00    +0.000 NA
ATOM      2  C   UNL     1       7.444   4.810  17.112  0.00  0.00    +0.000 C 
ATOM      3  C   UNL     1       6.515   4.229  16.054  0.00  0.00    +0.000 C 
ATOM      4  C   UNL     1       5.071   4.207  16.534  0.00  0.00    +0.000 C 
ATOM      5  C   UNL     1       4.675   5.627  16.957  0.00  0.00    +0.000 C 
ATOM      6  C   UNL     1       5.671   6.254  17.939  0.00  0.00    +0.000 C 
ENDROOT
BRANCH   4   7
ATOM      7  N   UNL     1       4.846   3.273  17.672  0.00  0.00    +0.000 NA
ATOM      8  H   UNL     1       5.100   3.668  18.581  0.00  0.00    +0.000 HD
BRANCH   7   9
ATOM      9  S   UNL     1       3.310   2.560  17.855  0.00  0.00    +0.000 S 
ATOM     10  O   UNL     1       2.502   3.081  16.775  0.00  0.00    +0.000 OA
ATOM     11  O   UNL     1       3.491   1.143  18.051  0.00  0.00    +0.000 OA
BRANCH   9  12
ATOM     12  C   UNL     1       2.569   3.167  19.354  0.00  0.00    +0.000 A 
ATOM     13  C   UNL     1       2.219   2.545  20.539  0.00  0.00    +0.000 A 
ATOM     14  C   UNL     1       1.632   3.444  21.477  0.00  0.00    +0.000 A 
ATOM     15  C   UNL     1       1.556   4.727  20.979  0.00  0.00    +0.000 A 
ATOM     16  S   UNL     1       2.193   4.840  19.395  0.00  0.00    +0.000 S 
ENDBRANCH   9  12
ENDBRANCH   7   9
ENDBRANCH   4   7
BRANCH   1  17
ATOM     17  C   UNL     1       7.971   6.720  18.515  0.00  0.00    +0.000 C 
BRANCH  17  21
ATOM     18  C   UNL     1       8.868  10.177  18.484  0.00  0.00    +0.000 A 
ATOM     19  N   UNL     1       8.094  10.154  17.387  0.00  0.00    +0.000 NA
ATOM     20  O   UNL     1       7.696   8.817  17.305  0.00  0.00    +0.000 OA
ATOM     21  C   UNL     1       8.276   8.175  18.361  0.00  0.00    +0.000 A 
ATOM     22  N   UNL     1       9.012   8.965  19.111  0.00  0.00    +0.000 NA
BRANCH  18  23
ATOM     23  C   UNL     1       9.655  11.369  18.936  0.00  0.00    +0.000 C 
ATOM     24  C   UNL     1       9.899  11.355  20.444  0.00  0.00    +0.000 C 
BRANCH  23  26
ATOM     25  C   UNL     1       8.765  13.424  19.757  0.00  0.00    +0.000 C 
ATOM     26  O   UNL     1       9.036  12.631  18.605  0.00  0.00    +0.000 OA
ENDBRANCH  23  26
ENDBRANCH  18  23
ENDBRANCH  17  21
ENDBRANCH   1  17
TORSDOF 7
ENDMDL
MODEL 4
REMARK VINA RESULT:      -6.6      4.925      5.380
REMARK  Name = 
REMARK  9 active torsions:
REMARK  status: ('A' for Active; 'I' for Inactive)
REMARK    1  A    between atoms: C_1  and  O_2
REMARK    2  A    between atoms: O_2  and  C_3
REMARK    3  A    between atoms: C_3  and  C_4
REMARK    4  A    between atoms: C_3  and  C_5
REMARK    5  A    between atoms: C_8  and  C_9
REMARK    6  A    between atoms: C_9  and  N_10
REMARK    7  A    between atoms: C_13  and  N_14
REMARK    8  A    between atoms: N_14  and  S_15
REMARK    9  A    between atoms: S_15  and  C_18
REMARK                            x       y       z     vdW  Elec       q    Type
REMARK                         _______ _______ _______ _____ _____    ______ ____
ROOT
ATOM      1  N   UNL     1       6.365   5.449  16.508  0.00  0.00    +0.000 NA
ATOM      2  C   UNL     1       5.532   4.246  16.373  0.00  0.00    +0.000 C 
ATOM      3  C   UNL     1       4.321   4.300  17.297  0.00  0.00    +0.000 C 
ATOM      4  C   UNL     1       4.740   4.422  18.754  0.00  0.00    +0.000 C 
ATOM      5  C   UNL     1       5.653   5.647  18.900  0.00  0.00    +0.000 C 
ATOM      6  C   UNL     1       6.810   5.647  17.894  0.00  0.00    +0.000 C 
ENDROOT
BRANCH   4   7
ATOM      7  N   UNL     1       5.449   3.215  19.264  0.00  0.00    +0.000 NA
ATOM      8  H   UNL     1       6.197   3.433  19.928  0.00  0.00    +0.000 HD
BRANCH   7   9
ATOM      9  S   UNL     1       4.532   1.953  19.946  0.00  0.00    +0.000 S 
ATOM     10  O   UNL     1       4.426   0.943  18.918  0.00  0.00    +0.000 OA
ATOM     11  O   UNL     1       5.075   1.656  21.249  0.00  0.00    +0.000 OA
BRANCH   9  12
ATOM     12  C   UNL     1       2.875   2.535  20.231  0.00  0.00    +0.000 A 
ATOM     13  C   UNL     1       2.279   3.155  21.314  0.00  0.00    +0.000 A 
ATOM     14  C   UNL     1       0.898   3.435  21.092  0.00  0.00    +0.000 A 
ATOM     15  C   UNL     1       0.486   3.022  19.845  0.00  0.00    +0.000 A 
ATOM     16  S   UNL     1       1.758   2.307  18.950  0.00  0.00    +0.000 S 
ENDBRANCH   9  12
ENDBRANCH   7   9
ENDBRANCH   4   7
BRANCH   1  17
ATOM     17  C   UNL     1       7.548   5.363  15.611  0.00  0.00    +0.000 C 
BRANCH  17  21
ATOM     18  C   UNL     1       6.617   3.891  12.493  0.00  0.00    +0.000 A 
ATOM     19  N   UNL     1       7.385   4.891  12.029  0.00  0.00    +0.000 NA
ATOM     20  O   UNL     1       7.795   5.544  13.194  0.00  0.00    +0.000 OA
ATOM     21  C   UNL     1       7.228   4.871  14.237  0.00  0.00    +0.000 A 
ATOM     22  N   UNL     1       6.489   3.852  13.858  0.00  0.00    +0.000 NA
BRANCH  18  23
ATOM     23  C   UNL     1       5.821   2.966  11.624  0.00  0.00    +0.000 C 
ATOM     24  C   UNL     1       4.345   3.353  11.578  0.00  0.00    +0.000 C 
BRANCH  23  26
ATOM     25  C   UNL     1       6.055   0.698  10.923  0.00  0.00    +0.000 C 
ATOM     26  O   UNL     1       5.898   1.582  12.029  0.00  0.00    +0.000 OA
ENDBRANCH  23  26
ENDBRANCH  18  23
ENDBRANCH  17  21
ENDBRANCH   1  17
TORSDOF 7
ENDMDL
MODEL 5
REMARK VINA RESULT:      -6.6      3.541      8.771
REMARK  Name = 
REMARK  9 active torsions:
REMARK  status: ('A' for Active; 'I' for Inactive)
REMARK    1  A    between atoms: C_1  and  O_2
REMARK    2  A    between atoms: O_2  and  C_3
REMARK    3  A    between atoms: C_3  and  C_4
REMARK    4  A    between atoms: C_3  and  C_5
REMARK    5  A    between atoms: C_8  and  C_9
REMARK    6  A    between atoms: C_9  and  N_10
REMARK    7  A    between atoms: C_13  and  N_14
REMARK    8  A    between atoms: N_14  and  S_15
REMARK    9  A    between atoms: S_15  and  C_18
REMARK                            x       y       z     vdW  Elec       q    Type
REMARK                         _______ _______ _______ _____ _____    ______ ____
ROOT
ATOM      1  N   UNL     1       1.572   8.146  18.988  0.00  0.00    +0.000 NA
ATOM      2  C   UNL     1       2.448   7.599  17.943  0.00  0.00    +0.000 C 
ATOM      3  C   UNL     1       2.408   6.076  17.921  0.00  0.00    +0.000 C 
ATOM      4  C   UNL     1       2.844   5.491  19.256  0.00  0.00    +0.000 C 
ATOM      5  C   UNL     1       1.970   6.093  20.363  0.00  0.00    +0.000 C 
ATOM      6  C   UNL     1       1.923   7.625  20.316  0.00  0.00    +0.000 C 
ENDROOT
BRANCH   4   7
ATOM      7  N   UNL     1       4.278   5.745  19.568  0.00  0.00    +0.000 NA
ATOM      8  H   UNL     1       4.439   6.040  20.534  0.00  0.00    +0.000 HD
BRANCH   7   9
ATOM      9  S   UNL     1       5.420   4.529  19.225  0.00  0.00    +0.000 S 
ATOM     10  O   UNL     1       6.661   4.975  19.816  0.00  0.00    +0.000 OA
ATOM     11  O   UNL     1       4.834   3.254  19.561  0.00  0.00    +0.000 OA
BRANCH   9  12
ATOM     12  C   UNL     1       5.703   4.484  17.469  0.00  0.00    +0.000 A 
ATOM     13  C   UNL     1       4.897   4.127  16.404  0.00  0.00    +0.000 A 
ATOM     14  C   UNL     1       5.566   4.240  15.149  0.00  0.00    +0.000 A 
ATOM     15  C   UNL     1       6.862   4.685  15.298  0.00  0.00    +0.000 A 
ATOM     16  S   UNL     1       7.262   4.966  16.938  0.00  0.00    +0.000 S 
ENDBRANCH   9  12
ENDBRANCH   7   9
ENDBRANCH   4   7
BRANCH   1  17
ATOM     17  C   UNL     1       1.644   9.632  19.000  0.00  0.00    +0.000 C 
BRANCH  17  21
ATOM     18  C   UNL     1      -1.535  11.254  18.893  0.00  0.00    +0.000 A 
ATOM     19  N   UNL     1      -1.349  11.251  20.222  0.00  0.00    +0.000 NA
ATOM     20  O   UNL     1      -0.114  10.615  20.370  0.00  0.00    +0.000 OA
ATOM     21  C   UNL     1       0.312  10.299  19.112  0.00  0.00    +0.000 A 
ATOM     22  N   UNL     1      -0.530  10.664  18.171  0.00  0.00    +0.000 NA
BRANCH  18  23
ATOM     23  C   UNL     1      -2.792  11.713  18.218  0.00  0.00    +0.000 C 
ATOM     24  C   UNL     1      -3.893  12.043  19.223  0.00  0.00    +0.000 C 
BRANCH  23  26
ATOM     25  C   UNL     1      -4.511  11.222  16.639  0.00  0.00    +0.000 C 
ATOM     26  O   UNL     1      -3.328  10.755  17.280  0.00  0.00    +0.000 OA
ENDBRANCH  23  26
ENDBRANCH  18  23
ENDBRANCH  17  21
ENDBRANCH   1  17
TORSDOF 7
ENDMDL
MODEL 6
REMARK VINA RESULT:      -6.5      3.576      9.265
REMARK  Name = 
REMARK  9 active torsions:
REMARK  status: ('A' for Active; 'I' for Inactive)
REMARK    1  A    between atoms: C_1  and  O_2
REMARK    2  A    between atoms: O_2  and  C_3
REMARK    3  A    between atoms: C_3  and  C_4
REMARK    4  A    between atoms: C_3  and  C_5
REMARK    5  A    between atoms: C_8  and  C_9
REMARK    6  A    between atoms: C_9  and  N_10
REMARK    7  A    between atoms: C_13  and  N_14
REMARK    8  A    between atoms: N_14  and  S_15
REMARK    9  A    between atoms: S_15  and  C_18
REMARK                            x       y       z     vdW  Elec       q    Type
REMARK                         _______ _______ _______ _____ _____    ______ ____
ROOT
ATOM      1  N   UNL     1       1.631   8.199  18.873  0.00  0.00    +0.000 NA
ATOM      2  C   UNL     1       2.503   7.601  17.852  0.00  0.00    +0.000 C 
ATOM      3  C   UNL     1       2.443   6.079  17.889  0.00  0.00    +0.000 C 
ATOM      4  C   UNL     1       2.868   5.540  19.247  0.00  0.00    +0.000 C 
ATOM      5  C   UNL     1       1.998   6.195  20.327  0.00  0.00    +0.000 C 
ATOM      6  C   UNL     1       1.970   7.724  20.221  0.00  0.00    +0.000 C 
ENDROOT
BRANCH   4   7
ATOM      7  N   UNL     1       4.304   5.788  19.554  0.00  0.00    +0.000 NA
ATOM      8  H   UNL     1       4.468   6.097  20.516  0.00  0.00    +0.000 HD
BRANCH   7   9
ATOM      9  S   UNL     1       5.436   4.558  19.229  0.00  0.00    +0.000 S 
ATOM     10  O   UNL     1       6.684   5.008  19.804  0.00  0.00    +0.000 OA
ATOM     11  O   UNL     1       4.845   3.294  19.593  0.00  0.00    +0.000 OA
BRANCH   9  12
ATOM     12  C   UNL     1       5.710   4.478  17.473  0.00  0.00    +0.000 A 
ATOM     13  C   UNL     1       4.896   4.107  16.419  0.00  0.00    +0.000 A 
ATOM     14  C   UNL     1       5.559   4.191  15.159  0.00  0.00    +0.000 A 
ATOM     15  C   UNL     1       6.858   4.628  15.292  0.00  0.00    +0.000 A 
ATOM     16  S   UNL     1       7.270   4.937  16.924  0.00  0.00    +0.000 S 
ENDBRANCH   9  12
ENDBRANCH   7   9
ENDBRANCH   4   7
BRANCH   1  17
ATOM     17  C   UNL     1       1.721   9.682  18.828  0.00  0.00    +0.000 C 
BRANCH  17  21
ATOM     18  C   UNL     1      -0.973  11.363  20.462  0.00  0.00    +0.000 A 
ATOM     19  N   UNL     1      -1.583  11.075  19.301  0.00  0.00    +0.000 NA
ATOM     20  O   UNL     1      -0.589  10.414  18.574  0.00  0.00    +0.000 OA
ATOM     21  C   UNL     1       0.517  10.377  19.374  0.00  0.00    +0.000 A 
ATOM     22  N   UNL     1       0.334  10.954  20.542  0.00  0.00    +0.000 NA
BRANCH  18  23
ATOM     23  C   UNL     1      -1.580  12.197  21.549  0.00  0.00    +0.000 C 
ATOM     24  C   UNL     1      -1.429  11.545  22.921  0.00  0.00    +0.000 C 
BRANCH  23  26
ATOM     25  C   UNL     1      -3.342  13.790  21.768  0.00  0.00    +0.000 C 
ATOM     26  O   UNL     1      -2.983  12.477  21.349  0.00  0.00    +0.000 OA
ENDBRANCH  23  26
ENDBRANCH  18  23
ENDBRANCH  17  21
ENDBRANCH   1  17
TORSDOF 7
ENDMDL
MODEL 7
REMARK VINA RESULT:      -6.5      3.393      9.038
REMARK  Name = 
REMARK  9 active torsions:
REMARK  status: ('A' for Active; 'I' for Inactive)
REMARK    1  A    between atoms: C_1  and  O_2
REMARK    2  A    between atoms: O_2  and  C_3
REMARK    3  A    between atoms: C_3  and  C_4
REMARK    4  A    between atoms: C_3  and  C_5
REMARK    5  A    between atoms: C_8  and  C_9
REMARK    6  A    between atoms: C_9  and  N_10
REMARK    7  A    between atoms: C_13  and  N_14
REMARK    8  A    between atoms: N_14  and  S_15
REMARK    9  A    between atoms: S_15  and  C_18
REMARK                            x       y       z     vdW  Elec       q    Type
REMARK                         _______ _______ _______ _____ _____    ______ ____
ROOT
ATOM      1  N   UNL     1       1.313   7.446  20.350  0.00  0.00    +0.000 NA
ATOM      2  C   UNL     1       2.272   7.931  19.348  0.00  0.00    +0.000 C 
ATOM      3  C   UNL     1       2.424   6.942  18.198  0.00  0.00    +0.000 C 
ATOM      4  C   UNL     1       2.903   5.586  18.693  0.00  0.00    +0.000 C 
ATOM      5  C   UNL     1       1.938   5.091  19.777  0.00  0.00    +0.000 C 
ATOM      6  C   UNL     1       1.699   6.131  20.879  0.00  0.00    +0.000 C 
ENDROOT
BRANCH   4   7
ATOM      7  N   UNL     1       4.288   5.617  19.243  0.00  0.00    +0.000 NA
ATOM      8  H   UNL     1       4.320   5.729  20.259  0.00  0.00    +0.000 HD
BRANCH   7   9
ATOM      9  S   UNL     1       5.355   4.349  18.850  0.00  0.00    +0.000 S 
ATOM     10  O   UNL     1       6.602   4.664  19.509  0.00  0.00    +0.000 OA
ATOM     11  O   UNL     1       4.671   3.099  19.076  0.00  0.00    +0.000 OA
BRANCH   9  12
ATOM     12  C   UNL     1       5.697   4.406  17.105  0.00  0.00    +0.000 A 
ATOM     13  C   UNL     1       4.923   4.126  15.994  0.00  0.00    +0.000 A 
ATOM     14  C   UNL     1       5.636   4.304  14.771  0.00  0.00    +0.000 A 
ATOM     15  C   UNL     1       6.931   4.719  14.989  0.00  0.00    +0.000 A 
ATOM     16  S   UNL     1       7.279   4.895  16.655  0.00  0.00    +0.000 S 
ENDBRANCH   9  12
ENDBRANCH   7   9
ENDBRANCH   4   7
BRANCH   1  17
ATOM     17  C   UNL     1       1.196   8.419  21.469  0.00  0.00    +0.000 C 
BRANCH  17  21
ATOM     18  C   UNL     1      -0.586  11.294  20.322  0.00  0.00    +0.000 A 
ATOM     19  N   UNL     1       0.385  11.914  21.013  0.00  0.00    +0.000 NA
ATOM     20  O   UNL     1       1.142  10.854  21.519  0.00  0.00    +0.000 OA
ATOM     21  C   UNL     1       0.545   9.707  21.082  0.00  0.00    +0.000 A 
ATOM     22  N   UNL     1      -0.525   9.924  20.349  0.00  0.00    +0.000 NA
BRANCH  18  23
ATOM     23  C   UNL     1      -1.749  11.994  19.688  0.00  0.00    +0.000 C 
ATOM     24  C   UNL     1      -1.753  11.835  18.169  0.00  0.00    +0.000 C 
BRANCH  23  26
ATOM     25  C   UNL     1      -2.804  13.728  20.941  0.00  0.00    +0.000 C 
ATOM     26  O   UNL     1      -1.802  13.408  19.980  0.00  0.00    +0.000 OA
ENDBRANCH  23  26
ENDBRANCH  18  23
ENDBRANCH  17  21
ENDBRANCH   1  17
TORSDOF 7
ENDMDL
MODEL 8
REMARK VINA RESULT:      -6.5      3.592      4.644
REMARK  Name = 
REMARK  9 active torsions:
REMARK  status: ('A' for Active; 'I' for Inactive)
REMARK    1  A    between atoms: C_1  and  O_2
REMARK    2  A    between atoms: O_2  and  C_3
REMARK    3  A    between atoms: C_3  and  C_4
REMARK    4  A    between atoms: C_3  and  C_5
REMARK    5  A    between atoms: C_8  and  C_9
REMARK    6  A    between atoms: C_9  and  N_10
REMARK    7  A    between atoms: C_13  and  N_14
REMARK    8  A    between atoms: N_14  and  S_15
REMARK    9  A    between atoms: S_15  and  C_18
REMARK                            x       y       z     vdW  Elec       q    Type
REMARK                         _______ _______ _______ _____ _____    ______ ____
ROOT
ATOM      1  N   UNL     1       6.703   4.743  16.476  0.00  0.00    +0.000 NA
ATOM      2  C   UNL     1       7.074   5.362  17.756  0.00  0.00    +0.000 C 
ATOM      3  C   UNL     1       6.476   4.606  18.936  0.00  0.00    +0.000 C 
ATOM      4  C   UNL     1       4.957   4.564  18.855  0.00  0.00    +0.000 C 
ATOM      5  C   UNL     1       4.556   3.965  17.501  0.00  0.00    +0.000 C 
ATOM      6  C   UNL     1       5.245   4.657  16.318  0.00  0.00    +0.000 C 
ENDROOT
BRANCH   4   7
ATOM      7  N   UNL     1       4.324   5.903  19.009  0.00  0.00    +0.000 NA
ATOM      8  H   UNL     1       4.575   6.560  18.266  0.00  0.00    +0.000 HD
BRANCH   7   9
ATOM      9  S   UNL     1       2.634   5.994  19.201  0.00  0.00    +0.000 S 
ATOM     10  O   UNL     1       2.399   7.092  20.110  0.00  0.00    +0.000 OA
ATOM     11  O   UNL     1       2.029   5.950  17.892  0.00  0.00    +0.000 OA
BRANCH   9  12
ATOM     12  C   UNL     1       2.072   4.532  20.045  0.00  0.00    +0.000 A 
ATOM     13  C   UNL     1       2.188   4.111  21.357  0.00  0.00    +0.000 A 
ATOM     14  C   UNL     1       1.579   2.841  21.580  0.00  0.00    +0.000 A 
ATOM     15  C   UNL     1       1.014   2.335  20.431  0.00  0.00    +0.000 A 
ATOM     16  S   UNL     1       1.214   3.388  19.097  0.00  0.00    +0.000 S 
ENDBRANCH   9  12
ENDBRANCH   7   9
ENDBRANCH   4   7
BRANCH   1  17
ATOM     17  C   UNL     1       7.284   5.509  15.341  0.00  0.00    +0.000 C 
BRANCH  17  21
ATOM     18  C   UNL     1       6.456   3.791  12.322  0.00  0.00    +0.000 A 
ATOM     19  N   UNL     1       7.435   4.579  11.850  0.00  0.00    +0.000 NA
ATOM     20  O   UNL     1       7.824   5.312  12.974  0.00  0.00    +0.000 OA
ATOM     21  C   UNL     1       7.035   4.890  14.005  0.00  0.00    +0.000 A 
ATOM     22  N   UNL     1       6.173   3.961  13.653  0.00  0.00    +0.000 NA
BRANCH  18  23
ATOM     23  C   UNL     1       5.609   2.895  11.470  0.00  0.00    +0.000 C 
ATOM     24  C   UNL     1       4.141   3.314  11.483  0.00  0.00    +0.000 C 
BRANCH  23  26
ATOM     25  C   UNL     1       6.458   0.726  10.957  0.00  0.00    +0.000 C 
ATOM     26  O   UNL     1       5.671   1.504  11.853  0.00  0.00    +0.000 OA
ENDBRANCH  23  26
ENDBRANCH  18  23
ENDBRANCH  17  21
ENDBRANCH   1  17
TORSDOF 7
ENDMDL
MODEL 9
REMARK VINA RESULT:      -6.3      3.474      8.923
REMARK  Name = 
REMARK  9 active torsions:
REMARK  status: ('A' for Active; 'I' for Inactive)
REMARK    1  A    between atoms: C_1  and  O_2
REMARK    2  A    between atoms: O_2  and  C_3
REMARK    3  A    between atoms: C_3  and  C_4
REMARK    4  A    between atoms: C_3  and  C_5
REMARK    5  A    between atoms: C_8  and  C_9
REMARK    6  A    between atoms: C_9  and  N_10
REMARK    7  A    between atoms: C_13  and  N_14
REMARK    8  A    between atoms: N_14  and  S_15
REMARK    9  A    between atoms: S_15  and  C_18
REMARK                            x       y       z     vdW  Elec       q    Type
REMARK                         _______ _______ _______ _____ _____    ______ ____
ROOT
ATOM      1  N   UNL     1       1.222   7.485  20.374  0.00  0.00    +0.000 NA
ATOM      2  C   UNL     1       2.243   7.980  19.440  0.00  0.00    +0.000 C 
ATOM      3  C   UNL     1       2.521   6.973  18.331  0.00  0.00    +0.000 C 
ATOM      4  C   UNL     1       3.002   5.645  18.895  0.00  0.00    +0.000 C 
ATOM      5  C   UNL     1       1.968   5.141  19.910  0.00  0.00    +0.000 C 
ATOM      6  C   UNL     1       1.607   6.195  20.963  0.00  0.00    +0.000 C 
ENDROOT
BRANCH   4   7
ATOM      7  N   UNL     1       4.335   5.736  19.554  0.00  0.00    +0.000 NA
ATOM      8  H   UNL     1       4.283   5.776  20.575  0.00  0.00    +0.000 HD
BRANCH   7   9
ATOM      9  S   UNL     1       5.523   4.579  19.163  0.00  0.00    +0.000 S 
ATOM     10  O   UNL     1       6.761   5.084  19.713  0.00  0.00    +0.000 OA
ATOM     11  O   UNL     1       5.013   3.276  19.512  0.00  0.00    +0.000 OA
BRANCH   9  12
ATOM     12  C   UNL     1       5.746   4.557  17.399  0.00  0.00    +0.000 A 
ATOM     13  C   UNL     1       5.003   4.003  16.372  0.00  0.00    +0.000 A 
ATOM     14  C   UNL     1       5.584   4.233  15.090  0.00  0.00    +0.000 A 
ATOM     15  C   UNL     1       6.751   4.959  15.179  0.00  0.00    +0.000 A 
ATOM     16  S   UNL     1       7.137   5.362  16.797  0.00  0.00    +0.000 S 
ENDBRANCH   9  12
ENDBRANCH   7   9
ENDBRANCH   4   7
BRANCH   1  17
ATOM     17  C   UNL     1       0.983   8.477  21.455  0.00  0.00    +0.000 C 
BRANCH  17  21
ATOM     18  C   UNL     1       0.166  11.824  20.514  0.00  0.00    +0.000 A 
ATOM     19  N   UNL     1      -0.783  11.175  19.820  0.00  0.00    +0.000 NA
ATOM     20  O   UNL     1      -0.536   9.833  20.119  0.00  0.00    +0.000 OA
ATOM     21  C   UNL     1       0.539   9.814  20.959  0.00  0.00    +0.000 A 
ATOM     22  N   UNL     1       1.012  11.012  21.226  0.00  0.00    +0.000 NA
BRANCH  18  23
ATOM     23  C   UNL     1       0.417  13.298  20.425  0.00  0.00    +0.000 C 
ATOM     24  C   UNL     1      -0.842  14.071  20.041  0.00  0.00    +0.000 C 
BRANCH  23  26
ATOM     25  C   UNL     1       1.393  15.023  19.097  0.00  0.00    +0.000 C 
ATOM     26  O   UNL     1       1.453  13.653  19.483  0.00  0.00    +0.000 OA
ENDBRANCH  23  26
ENDBRANCH  18  23
ENDBRANCH  17  21
ENDBRANCH   1  17
TORSDOF 7
ENDMDL
