MODEL 1
REMARK VINA RESULT:      -7.4      0.000      0.000
REMARK  Name = 
REMARK  6 active torsions:
REMARK  status: ('A' for Active; 'I' for Inactive)
REMARK    1  A    between atoms: C_1  and  N_2
REMARK    2  A    between atoms: C_4  and  C_5
REMARK    3  A    between atoms: C_7  and  S_8
REMARK    4  A    between atoms: S_8  and  C_9
REMARK    5  A    between atoms: C_14  and  O_15
REMARK    6  A    between atoms: O_15  and  C_16
REMARK                            x       y       z     vdW  Elec       q    Type
REMARK                         _______ _______ _______ _____ _____    ______ ____
ROOT
ATOM      1  C   UNL     1      -1.069  11.851  19.132  0.00  0.00    +0.000 A 
ATOM      2  C   UNL     1      -2.457  12.086  19.034  0.00  0.00    +0.000 A 
ATOM      3  C   UNL     1      -3.260  11.302  18.203  0.00  0.00    +0.000 A 
ATOM      4  C   UNL     1      -2.712  10.245  17.485  0.00  0.00    +0.000 A 
ATOM      5  C   UNL     1      -1.346   9.993  17.586  0.00  0.00    +0.000 A 
ATOM      6  C   UNL     1      -0.503  10.823  18.354  0.00  0.00    +0.000 A 
ENDROOT
BRANCH   1  10
ATOM      7  C   UNL     1      -1.228  13.832  23.573  0.00  0.00    +0.000 C 
ATOM      8  N   UNL     1      -0.519  13.729  22.311  0.00  0.00    +0.000 N 
ATOM      9  C   UNL     1      -0.908  12.775  21.358  0.00  0.00    +0.000 A 
ATOM     10  C   UNL     1      -0.355  12.703  20.119  0.00  0.00    +0.000 A 
ATOM     11  C   UNL     1       0.674  13.648  19.795  0.00  0.00    +0.000 A 
ATOM     12  C   UNL     1       1.420  13.896  18.623  0.00  0.00    +0.000 A 
ATOM     13  C   UNL     1       2.219  14.994  18.884  0.00  0.00    +0.000 A 
ATOM     14  N   UNL     1       1.990  15.399  20.178  0.00  0.00    +0.000 N 
ATOM     15  C   UNL     1       1.043  14.584  20.737  0.00  0.00    +0.000 A 
ATOM     16  C   UNL     1       0.484  14.687  22.059  0.00  0.00    +0.000 A 
ATOM     17  O   UNL     1       0.834  15.547  22.867  0.00  0.00    +0.000 OA
ATOM     18  H   UNL     1       2.423  16.184  20.650  0.00  0.00    +0.000 HD
ENDBRANCH   1  10
BRANCH   3  19
ATOM     19  S   UNL     1      -5.020  11.566  18.169  0.00  0.00    +0.000 S 
ATOM     20  C   UNL     1      -5.304  12.696  19.505  0.00  0.00    +0.000 C 
ATOM     21  O   UNL     1      -5.325  12.250  16.928  0.00  0.00    +0.000 OA
ATOM     22  O   UNL     1      -5.651  10.301  18.496  0.00  0.00    +0.000 OA
ENDBRANCH   3  19
BRANCH   6  23
ATOM     23  O   UNL     1       0.868  10.615  18.369  0.00  0.00    +0.000 OA
BRANCH  23  24
ATOM     24  C   UNL     1       1.329   9.376  18.793  0.00  0.00    +0.000 A 
ATOM     25  C   UNL     1       1.144   8.907  20.102  0.00  0.00    +0.000 A 
ATOM     26  C   UNL     1       1.696   7.688  20.502  0.00  0.00    +0.000 A 
ATOM     27  C   UNL     1       2.378   6.902  19.577  0.00  0.00    +0.000 A 
ATOM     28 CL   UNL     1       3.039   5.392  20.068  0.00  0.00    +0.000 Cl
ATOM     29  C   UNL     1       2.522   7.334  18.258  0.00  0.00    +0.000 A 
ATOM     30  C   UNL     1       1.999   8.575  17.865  0.00  0.00    +0.000 A 
ENDBRANCH  23  24
ENDBRANCH   6  23
TORSDOF 4
ENDMDL
MODEL 2
REMARK VINA RESULT:      -7.4      2.821      5.594
REMARK  Name = 
REMARK  6 active torsions:
REMARK  status: ('A' for Active; 'I' for Inactive)
REMARK    1  A    between atoms: C_1  and  N_2
REMARK    2  A    between atoms: C_4  and  C_5
REMARK    3  A    between atoms: C_7  and  S_8
REMARK    4  A    between atoms: S_8  and  C_9
REMARK    5  A    between atoms: C_14  and  O_15
REMARK    6  A    between atoms: O_15  and  C_16
REMARK                            x       y       z     vdW  Elec       q    Type
REMARK                         _______ _______ _______ _____ _____    ______ ____
ROOT
ATOM      1  C   UNL     1      -0.578  12.559  19.351  0.00  0.00    +0.000 A 
ATOM      2  C   UNL     1      -0.338  13.921  19.067  0.00  0.00    +0.000 A 
ATOM      3  C   UNL     1       0.891  14.510  19.372  0.00  0.00    +0.000 A 
ATOM      4  C   UNL     1       1.918  13.755  19.925  0.00  0.00    +0.000 A 
ATOM      5  C   UNL     1       1.699  12.406  20.195  0.00  0.00    +0.000 A 
ATOM      6  C   UNL     1       0.440  11.810  19.972  0.00  0.00    +0.000 A 
ENDROOT
BRANCH   1  10
ATOM      7  C   UNL     1      -3.140  10.918  15.555  0.00  0.00    +0.000 C 
ATOM      8  N   UNL     1      -3.150  11.306  16.954  0.00  0.00    +0.000 N 
ATOM      9  C   UNL     1      -1.944  11.573  17.621  0.00  0.00    +0.000 A 
ATOM     10  C   UNL     1      -1.895  12.044  18.893  0.00  0.00    +0.000 A 
ATOM     11  C   UNL     1      -3.141  12.262  19.569  0.00  0.00    +0.000 A 
ATOM     12  C   UNL     1      -3.469  12.773  20.843  0.00  0.00    +0.000 A 
ATOM     13  C   UNL     1      -4.850  12.821  20.910  0.00  0.00    +0.000 A 
ATOM     14  N   UNL     1      -5.357  12.339  19.726  0.00  0.00    +0.000 N 
ATOM     15  C   UNL     1      -4.319  12.002  18.902  0.00  0.00    +0.000 A 
ATOM     16  C   UNL     1      -4.409  11.498  17.557  0.00  0.00    +0.000 A 
ATOM     17  O   UNL     1      -5.483  11.289  16.993  0.00  0.00    +0.000 OA
ATOM     18  H   UNL     1      -6.336  12.261  19.477  0.00  0.00    +0.000 HD
ENDBRANCH   1  10
BRANCH   3  19
ATOM     19  S   UNL     1       1.193  16.205  18.920  0.00  0.00    +0.000 S 
ATOM     20  C   UNL     1       1.339  17.038  20.478  0.00  0.00    +0.000 C 
ATOM     21  O   UNL     1       2.486  16.247  18.264  0.00  0.00    +0.000 OA
ATOM     22  O   UNL     1       0.002  16.692  18.250  0.00  0.00    +0.000 OA
ENDBRANCH   3  19
BRANCH   6  23
ATOM     23  O   UNL     1       0.210  10.491  20.333  0.00  0.00    +0.000 OA
BRANCH  23  24
ATOM     24  C   UNL     1       0.985   9.511  19.727  0.00  0.00    +0.000 A 
ATOM     25  C   UNL     1       1.367   9.576  18.379  0.00  0.00    +0.000 A 
ATOM     26  C   UNL     1       2.079   8.526  17.794  0.00  0.00    +0.000 A 
ATOM     27  C   UNL     1       2.469   7.438  18.571  0.00  0.00    +0.000 A 
ATOM     28 CL   UNL     1       3.362   6.156  17.852  0.00  0.00    +0.000 Cl
ATOM     29  C   UNL     1       2.140   7.389  19.927  0.00  0.00    +0.000 A 
ATOM     30  C   UNL     1       1.394   8.425  20.505  0.00  0.00    +0.000 A 
ENDBRANCH  23  24
ENDBRANCH   6  23
TORSDOF 4
ENDMDL
MODEL 3
REMARK VINA RESULT:      -7.4      2.746      5.564
REMARK  Name = 
REMARK  6 active torsions:
REMARK  status: ('A' for Active; 'I' for Inactive)
REMARK    1  A    between atoms: C_1  and  N_2
REMARK    2  A    between atoms: C_4  and  C_5
REMARK    3  A    between atoms: C_7  and  S_8
REMARK    4  A    between atoms: S_8  and  C_9
REMARK    5  A    between atoms: C_14  and  O_15
REMARK    6  A    between atoms: O_15  and  C_16
REMARK                            x       y       z     vdW  Elec       q    Type
REMARK                         _______ _______ _______ _____ _____    ______ ____
ROOT
ATOM      1  C   UNL     1      -0.600  12.553  19.492  0.00  0.00    +0.000 A 
ATOM      2  C   UNL     1      -0.333  13.909  19.208  0.00  0.00    +0.000 A 
ATOM      3  C   UNL     1       0.888  14.488  19.559  0.00  0.00    +0.000 A 
ATOM      4  C   UNL     1       1.883  13.727  20.161  0.00  0.00    +0.000 A 
ATOM      5  C   UNL     1       1.638  12.383  20.432  0.00  0.00    +0.000 A 
ATOM      6  C   UNL     1       0.383  11.798  20.162  0.00  0.00    +0.000 A 
ENDROOT
BRANCH   1  10
ATOM      7  C   UNL     1      -3.033  10.953  15.595  0.00  0.00    +0.000 C 
ATOM      8  N   UNL     1      -3.091  11.330  16.995  0.00  0.00    +0.000 N 
ATOM      9  C   UNL     1      -1.908  11.587  17.707  0.00  0.00    +0.000 A 
ATOM     10  C   UNL     1      -1.902  12.048  18.984  0.00  0.00    +0.000 A 
ATOM     11  C   UNL     1      -3.171  12.267  19.617  0.00  0.00    +0.000 A 
ATOM     12  C   UNL     1      -3.542  12.771  20.881  0.00  0.00    +0.000 A 
ATOM     13  C   UNL     1      -4.924  12.825  20.899  0.00  0.00    +0.000 A 
ATOM     14  N   UNL     1      -5.391  12.354  19.695  0.00  0.00    +0.000 N 
ATOM     15  C   UNL     1      -4.325  12.018  18.906  0.00  0.00    +0.000 A 
ATOM     16  C   UNL     1      -4.369  11.524  17.555  0.00  0.00    +0.000 A 
ATOM     17  O   UNL     1      -5.423  11.325  16.950  0.00  0.00    +0.000 OA
ATOM     18  H   UNL     1      -6.361  12.283  19.410  0.00  0.00    +0.000 HD
ENDBRANCH   1  10
BRANCH   3  19
ATOM     19  S   UNL     1       1.228  16.176  19.107  0.00  0.00    +0.000 S 
ATOM     20  C   UNL     1      -0.279  16.723  18.351  0.00  0.00    +0.000 C 
ATOM     21  O   UNL     1       1.410  16.919  20.339  0.00  0.00    +0.000 OA
ATOM     22  O   UNL     1       2.266  16.149  18.093  0.00  0.00    +0.000 OA
ENDBRANCH   3  19
BRANCH   6  23
ATOM     23  O   UNL     1       0.123  10.485  20.524  0.00  0.00    +0.000 OA
BRANCH  23  24
ATOM     24  C   UNL     1       0.862   9.486  19.903  0.00  0.00    +0.000 A 
ATOM     25  C   UNL     1       1.357   8.370  20.595  0.00  0.00    +0.000 A 
ATOM     26  C   UNL     1       2.162   7.434  19.942  0.00  0.00    +0.000 A 
ATOM     27  C   UNL     1       2.420   7.574  18.581  0.00  0.00    +0.000 A 
ATOM     28 CL   UNL     1       3.397   6.408  17.777  0.00  0.00    +0.000 Cl
ATOM     29  C   UNL     1       1.889   8.652  17.872  0.00  0.00    +0.000 A 
ATOM     30  C   UNL     1       1.110   9.611  18.534  0.00  0.00    +0.000 A 
ENDBRANCH  23  24
ENDBRANCH   6  23
TORSDOF 4
ENDMDL
MODEL 4
REMARK VINA RESULT:      -7.0      5.811      9.528
REMARK  Name = 
REMARK  6 active torsions:
REMARK  status: ('A' for Active; 'I' for Inactive)
REMARK    1  A    between atoms: C_1  and  N_2
REMARK    2  A    between atoms: C_4  and  C_5
REMARK    3  A    between atoms: C_7  and  S_8
REMARK    4  A    between atoms: S_8  and  C_9
REMARK    5  A    between atoms: C_14  and  O_15
REMARK    6  A    between atoms: O_15  and  C_16
REMARK                            x       y       z     vdW  Elec       q    Type
REMARK                         _______ _______ _______ _____ _____    ______ ____
ROOT
ATOM      1  C   UNL     1       3.781   5.662  18.355  0.00  0.00    +0.000 A 
ATOM      2  C   UNL     1       3.774   4.401  18.986  0.00  0.00    +0.000 A 
ATOM      3  C   UNL     1       2.857   4.110  19.998  0.00  0.00    +0.000 A 
ATOM      4  C   UNL     1       1.903   5.049  20.376  0.00  0.00    +0.000 A 
ATOM      5  C   UNL     1       1.890   6.292  19.749  0.00  0.00    +0.000 A 
ATOM      6  C   UNL     1       2.858   6.636  18.783  0.00  0.00    +0.000 A 
ENDROOT
BRANCH   1  10
ATOM      7  C   UNL     1       5.392   3.742  14.185  0.00  0.00    +0.000 C 
ATOM      8  N   UNL     1       5.568   4.761  15.204  0.00  0.00    +0.000 N 
ATOM      9  C   UNL     1       4.592   4.941  16.198  0.00  0.00    +0.000 A 
ATOM     10  C   UNL     1       4.751   5.801  17.237  0.00  0.00    +0.000 A 
ATOM     11  C   UNL     1       5.971   6.553  17.297  0.00  0.00    +0.000 A 
ATOM     12  C   UNL     1       6.487   7.478  18.230  0.00  0.00    +0.000 A 
ATOM     13  C   UNL     1       7.755   7.817  17.795  0.00  0.00    +0.000 A 
ATOM     14  N   UNL     1       8.007   7.140  16.625  0.00  0.00    +0.000 N 
ATOM     15  C   UNL     1       6.923   6.363  16.319  0.00  0.00    +0.000 A 
ATOM     16  C   UNL     1       6.788   5.466  15.202  0.00  0.00    +0.000 A 
ATOM     17  O   UNL     1       7.669   5.316  14.355  0.00  0.00    +0.000 OA
ATOM     18  H   UNL     1       8.858   7.179  16.076  0.00  0.00    +0.000 HD
ENDBRANCH   1  10
BRANCH   3  19
ATOM     19  S   UNL     1       2.816   2.481  20.713  0.00  0.00    +0.000 S 
ATOM     20  C   UNL     1       4.458   1.865  20.456  0.00  0.00    +0.000 C 
ATOM     21  O   UNL     1       2.615   2.646  22.140  0.00  0.00    +0.000 OA
ATOM     22  O   UNL     1       1.898   1.686  19.919  0.00  0.00    +0.000 OA
ENDBRANCH   3  19
BRANCH   6  23
ATOM     23  O   UNL     1       2.888   7.910  18.237  0.00  0.00    +0.000 OA
BRANCH  23  24
ATOM     24  C   UNL     1       1.861   8.782  18.574  0.00  0.00    +0.000 A 
ATOM     25  C   UNL     1       1.710   9.309  19.866  0.00  0.00    +0.000 A 
ATOM     26  C   UNL     1       0.615  10.118  20.176  0.00  0.00    +0.000 A 
ATOM     27  C   UNL     1      -0.297  10.457  19.181  0.00  0.00    +0.000 A 
ATOM     28 CL   UNL     1      -1.634  11.470  19.563  0.00  0.00    +0.000 Cl
ATOM     29  C   UNL     1      -0.128   9.982  17.880  0.00  0.00    +0.000 A 
ATOM     30  C   UNL     1       0.952   9.140  17.576  0.00  0.00    +0.000 A 
ENDBRANCH  23  24
ENDBRANCH   6  23
TORSDOF 4
ENDMDL
MODEL 5
REMARK VINA RESULT:      -6.9      3.634      6.620
REMARK  Name = 
REMARK  6 active torsions:
REMARK  status: ('A' for Active; 'I' for Inactive)
REMARK    1  A    between atoms: C_1  and  N_2
REMARK    2  A    between atoms: C_4  and  C_5
REMARK    3  A    between atoms: C_7  and  S_8
REMARK    4  A    between atoms: S_8  and  C_9
REMARK    5  A    between atoms: C_14  and  O_15
REMARK    6  A    between atoms: O_15  and  C_16
REMARK                            x       y       z     vdW  Elec       q    Type
REMARK                         _______ _______ _______ _____ _____    ______ ____
ROOT
ATOM      1  C   UNL     1       0.599  12.109  19.492  0.00  0.00    +0.000 A 
ATOM      2  C   UNL     1       1.677  13.003  19.316  0.00  0.00    +0.000 A 
ATOM      3  C   UNL     1       1.457  14.318  18.902  0.00  0.00    +0.000 A 
ATOM      4  C   UNL     1       0.165  14.786  18.694  0.00  0.00    +0.000 A 
ATOM      5  C   UNL     1      -0.909  13.918  18.880  0.00  0.00    +0.000 A 
ATOM      6  C   UNL     1      -0.706  12.564  19.217  0.00  0.00    +0.000 A 
ENDROOT
BRANCH   1  10
ATOM      7  C   UNL     1       2.305   7.693  18.371  0.00  0.00    +0.000 C 
ATOM      8  N   UNL     1       1.753   8.561  19.395  0.00  0.00    +0.000 N 
ATOM      9  C   UNL     1       1.582   9.931  19.143  0.00  0.00    +0.000 A 
ATOM     10  C   UNL     1       0.972  10.770  20.019  0.00  0.00    +0.000 A 
ATOM     11  C   UNL     1       0.497  10.213  21.253  0.00  0.00    +0.000 A 
ATOM     12  C   UNL     1      -0.206  10.757  22.348  0.00  0.00    +0.000 A 
ATOM     13  C   UNL     1      -0.459   9.712  23.219  0.00  0.00    +0.000 A 
ATOM     14  N   UNL     1       0.085   8.566  22.689  0.00  0.00    +0.000 N 
ATOM     15  C   UNL     1       0.665   8.865  21.486  0.00  0.00    +0.000 A 
ATOM     16  C   UNL     1       1.311   7.947  20.584  0.00  0.00    +0.000 A 
ATOM     17  O   UNL     1       1.431   6.746  20.826  0.00  0.00    +0.000 OA
ATOM     18  H   UNL     1       0.052   7.639  23.096  0.00  0.00    +0.000 HD
ENDBRANCH   1  10
BRANCH   3  19
ATOM     19  S   UNL     1       2.828  15.445  18.776  0.00  0.00    +0.000 S 
ATOM     20  C   UNL     1       2.134  17.010  19.236  0.00  0.00    +0.000 C 
ATOM     21  O   UNL     1       3.790  15.063  19.791  0.00  0.00    +0.000 OA
ATOM     22  O   UNL     1       3.209  15.506  17.377  0.00  0.00    +0.000 OA
ENDBRANCH   3  19
BRANCH   6  23
ATOM     23  O   UNL     1      -1.779  11.690  19.307  0.00  0.00    +0.000 OA
BRANCH  23  24
ATOM     24  C   UNL     1      -2.319  11.208  18.121  0.00  0.00    +0.000 A 
ATOM     25  C   UNL     1      -1.685  10.228  17.344  0.00  0.00    +0.000 A 
ATOM     26  C   UNL     1      -2.229   9.834  16.120  0.00  0.00    +0.000 A 
ATOM     27  C   UNL     1      -3.443  10.371  15.699  0.00  0.00    +0.000 A 
ATOM     28 CL   UNL     1      -4.119   9.870  14.199  0.00  0.00    +0.000 Cl
ATOM     29  C   UNL     1      -4.109  11.308  16.490  0.00  0.00    +0.000 A 
ATOM     30  C   UNL     1      -3.546  11.730  17.702  0.00  0.00    +0.000 A 
ENDBRANCH  23  24
ENDBRANCH   6  23
TORSDOF 4
ENDMDL
MODEL 6
REMARK VINA RESULT:      -6.8      2.776      5.336
REMARK  Name = 
REMARK  6 active torsions:
REMARK  status: ('A' for Active; 'I' for Inactive)
REMARK    1  A    between atoms: C_1  and  N_2
REMARK    2  A    between atoms: C_4  and  C_5
REMARK    3  A    between atoms: C_7  and  S_8
REMARK    4  A    between atoms: S_8  and  C_9
REMARK    5  A    between atoms: C_14  and  O_15
REMARK    6  A    between atoms: O_15  and  C_16
REMARK                            x       y       z     vdW  Elec       q    Type
REMARK                         _______ _______ _______ _____ _____    ______ ____
ROOT
ATOM      1  C   UNL     1      -0.758  12.879  19.418  0.00  0.00    +0.000 A 
ATOM      2  C   UNL     1      -0.413  14.229  19.195  0.00  0.00    +0.000 A 
ATOM      3  C   UNL     1       0.898  14.673  19.381  0.00  0.00    +0.000 A 
ATOM      4  C   UNL     1       1.899  13.783  19.752  0.00  0.00    +0.000 A 
ATOM      5  C   UNL     1       1.573  12.445  19.960  0.00  0.00    +0.000 A 
ATOM      6  C   UNL     1       0.242  11.990  19.858  0.00  0.00    +0.000 A 
ENDROOT
BRANCH   1  10
ATOM      7  C   UNL     1      -5.305  12.587  21.123  0.00  0.00    +0.000 C 
ATOM      8  N   UNL     1      -4.401  12.328  20.017  0.00  0.00    +0.000 N 
ATOM      9  C   UNL     1      -3.089  12.828  20.046  0.00  0.00    +0.000 A 
ATOM     10  C   UNL     1      -2.167  12.528  19.096  0.00  0.00    +0.000 A 
ATOM     11  C   UNL     1      -2.574  11.671  18.021  0.00  0.00    +0.000 A 
ATOM     12  C   UNL     1      -1.892  11.124  16.914  0.00  0.00    +0.000 A 
ATOM     13  C   UNL     1      -2.790  10.300  16.259  0.00  0.00    +0.000 A 
ATOM     14  N   UNL     1      -3.990  10.351  16.927  0.00  0.00    +0.000 N 
ATOM     15  C   UNL     1      -3.863  11.182  18.007  0.00  0.00    +0.000 A 
ATOM     16  C   UNL     1      -4.868  11.481  18.993  0.00  0.00    +0.000 A 
ATOM     17  O   UNL     1      -6.006  11.014  18.949  0.00  0.00    +0.000 OA
ATOM     18  H   UNL     1      -4.835   9.846  16.688  0.00  0.00    +0.000 HD
ENDBRANCH   1  10
BRANCH   3  19
ATOM     19  S   UNL     1       1.320  16.361  19.006  0.00  0.00    +0.000 S 
ATOM     20  C   UNL     1       1.797  17.036  20.574  0.00  0.00    +0.000 C 
ATOM     21  O   UNL     1       2.492  16.328  18.154  0.00  0.00    +0.000 OA
ATOM     22  O   UNL     1       0.104  17.023  18.573  0.00  0.00    +0.000 OA
ENDBRANCH   3  19
BRANCH   6  23
ATOM     23  O   UNL     1      -0.080  10.675  20.159  0.00  0.00    +0.000 OA
BRANCH  23  24
ATOM     24  C   UNL     1       0.740   9.677  19.650  0.00  0.00    +0.000 A 
ATOM     25  C   UNL     1       1.135   9.636  18.304  0.00  0.00    +0.000 A 
ATOM     26  C   UNL     1       1.894   8.568  17.823  0.00  0.00    +0.000 A 
ATOM     27  C   UNL     1       2.317   7.570  18.698  0.00  0.00    +0.000 A 
ATOM     28 CL   UNL     1       3.268   6.266  18.104  0.00  0.00    +0.000 Cl
ATOM     29  C   UNL     1       1.974   7.629  20.049  0.00  0.00    +0.000 A 
ATOM     30  C   UNL     1       1.182   8.683  20.526  0.00  0.00    +0.000 A 
ENDBRANCH  23  24
ENDBRANCH   6  23
TORSDOF 4
ENDMDL
MODEL 7
REMARK VINA RESULT:      -6.8      0.789      2.289
REMARK  Name = 
REMARK  6 active torsions:
REMARK  status: ('A' for Active; 'I' for Inactive)
REMARK    1  A    between atoms: C_1  and  N_2
REMARK    2  A    between atoms: C_4  and  C_5
REMARK    3  A    between atoms: C_7  and  S_8
REMARK    4  A    between atoms: S_8  and  C_9
REMARK    5  A    between atoms: C_14  and  O_15
REMARK    6  A    between atoms: O_15  and  C_16
REMARK                            x       y       z     vdW  Elec       q    Type
REMARK                         _______ _______ _______ _____ _____    ______ ____
ROOT
ATOM      1  C   UNL     1      -1.620  12.140  19.185  0.00  0.00    +0.000 A 
ATOM      2  C   UNL     1      -3.021  12.241  19.044  0.00  0.00    +0.000 A 
ATOM      3  C   UNL     1      -3.730  11.325  18.264  0.00  0.00    +0.000 A 
ATOM      4  C   UNL     1      -3.074  10.268  17.644  0.00  0.00    +0.000 A 
ATOM      5  C   UNL     1      -1.694  10.149  17.789  0.00  0.00    +0.000 A 
ATOM      6  C   UNL     1      -0.946  11.108  18.503  0.00  0.00    +0.000 A 
ENDROOT
BRANCH   1  10
ATOM      7  C   UNL     1       2.216  15.012  20.021  0.00  0.00    +0.000 C 
ATOM      8  N   UNL     1       0.960  14.483  20.521  0.00  0.00    +0.000 N 
ATOM      9  C   UNL     1       0.122  13.738  19.676  0.00  0.00    +0.000 A 
ATOM     10  C   UNL     1      -1.009  13.127  20.113  0.00  0.00    +0.000 A 
ATOM     11  C   UNL     1      -1.347  13.269  21.500  0.00  0.00    +0.000 A 
ATOM     12  C   UNL     1      -2.391  12.750  22.294  0.00  0.00    +0.000 A 
ATOM     13  C   UNL     1      -2.153  13.171  23.591  0.00  0.00    +0.000 A 
ATOM     14  N   UNL     1      -1.013  13.939  23.593  0.00  0.00    +0.000 N 
ATOM     15  C   UNL     1      -0.513  13.997  22.321  0.00  0.00    +0.000 A 
ATOM     16  C   UNL     1       0.689  14.662  21.892  0.00  0.00    +0.000 A 
ATOM     17  O   UNL     1       1.413  15.294  22.661  0.00  0.00    +0.000 OA
ATOM     18  H   UNL     1      -0.583  14.378  24.399  0.00  0.00    +0.000 HD
ENDBRANCH   1  10
BRANCH   3  19
ATOM     19  S   UNL     1      -5.505  11.426  18.178  0.00  0.00    +0.000 S 
ATOM     20  C   UNL     1      -5.929  12.548  19.483  0.00  0.00    +0.000 C 
ATOM     21  O   UNL     1      -5.835  12.059  16.916  0.00  0.00    +0.000 OA
ATOM     22  O   UNL     1      -6.028  10.115  18.512  0.00  0.00    +0.000 OA
ENDBRANCH   3  19
BRANCH   6  23
ATOM     23  O   UNL     1       0.437  11.027  18.559  0.00  0.00    +0.000 OA
BRANCH  23  24
ATOM     24  C   UNL     1       0.999   9.798  18.883  0.00  0.00    +0.000 A 
ATOM     25  C   UNL     1       0.907   9.239  20.166  0.00  0.00    +0.000 A 
ATOM     26  C   UNL     1       1.556   8.039  20.463  0.00  0.00    +0.000 A 
ATOM     27  C   UNL     1       2.245   7.360  19.461  0.00  0.00    +0.000 A 
ATOM     28 CL   UNL     1       3.028   5.873  19.826  0.00  0.00    +0.000 Cl
ATOM     29  C   UNL     1       2.298   7.881  18.167  0.00  0.00    +0.000 A 
ATOM     30  C   UNL     1       1.676   9.104  17.878  0.00  0.00    +0.000 A 
ENDBRANCH  23  24
ENDBRANCH   6  23
TORSDOF 4
ENDMDL
MODEL 8
REMARK VINA RESULT:      -6.8      2.702      5.389
REMARK  Name = 
REMARK  6 active torsions:
REMARK  status: ('A' for Active; 'I' for Inactive)
REMARK    1  A    between atoms: C_1  and  N_2
REMARK    2  A    between atoms: C_4  and  C_5
REMARK    3  A    between atoms: C_7  and  S_8
REMARK    4  A    between atoms: S_8  and  C_9
REMARK    5  A    between atoms: C_14  and  O_15
REMARK    6  A    between atoms: O_15  and  C_16
REMARK                            x       y       z     vdW  Elec       q    Type
REMARK                         _______ _______ _______ _____ _____    ______ ____
ROOT
ATOM      1  C   UNL     1      -1.122  12.799  19.708  0.00  0.00    +0.000 A 
ATOM      2  C   UNL     1      -0.824  14.178  19.701  0.00  0.00    +0.000 A 
ATOM      3  C   UNL     1       0.433  14.641  20.098  0.00  0.00    +0.000 A 
ATOM      4  C   UNL     1       1.429  13.746  20.471  0.00  0.00    +0.000 A 
ATOM      5  C   UNL     1       1.151  12.381  20.466  0.00  0.00    +0.000 A 
ATOM      6  C   UNL     1      -0.134  11.897  20.148  0.00  0.00    +0.000 A 
ENDROOT
BRANCH   1  10
ATOM      7  C   UNL     1      -5.831  12.216  20.784  0.00  0.00    +0.000 C 
ATOM      8  N   UNL     1      -4.787  12.092  19.783  0.00  0.00    +0.000 N 
ATOM      9  C   UNL     1      -3.509  12.622  20.026  0.00  0.00    +0.000 A 
ATOM     10  C   UNL     1      -2.465  12.443  19.177  0.00  0.00    +0.000 A 
ATOM     11  C   UNL     1      -2.701  11.685  17.983  0.00  0.00    +0.000 A 
ATOM     12  C   UNL     1      -1.865  11.269  16.925  0.00  0.00    +0.000 A 
ATOM     13  C   UNL     1      -2.641  10.489  16.087  0.00  0.00    +0.000 A 
ATOM     14  N   UNL     1      -3.917  10.441  16.598  0.00  0.00    +0.000 N 
ATOM     15  C   UNL     1      -3.957  11.165  17.759  0.00  0.00    +0.000 A 
ATOM     16  C   UNL     1      -5.088  11.338  18.632  0.00  0.00    +0.000 A 
ATOM     17  O   UNL     1      -6.193  10.846  18.400  0.00  0.00    +0.000 OA
ATOM     18  H   UNL     1      -4.705   9.939  16.207  0.00  0.00    +0.000 HD
ENDBRANCH   1  10
BRANCH   3  19
ATOM     19  S   UNL     1       0.808  16.377  19.993  0.00  0.00    +0.000 S 
ATOM     20  C   UNL     1      -0.534  17.043  19.045  0.00  0.00    +0.000 C 
ATOM     21  O   UNL     1       0.720  16.915  21.337  0.00  0.00    +0.000 OA
ATOM     22  O   UNL     1       2.027  16.509  19.218  0.00  0.00    +0.000 OA
ENDBRANCH   3  19
BRANCH   6  23
ATOM     23  O   UNL     1      -0.421  10.543  20.240  0.00  0.00    +0.000 OA
BRANCH  23  24
ATOM     24  C   UNL     1       0.508   9.650  19.721  0.00  0.00    +0.000 A 
ATOM     25  C   UNL     1       0.948   9.705  18.390  0.00  0.00    +0.000 A 
ATOM     26  C   UNL     1       1.823   8.736  17.894  0.00  0.00    +0.000 A 
ATOM     27  C   UNL     1       2.311   7.747  18.744  0.00  0.00    +0.000 A 
ATOM     28 CL   UNL     1       3.403   6.566  18.134  0.00  0.00    +0.000 Cl
ATOM     29  C   UNL     1       1.921   7.714  20.083  0.00  0.00    +0.000 A 
ATOM     30  C   UNL     1       1.015   8.665  20.573  0.00  0.00    +0.000 A 
ENDBRANCH  23  24
ENDBRANCH   6  23
TORSDOF 4
ENDMDL
MODEL 9
REMARK VINA RESULT:      -6.7      4.153      6.647
REMARK  Name = 
REMARK  6 active torsions:
REMARK  status: ('A' for Active; 'I' for Inactive)
REMARK    1  A    between atoms: C_1  and  N_2
REMARK    2  A    between atoms: C_4  and  C_5
REMARK    3  A    between atoms: C_7  and  S_8
REMARK    4  A    between atoms: S_8  and  C_9
REMARK    5  A    between atoms: C_14  and  O_15
REMARK    6  A    between atoms: O_15  and  C_16
REMARK                            x       y       z     vdW  Elec       q    Type
REMARK                         _______ _______ _______ _____ _____    ______ ____
ROOT
ATOM      1  C   UNL     1      -2.744  13.615  20.680  0.00  0.00    +0.000 A 
ATOM      2  C   UNL     1      -2.300  14.918  20.992  0.00  0.00    +0.000 A 
ATOM      3  C   UNL     1      -1.107  15.415  20.462  0.00  0.00    +0.000 A 
ATOM      4  C   UNL     1      -0.352  14.647  19.583  0.00  0.00    +0.000 A 
ATOM      5  C   UNL     1      -0.788  13.365  19.255  0.00  0.00    +0.000 A 
ATOM      6  C   UNL     1      -1.945  12.813  19.842  0.00  0.00    +0.000 A 
ENDROOT
BRANCH   1  10
ATOM      7  C   UNL     1      -7.564  13.963  20.122  0.00  0.00    +0.000 C 
ATOM      8  N   UNL     1      -6.465  13.520  20.959  0.00  0.00    +0.000 N 
ATOM      9  C   UNL     1      -5.149  13.549  20.471  0.00  0.00    +0.000 A 
ATOM     10  C   UNL     1      -4.071  13.251  21.242  0.00  0.00    +0.000 A 
ATOM     11  C   UNL     1      -4.312  12.885  22.608  0.00  0.00    +0.000 A 
ATOM     12  C   UNL     1      -3.457  12.566  23.684  0.00  0.00    +0.000 A 
ATOM     13  C   UNL     1      -4.265  12.373  24.791  0.00  0.00    +0.000 A 
ATOM     14  N   UNL     1      -5.573  12.547  24.407  0.00  0.00    +0.000 N 
ATOM     15  C   UNL     1      -5.608  12.866  23.077  0.00  0.00    +0.000 A 
ATOM     16  C   UNL     1      -6.773  13.170  22.289  0.00  0.00    +0.000 A 
ATOM     17  O   UNL     1      -7.914  13.153  22.750  0.00  0.00    +0.000 OA
ATOM     18  H   UNL     1      -6.390  12.479  25.002  0.00  0.00    +0.000 HD
ENDBRANCH   1  10
BRANCH   3  19
ATOM     19  S   UNL     1      -0.621  17.092  20.802  0.00  0.00    +0.000 S 
ATOM     20  C   UNL     1      -1.856  18.065  19.985  0.00  0.00    +0.000 C 
ATOM     21  O   UNL     1      -0.760  17.295  22.231  0.00  0.00    +0.000 OA
ATOM     22  O   UNL     1       0.651  17.314  20.140  0.00  0.00    +0.000 OA
ENDBRANCH   3  19
BRANCH   6  23
ATOM     23  O   UNL     1      -2.314  11.502  19.578  0.00  0.00    +0.000 OA
BRANCH  23  24
ATOM     24  C   UNL     1      -2.695  11.188  18.280  0.00  0.00    +0.000 A 
ATOM     25  C   UNL     1      -3.858  11.703  17.688  0.00  0.00    +0.000 A 
ATOM     26  C   UNL     1      -4.241  11.294  16.408  0.00  0.00    +0.000 A 
ATOM     27  C   UNL     1      -3.428  10.421  15.690  0.00  0.00    +0.000 A 
ATOM     28 CL   UNL     1      -3.894   9.934  14.107  0.00  0.00    +0.000 Cl
ATOM     29  C   UNL     1      -2.242   9.944  16.249  0.00  0.00    +0.000 A 
ATOM     30  C   UNL     1      -1.875  10.326  17.548  0.00  0.00    +0.000 A 
ENDBRANCH  23  24
ENDBRANCH   6  23
TORSDOF 4
ENDMDL
