MODEL 1
REMARK VINA RESULT:      -7.3      0.000      0.000
REMARK  Name = 
REMARK  6 active torsions:
REMARK  status: ('A' for Active; 'I' for Inactive)
REMARK    1  A    between atoms: C_1  and  C_2
REMARK    2  A    between atoms: C_2  and  C_3
REMARK    3  A    between atoms: C_3  and  N_4
REMARK    4  A    between atoms: N_4  and  C_5
REMARK    5  A    between atoms: C_5  and  N_7
REMARK    6  A    between atoms: C_15  and  C_16
REMARK                            x       y       z     vdW  Elec       q    Type
REMARK                         _______ _______ _______ _____ _____    ______ ____
ROOT
ATOM      1  N   UNL     1       3.979   5.612  18.241  0.00  0.00    +0.000 N 
ATOM      2  N   UNL     1       3.779   6.839  17.546  0.00  0.00    +0.000 N 
ATOM      3  C   UNL     1       2.884   7.604  18.259  0.00  0.00    +0.000 C 
ATOM      4  C   UNL     1       2.655   7.078  19.463  0.00  0.00    +0.000 C 
ATOM      5  C   UNL     1       1.747   7.633  20.489  0.00  0.00    +0.000 C 
ATOM      6  C   UNL     1       1.031   8.926  20.084  0.00  0.00    +0.000 C 
ATOM      7  C   UNL     1       1.237   9.496  18.673  0.00  0.00    +0.000 C 
ATOM      8  C   UNL     1       2.208   8.805  17.709  0.00  0.00    +0.000 C 
ATOM      9  C   UNL     1       3.377   5.756  19.600  0.00  0.00    +0.000 C 
ATOM     10  H   UNL     1       3.646   6.761  16.539  0.00  0.00    +0.000 HD
ENDROOT
BRANCH   9  11
ATOM     11  C   UNL     1       2.476   4.568  19.834  0.00  0.00    +0.000 A 
ATOM     12  C   UNL     1       2.264   3.868  21.011  0.00  0.00    +0.000 A 
ATOM     13  C   UNL     1       1.293   2.841  20.869  0.00  0.00    +0.000 A 
ATOM     14  C   UNL     1       0.811   2.770  19.575  0.00  0.00    +0.000 A 
ATOM     15  S   UNL     1       1.532   3.930  18.554  0.00  0.00    +0.000 S 
ENDBRANCH   9  11
BRANCH   1  16
ATOM     16  C   UNL     1       4.985   4.749  17.820  0.00  0.00    +0.000 C 
ATOM     17  S   UNL     1       4.888   3.867  16.391  0.00  0.00    +0.000 S 
BRANCH  16  18
ATOM     18  N   UNL     1       6.069   4.700  18.677  0.00  0.00    +0.000 N 
ATOM     19  H   UNL     1       5.930   4.152  19.519  0.00  0.00    +0.000 HD
BRANCH  18  20
ATOM     20  C   UNL     1       7.447   5.024  18.347  0.00  0.00    +0.000 C 
BRANCH  20  22
ATOM     21  C   UNL     1       7.534   7.418  17.490  0.00  0.00    +0.000 C 
ATOM     22  C   UNL     1       7.803   6.482  18.661  0.00  0.00    +0.000 C 
ENDBRANCH  20  22
ENDBRANCH  18  20
ENDBRANCH  16  18
ENDBRANCH   1  16
TORSDOF 5
ENDMDL
MODEL 2
REMARK VINA RESULT:      -7.3      1.003      1.165
REMARK  Name = 
REMARK  6 active torsions:
REMARK  status: ('A' for Active; 'I' for Inactive)
REMARK    1  A    between atoms: C_1  and  C_2
REMARK    2  A    between atoms: C_2  and  C_3
REMARK    3  A    between atoms: C_3  and  N_4
REMARK    4  A    between atoms: N_4  and  C_5
REMARK    5  A    between atoms: C_5  and  N_7
REMARK    6  A    between atoms: C_15  and  C_16
REMARK                            x       y       z     vdW  Elec       q    Type
REMARK                         _______ _______ _______ _____ _____    ______ ____
ROOT
ATOM      1  N   UNL     1       4.239   5.525  17.642  0.00  0.00    +0.000 N 
ATOM      2  N   UNL     1       4.019   6.849  17.165  0.00  0.00    +0.000 N 
ATOM      3  C   UNL     1       3.131   7.476  18.010  0.00  0.00    +0.000 C 
ATOM      4  C   UNL     1       2.926   6.753  19.113  0.00  0.00    +0.000 C 
ATOM      5  C   UNL     1       2.032   7.120  20.231  0.00  0.00    +0.000 C 
ATOM      6  C   UNL     1       1.301   8.455  20.060  0.00  0.00    +0.000 C 
ATOM      7  C   UNL     1       1.479   9.255  18.761  0.00  0.00    +0.000 C 
ATOM      8  C   UNL     1       2.438   8.745  17.680  0.00  0.00    +0.000 C 
ATOM      9  C   UNL     1       3.659   5.433  19.015  0.00  0.00    +0.000 C 
ATOM     10  H   UNL     1       3.870   6.940  16.161  0.00  0.00    +0.000 HD
ENDROOT
BRANCH   9  11
ATOM     11  C   UNL     1       2.771   4.214  19.060  0.00  0.00    +0.000 A 
ATOM     12  C   UNL     1       1.690   3.908  18.250  0.00  0.00    +0.000 A 
ATOM     13  C   UNL     1       1.128   2.636  18.545  0.00  0.00    +0.000 A 
ATOM     14  C   UNL     1       1.784   2.020  19.594  0.00  0.00    +0.000 A 
ATOM     15  S   UNL     1       3.056   2.975  20.209  0.00  0.00    +0.000 S 
ENDBRANCH   9  11
BRANCH   1  16
ATOM     16  C   UNL     1       5.243   4.754  17.066  0.00  0.00    +0.000 C 
ATOM     17  S   UNL     1       5.260   4.353  15.433  0.00  0.00    +0.000 S 
BRANCH  16  18
ATOM     18  N   UNL     1       6.226   4.366  17.959  0.00  0.00    +0.000 N 
ATOM     19  H   UNL     1       6.044   3.497  18.450  0.00  0.00    +0.000 HD
BRANCH  18  20
ATOM     20  C   UNL     1       7.597   4.847  17.999  0.00  0.00    +0.000 C 
BRANCH  20  22
ATOM     21  C   UNL     1       7.701   7.379  17.767  0.00  0.00    +0.000 C 
ATOM     22  C   UNL     1       7.729   6.193  18.722  0.00  0.00    +0.000 C 
ENDBRANCH  20  22
ENDBRANCH  18  20
ENDBRANCH  16  18
ENDBRANCH   1  16
TORSDOF 5
ENDMDL
MODEL 3
REMARK VINA RESULT:      -6.9      1.657      2.053
REMARK  Name = 
REMARK  6 active torsions:
REMARK  status: ('A' for Active; 'I' for Inactive)
REMARK    1  A    between atoms: C_1  and  C_2
REMARK    2  A    between atoms: C_2  and  C_3
REMARK    3  A    between atoms: C_3  and  N_4
REMARK    4  A    between atoms: N_4  and  C_5
REMARK    5  A    between atoms: C_5  and  N_7
REMARK    6  A    between atoms: C_15  and  C_16
REMARK                            x       y       z     vdW  Elec       q    Type
REMARK                         _______ _______ _______ _____ _____    ______ ____
ROOT
ATOM      1  N   UNL     1       3.763   6.054  18.219  0.00  0.00    +0.000 N 
ATOM      2  N   UNL     1       3.467   7.292  17.579  0.00  0.00    +0.000 N 
ATOM      3  C   UNL     1       2.547   7.971  18.345  0.00  0.00    +0.000 C 
ATOM      4  C   UNL     1       2.387   7.386  19.534  0.00  0.00    +0.000 C 
ATOM      5  C   UNL     1       1.477   7.843  20.605  0.00  0.00    +0.000 C 
ATOM      6  C   UNL     1       0.671   9.102  20.272  0.00  0.00    +0.000 C 
ATOM      7  C   UNL     1       0.799   9.737  18.879  0.00  0.00    +0.000 C 
ATOM      8  C   UNL     1       1.781   9.146  17.863  0.00  0.00    +0.000 C 
ATOM      9  C   UNL     1       3.194   6.108  19.598  0.00  0.00    +0.000 C 
ATOM     10  H   UNL     1       3.309   7.244  16.573  0.00  0.00    +0.000 HD
ENDROOT
BRANCH   9  11
ATOM     11  C   UNL     1       2.377   4.857  19.809  0.00  0.00    +0.000 A 
ATOM     12  C   UNL     1       2.133   4.178  20.992  0.00  0.00    +0.000 A 
ATOM     13  C   UNL     1       1.261   3.070  20.817  0.00  0.00    +0.000 A 
ATOM     14  C   UNL     1       0.886   2.920  19.496  0.00  0.00    +0.000 A 
ATOM     15  S   UNL     1       1.586   4.104  18.488  0.00  0.00    +0.000 S 
ENDBRANCH   9  11
BRANCH   1  16
ATOM     16  C   UNL     1       4.808   5.274  17.736  0.00  0.00    +0.000 C 
ATOM     17  S   UNL     1       6.096   4.779  18.699  0.00  0.00    +0.000 S 
BRANCH  16  18
ATOM     18  N   UNL     1       4.678   4.936  16.401  0.00  0.00    +0.000 N 
ATOM     19  H   UNL     1       3.764   4.593  16.129  0.00  0.00    +0.000 HD
BRANCH  18  20
ATOM     20  C   UNL     1       5.554   5.347  15.316  0.00  0.00    +0.000 C 
BRANCH  20  22
ATOM     21  C   UNL     1       6.103   3.779  13.390  0.00  0.00    +0.000 C 
ATOM     22  C   UNL     1       6.445   4.205  14.811  0.00  0.00    +0.000 C 
ENDBRANCH  20  22
ENDBRANCH  18  20
ENDBRANCH  16  18
ENDBRANCH   1  16
TORSDOF 5
ENDMDL
MODEL 4
REMARK VINA RESULT:      -6.9      2.429      4.787
REMARK  Name = 
REMARK  6 active torsions:
REMARK  status: ('A' for Active; 'I' for Inactive)
REMARK    1  A    between atoms: C_1  and  C_2
REMARK    2  A    between atoms: C_2  and  C_3
REMARK    3  A    between atoms: C_3  and  N_4
REMARK    4  A    between atoms: N_4  and  C_5
REMARK    5  A    between atoms: C_5  and  N_7
REMARK    6  A    between atoms: C_15  and  C_16
REMARK                            x       y       z     vdW  Elec       q    Type
REMARK                         _______ _______ _______ _____ _____    ______ ____
ROOT
ATOM      1  N   UNL     1       5.205   5.033  17.948  0.00  0.00    +0.000 N 
ATOM      2  N   UNL     1       5.317   3.750  18.557  0.00  0.00    +0.000 N 
ATOM      3  C   UNL     1       4.057   3.208  18.670  0.00  0.00    +0.000 C 
ATOM      4  C   UNL     1       3.162   3.927  17.990  0.00  0.00    +0.000 C 
ATOM      5  C   UNL     1       1.716   3.639  17.894  0.00  0.00    +0.000 C 
ATOM      6  C   UNL     1       1.255   2.395  18.660  0.00  0.00    +0.000 C 
ATOM      7  C   UNL     1       2.268   1.605  19.502  0.00  0.00    +0.000 C 
ATOM      8  C   UNL     1       3.741   2.028  19.512  0.00  0.00    +0.000 C 
ATOM      9  C   UNL     1       3.819   5.161  17.409  0.00  0.00    +0.000 C 
ATOM     10  H   UNL     1       5.936   3.695  19.365  0.00  0.00    +0.000 HD
ENDROOT
BRANCH   9  11
ATOM     11  C   UNL     1       3.250   6.468  17.904  0.00  0.00    +0.000 A 
ATOM     12  C   UNL     1       3.181   7.682  17.239  0.00  0.00    +0.000 A 
ATOM     13  C   UNL     1       2.517   8.684  17.997  0.00  0.00    +0.000 A 
ATOM     14  C   UNL     1       2.123   8.210  19.233  0.00  0.00    +0.000 A 
ATOM     15  S   UNL     1       2.557   6.577  19.467  0.00  0.00    +0.000 S 
ENDBRANCH   9  11
BRANCH   1  16
ATOM     16  C   UNL     1       6.360   5.700  17.554  0.00  0.00    +0.000 C 
ATOM     17  S   UNL     1       7.547   6.188  18.641  0.00  0.00    +0.000 S 
BRANCH  16  18
ATOM     18  N   UNL     1       6.441   5.908  16.188  0.00  0.00    +0.000 N 
ATOM     19  H   UNL     1       6.415   6.879  15.897  0.00  0.00    +0.000 HD
BRANCH  18  20
ATOM     20  C   UNL     1       6.910   4.956  15.195  0.00  0.00    +0.000 C 
BRANCH  20  22
ATOM     21  C   UNL     1       6.217   3.713  13.087  0.00  0.00    +0.000 C 
ATOM     22  C   UNL     1       5.763   4.303  14.415  0.00  0.00    +0.000 C 
ENDBRANCH  20  22
ENDBRANCH  18  20
ENDBRANCH  16  18
ENDBRANCH   1  16
TORSDOF 5
ENDMDL
MODEL 5
REMARK VINA RESULT:      -6.8      1.694      1.925
REMARK  Name = 
REMARK  6 active torsions:
REMARK  status: ('A' for Active; 'I' for Inactive)
REMARK    1  A    between atoms: C_1  and  C_2
REMARK    2  A    between atoms: C_2  and  C_3
REMARK    3  A    between atoms: C_3  and  N_4
REMARK    4  A    between atoms: N_4  and  C_5
REMARK    5  A    between atoms: C_5  and  N_7
REMARK    6  A    between atoms: C_15  and  C_16
REMARK                            x       y       z     vdW  Elec       q    Type
REMARK                         _______ _______ _______ _____ _____    ______ ____
ROOT
ATOM      1  N   UNL     1       4.818   5.710  16.964  0.00  0.00    +0.000 N 
ATOM      2  N   UNL     1       4.344   7.029  16.714  0.00  0.00    +0.000 N 
ATOM      3  C   UNL     1       3.458   7.373  17.710  0.00  0.00    +0.000 C 
ATOM      4  C   UNL     1       3.483   6.481  18.702  0.00  0.00    +0.000 C 
ATOM      5  C   UNL     1       2.660   6.532  19.929  0.00  0.00    +0.000 C 
ATOM      6  C   UNL     1       1.714   7.732  20.020  0.00  0.00    +0.000 C 
ATOM      7  C   UNL     1       1.631   8.722  18.849  0.00  0.00    +0.000 C 
ATOM      8  C   UNL     1       2.543   8.537  17.632  0.00  0.00    +0.000 C 
ATOM      9  C   UNL     1       4.402   5.332  18.347  0.00  0.00    +0.000 C 
ATOM     10  H   UNL     1       4.081   7.231  15.750  0.00  0.00    +0.000 HD
ENDROOT
BRANCH   9  11
ATOM     11  C   UNL     1       3.727   3.985  18.275  0.00  0.00    +0.000 A 
ATOM     12  C   UNL     1       2.728   3.569  17.409  0.00  0.00    +0.000 A 
ATOM     13  C   UNL     1       2.378   2.204  17.592  0.00  0.00    +0.000 A 
ATOM     14  C   UNL     1       3.106   1.624  18.614  0.00  0.00    +0.000 A 
ATOM     15  S   UNL     1       4.189   2.724  19.339  0.00  0.00    +0.000 S 
ENDBRANCH   9  11
BRANCH   1  16
ATOM     16  C   UNL     1       5.868   5.209  16.202  0.00  0.00    +0.000 C 
ATOM     17  S   UNL     1       5.632   4.187  14.887  0.00  0.00    +0.000 S 
BRANCH  16  18
ATOM     18  N   UNL     1       7.113   5.643  16.620  0.00  0.00    +0.000 N 
ATOM     19  H   UNL     1       7.539   6.357  16.040  0.00  0.00    +0.000 HD
BRANCH  18  20
ATOM     20  C   UNL     1       7.692   5.464  17.941  0.00  0.00    +0.000 C 
BRANCH  20  22
ATOM     21  C   UNL     1       7.902   7.988  17.701  0.00  0.00    +0.000 C 
ATOM     22  C   UNL     1       7.981   6.796  18.645  0.00  0.00    +0.000 C 
ENDBRANCH  20  22
ENDBRANCH  18  20
ENDBRANCH  16  18
ENDBRANCH   1  16
TORSDOF 5
ENDMDL
MODEL 6
REMARK VINA RESULT:      -6.8      2.573      3.050
REMARK  Name = 
REMARK  6 active torsions:
REMARK  status: ('A' for Active; 'I' for Inactive)
REMARK    1  A    between atoms: C_1  and  C_2
REMARK    2  A    between atoms: C_2  and  C_3
REMARK    3  A    between atoms: C_3  and  N_4
REMARK    4  A    between atoms: N_4  and  C_5
REMARK    5  A    between atoms: C_5  and  N_7
REMARK    6  A    between atoms: C_15  and  C_16
REMARK                            x       y       z     vdW  Elec       q    Type
REMARK                         _______ _______ _______ _____ _____    ______ ____
ROOT
ATOM      1  N   UNL     1       4.892   5.827  17.247  0.00  0.00    +0.000 N 
ATOM      2  N   UNL     1       4.417   7.139  16.963  0.00  0.00    +0.000 N 
ATOM      3  C   UNL     1       3.445   7.462  17.882  0.00  0.00    +0.000 C 
ATOM      4  C   UNL     1       3.403   6.566  18.870  0.00  0.00    +0.000 C 
ATOM      5  C   UNL     1       2.480   6.596  20.023  0.00  0.00    +0.000 C 
ATOM      6  C   UNL     1       1.507   7.779  20.039  0.00  0.00    +0.000 C 
ATOM      7  C   UNL     1       1.505   8.773  18.868  0.00  0.00    +0.000 C 
ATOM      8  C   UNL     1       2.519   8.611  17.732  0.00  0.00    +0.000 C 
ATOM      9  C   UNL     1       4.369   5.435  18.589  0.00  0.00    +0.000 C 
ATOM     10  H   UNL     1       4.233   7.341  15.981  0.00  0.00    +0.000 HD
ENDROOT
BRANCH   9  11
ATOM     11  C   UNL     1       3.727   4.076  18.455  0.00  0.00    +0.000 A 
ATOM     12  C   UNL     1       2.774   3.662  17.540  0.00  0.00    +0.000 A 
ATOM     13  C   UNL     1       2.446   2.286  17.674  0.00  0.00    +0.000 A 
ATOM     14  C   UNL     1       3.144   1.696  18.711  0.00  0.00    +0.000 A 
ATOM     15  S   UNL     1       4.173   2.799  19.507  0.00  0.00    +0.000 S 
ENDBRANCH   9  11
BRANCH   1  16
ATOM     16  C   UNL     1       6.011   5.349  16.574  0.00  0.00    +0.000 C 
ATOM     17  S   UNL     1       7.342   4.695  17.368  0.00  0.00    +0.000 S 
BRANCH  16  18
ATOM     18  N   UNL     1       5.917   5.452  15.197  0.00  0.00    +0.000 N 
ATOM     19  H   UNL     1       6.518   6.150  14.774  0.00  0.00    +0.000 HD
BRANCH  18  20
ATOM     20  C   UNL     1       5.350   4.464  14.294  0.00  0.00    +0.000 C 
BRANCH  20  22
ATOM     21  C   UNL     1       5.787   3.199  12.130  0.00  0.00    +0.000 C 
ATOM     22  C   UNL     1       6.401   3.838  13.369  0.00  0.00    +0.000 C 
ENDBRANCH  20  22
ENDBRANCH  18  20
ENDBRANCH  16  18
ENDBRANCH   1  16
TORSDOF 5
ENDMDL
MODEL 7
REMARK VINA RESULT:      -6.8      2.000      2.425
REMARK  Name = 
REMARK  6 active torsions:
REMARK  status: ('A' for Active; 'I' for Inactive)
REMARK    1  A    between atoms: C_1  and  C_2
REMARK    2  A    between atoms: C_2  and  C_3
REMARK    3  A    between atoms: C_3  and  N_4
REMARK    4  A    between atoms: N_4  and  C_5
REMARK    5  A    between atoms: C_5  and  N_7
REMARK    6  A    between atoms: C_15  and  C_16
REMARK                            x       y       z     vdW  Elec       q    Type
REMARK                         _______ _______ _______ _____ _____    ______ ____
ROOT
ATOM      1  N   UNL     1       4.196   5.837  17.843  0.00  0.00    +0.000 N 
ATOM      2  N   UNL     1       3.952   7.154  17.358  0.00  0.00    +0.000 N 
ATOM      3  C   UNL     1       2.996   7.743  18.154  0.00  0.00    +0.000 C 
ATOM      4  C   UNL     1       2.758   7.008  19.242  0.00  0.00    +0.000 C 
ATOM      5  C   UNL     1       1.791   7.335  20.311  0.00  0.00    +0.000 C 
ATOM      6  C   UNL     1       1.020   8.642  20.103  0.00  0.00    +0.000 C 
ATOM      7  C   UNL     1       1.239   9.454  18.818  0.00  0.00    +0.000 C 
ATOM      8  C   UNL     1       2.274   8.986  17.790  0.00  0.00    +0.000 C 
ATOM      9  C   UNL     1       3.546   5.717  19.181  0.00  0.00    +0.000 C 
ATOM     10  H   UNL     1       3.855   7.244  16.348  0.00  0.00    +0.000 HD
ENDROOT
BRANCH   9  11
ATOM     11  C   UNL     1       2.703   4.465  19.174  0.00  0.00    +0.000 A 
ATOM     12  C   UNL     1       1.631   4.155  18.354  0.00  0.00    +0.000 A 
ATOM     13  C   UNL     1       1.118   2.851  18.593  0.00  0.00    +0.000 A 
ATOM     14  C   UNL     1       1.801   2.214  19.612  0.00  0.00    +0.000 A 
ATOM     15  S   UNL     1       3.039   3.187  20.266  0.00  0.00    +0.000 S 
ENDBRANCH   9  11
BRANCH   1  16
ATOM     16  C   UNL     1       5.259   5.108  17.321  0.00  0.00    +0.000 C 
ATOM     17  S   UNL     1       6.733   4.951  18.116  0.00  0.00    +0.000 S 
BRANCH  16  18
ATOM     18  N   UNL     1       4.983   4.518  16.100  0.00  0.00    +0.000 N 
ATOM     19  H   UNL     1       4.192   4.910  15.600  0.00  0.00    +0.000 HD
BRANCH  18  20
ATOM     20  C   UNL     1       5.881   3.684  15.320  0.00  0.00    +0.000 C 
BRANCH  20  22
ATOM     21  C   UNL     1       6.092   3.547  12.789  0.00  0.00    +0.000 C 
ATOM     22  C   UNL     1       6.365   4.373  14.038  0.00  0.00    +0.000 C 
ENDBRANCH  20  22
ENDBRANCH  18  20
ENDBRANCH  16  18
ENDBRANCH   1  16
TORSDOF 5
ENDMDL
MODEL 8
REMARK VINA RESULT:      -6.8      1.178      1.335
REMARK  Name = 
REMARK  6 active torsions:
REMARK  status: ('A' for Active; 'I' for Inactive)
REMARK    1  A    between atoms: C_1  and  C_2
REMARK    2  A    between atoms: C_2  and  C_3
REMARK    3  A    between atoms: C_3  and  N_4
REMARK    4  A    between atoms: N_4  and  C_5
REMARK    5  A    between atoms: C_5  and  N_7
REMARK    6  A    between atoms: C_15  and  C_16
REMARK                            x       y       z     vdW  Elec       q    Type
REMARK                         _______ _______ _______ _____ _____    ______ ____
ROOT
ATOM      1  N   UNL     1       3.688   6.011  18.281  0.00  0.00    +0.000 N 
ATOM      2  N   UNL     1       3.428   7.255  17.638  0.00  0.00    +0.000 N 
ATOM      3  C   UNL     1       2.520   7.958  18.397  0.00  0.00    +0.000 C 
ATOM      4  C   UNL     1       2.336   7.378  19.584  0.00  0.00    +0.000 C 
ATOM      5  C   UNL     1       1.430   7.859  20.648  0.00  0.00    +0.000 C 
ATOM      6  C   UNL     1       0.658   9.137  20.308  0.00  0.00    +0.000 C 
ATOM      7  C   UNL     1       0.814   9.768  18.916  0.00  0.00    +0.000 C 
ATOM      8  C   UNL     1       1.789   9.153  17.907  0.00  0.00    +0.000 C 
ATOM      9  C   UNL     1       3.110   6.080  19.655  0.00  0.00    +0.000 C 
ATOM     10  H   UNL     1       3.278   7.211  16.631  0.00  0.00    +0.000 HD
ENDROOT
BRANCH   9  11
ATOM     11  C   UNL     1       2.259   4.850  19.860  0.00  0.00    +0.000 A 
ATOM     12  C   UNL     1       1.412   4.231  18.956  0.00  0.00    +0.000 A 
ATOM     13  C   UNL     1       0.819   3.051  19.481  0.00  0.00    +0.000 A 
ATOM     14  C   UNL     1       1.213   2.820  20.785  0.00  0.00    +0.000 A 
ATOM     15  S   UNL     1       2.280   4.020  21.359  0.00  0.00    +0.000 S 
ENDBRANCH   9  11
BRANCH   1  16
ATOM     16  C   UNL     1       4.717   5.204  17.807  0.00  0.00    +0.000 C 
ATOM     17  S   UNL     1       5.094   3.714  18.490  0.00  0.00    +0.000 S 
BRANCH  16  18
ATOM     18  N   UNL     1       5.384   5.737  16.718  0.00  0.00    +0.000 N 
ATOM     19  H   UNL     1       4.797   6.212  16.042  0.00  0.00    +0.000 HD
BRANCH  18  20
ATOM     20  C   UNL     1       6.810   6.001  16.623  0.00  0.00    +0.000 C 
BRANCH  20  22
ATOM     21  C   UNL     1       7.824   8.114  17.611  0.00  0.00    +0.000 C 
ATOM     22  C   UNL     1       7.369   6.686  17.876  0.00  0.00    +0.000 C 
ENDBRANCH  20  22
ENDBRANCH  18  20
ENDBRANCH  16  18
ENDBRANCH   1  16
TORSDOF 5
ENDMDL
MODEL 9
REMARK VINA RESULT:      -6.7      1.235      1.506
REMARK  Name = 
REMARK  6 active torsions:
REMARK  status: ('A' for Active; 'I' for Inactive)
REMARK    1  A    between atoms: C_1  and  C_2
REMARK    2  A    between atoms: C_2  and  C_3
REMARK    3  A    between atoms: C_3  and  N_4
REMARK    4  A    between atoms: N_4  and  C_5
REMARK    5  A    between atoms: C_5  and  N_7
REMARK    6  A    between atoms: C_15  and  C_16
REMARK                            x       y       z     vdW  Elec       q    Type
REMARK                         _______ _______ _______ _____ _____    ______ ____
ROOT
ATOM      1  N   UNL     1       3.875   6.213  17.579  0.00  0.00    +0.000 N 
ATOM      2  N   UNL     1       3.491   7.544  17.248  0.00  0.00    +0.000 N 
ATOM      3  C   UNL     1       2.639   8.009  18.223  0.00  0.00    +0.000 C 
ATOM      4  C   UNL     1       2.610   7.181  19.269  0.00  0.00    +0.000 C 
ATOM      5  C   UNL     1       1.802   7.366  20.493  0.00  0.00    +0.000 C 
ATOM      6  C   UNL     1       0.941   8.632  20.512  0.00  0.00    +0.000 C 
ATOM      7  C   UNL     1       0.918   9.551  19.281  0.00  0.00    +0.000 C 
ATOM      8  C   UNL     1       1.806   9.228  18.075  0.00  0.00    +0.000 C 
ATOM      9  C   UNL     1       3.444   5.952  18.984  0.00  0.00    +0.000 C 
ATOM     10  H   UNL     1       3.236   7.702  16.274  0.00  0.00    +0.000 HD
ENDROOT
BRANCH   9  11
ATOM     11  C   UNL     1       2.677   4.652  18.998  0.00  0.00    +0.000 A 
ATOM     12  C   UNL     1       1.571   4.299  18.243  0.00  0.00    +0.000 A 
ATOM     13  C   UNL     1       1.152   2.962  18.479  0.00  0.00    +0.000 A 
ATOM     14  C   UNL     1       1.938   2.342  19.432  0.00  0.00    +0.000 A 
ATOM     15  S   UNL     1       3.160   3.371  20.029  0.00  0.00    +0.000 S 
ENDBRANCH   9  11
BRANCH   1  16
ATOM     16  C   UNL     1       4.882   5.594  16.846  0.00  0.00    +0.000 C 
ATOM     17  S   UNL     1       4.881   3.946  16.507  0.00  0.00    +0.000 S 
BRANCH  16  18
ATOM     18  N   UNL     1       5.868   6.463  16.414  0.00  0.00    +0.000 N 
ATOM     19  H   UNL     1       5.536   7.357  16.070  0.00  0.00    +0.000 HD
BRANCH  18  20
ATOM     20  C   UNL     1       7.285   6.386  16.729  0.00  0.00    +0.000 C 
BRANCH  20  22
ATOM     21  C   UNL     1       7.839   5.782  19.137  0.00  0.00    +0.000 C 
ATOM     22  C   UNL     1       7.607   6.905  18.136  0.00  0.00    +0.000 C 
ENDBRANCH  20  22
ENDBRANCH  18  20
ENDBRANCH  16  18
ENDBRANCH   1  16
TORSDOF 5
ENDMDL
