MODEL 1
REMARK VINA RESULT:      -8.1      0.000      0.000
REMARK  Name = 
REMARK  6 active torsions:
REMARK  status: ('A' for Active; 'I' for Inactive)
REMARK    1  A    between atoms: C_1  and  N_2
REMARK    2  A    between atoms: N_2  and  C_3
REMARK    3  A    between atoms: C_4  and  C_6
REMARK    4  A    between atoms: C_6  and  N_7
REMARK    5  A    between atoms: C_13  and  C_14
REMARK    6  A    between atoms: C_18  and  C_19
REMARK                            x       y       z     vdW  Elec       q    Type
REMARK                         _______ _______ _______ _____ _____    ______ ____
ROOT
ATOM      1  N   UNL     1       3.687   3.746  17.397  0.00  0.00    +0.000 N 
ATOM      2  C   UNL     1       4.796   3.417  16.652  0.00  0.00    +0.000 A 
ATOM      3  C   UNL     1       5.436   4.586  16.307  0.00  0.00    +0.000 A 
ATOM      4  C   UNL     1       4.693   5.654  16.859  0.00  0.00    +0.000 A 
ATOM      5  N   UNL     1       4.949   6.980  16.794  0.00  0.00    +0.000 NA
ATOM      6  C   UNL     1       4.023   7.761  17.398  0.00  0.00    +0.000 A 
ATOM      7  C   UNL     1       2.854   7.344  18.051  0.00  0.00    +0.000 A 
ATOM      8  C   UNL     1       2.639   5.958  18.118  0.00  0.00    +0.000 A 
ATOM      9  C   UNL     1       3.588   5.118  17.515  0.00  0.00    +0.000 A 
ENDROOT
BRANCH   7  10
ATOM     10  C   UNL     1       1.894   8.318  18.626  0.00  0.00    +0.000 A 
ATOM     11  C   UNL     1       1.242   9.268  17.816  0.00  0.00    +0.000 A 
ATOM     12  C   UNL     1       0.333  10.186  18.349  0.00  0.00    +0.000 A 
ATOM     13  C   UNL     1       0.043  10.173  19.710  0.00  0.00    +0.000 A 
ATOM     14  C   UNL     1       0.668   9.246  20.551  0.00  0.00    +0.000 A 
ATOM     15  C   UNL     1       1.587   8.332  20.000  0.00  0.00    +0.000 A 
BRANCH  14  16
ATOM     16  C   UNL     1       0.373   9.214  22.031  0.00  0.00    +0.000 C 
ATOM     17  F   UNL     1       0.061  10.432  22.555  0.00  0.00    +0.000 F 
ATOM     18  F   UNL     1      -0.674   8.398  22.334  0.00  0.00    +0.000 F 
ATOM     19  F   UNL     1       1.427   8.752  22.760  0.00  0.00    +0.000 F 
ENDBRANCH  14  16
ENDBRANCH   7  10
BRANCH   1  20
ATOM     20  C   UNL     1       2.811   2.765  18.029  0.00  0.00    +0.000 C 
BRANCH  20  24
ATOM     21  C   UNL     1       2.298   2.721  21.806  0.00  0.00    +0.000 C 
ATOM     22  N   UNL     1       2.069   2.948  20.391  0.00  0.00    +0.000 N 
ATOM     23  C   UNL     1       0.742   3.365  19.961  0.00  0.00    +0.000 C 
ATOM     24  C   UNL     1       3.089   2.580  19.512  0.00  0.00    +0.000 C 
ATOM     25  O   UNL     1       4.155   2.128  19.930  0.00  0.00    +0.000 OA
ENDBRANCH  20  24
ENDBRANCH   1  20
TORSDOF 4
ENDMDL
MODEL 2
REMARK VINA RESULT:      -8.0      5.069      7.824
REMARK  Name = 
REMARK  6 active torsions:
REMARK  status: ('A' for Active; 'I' for Inactive)
REMARK    1  A    between atoms: C_1  and  N_2
REMARK    2  A    between atoms: N_2  and  C_3
REMARK    3  A    between atoms: C_4  and  C_6
REMARK    4  A    between atoms: C_6  and  N_7
REMARK    5  A    between atoms: C_13  and  C_14
REMARK    6  A    between atoms: C_18  and  C_19
REMARK                            x       y       z     vdW  Elec       q    Type
REMARK                         _______ _______ _______ _____ _____    ______ ____
ROOT
ATOM      1  N   UNL     1       2.084   5.425  19.881  0.00  0.00    +0.000 N 
ATOM      2  C   UNL     1       1.062   4.694  20.439  0.00  0.00    +0.000 A 
ATOM      3  C   UNL     1       1.028   3.468  19.813  0.00  0.00    +0.000 A 
ATOM      4  C   UNL     1       2.060   3.457  18.847  0.00  0.00    +0.000 A 
ATOM      5  N   UNL     1       2.415   2.461  18.005  0.00  0.00    +0.000 NA
ATOM      6  C   UNL     1       3.431   2.771  17.166  0.00  0.00    +0.000 A 
ATOM      7  C   UNL     1       4.119   3.989  17.076  0.00  0.00    +0.000 A 
ATOM      8  C   UNL     1       3.736   4.988  17.986  0.00  0.00    +0.000 A 
ATOM      9  C   UNL     1       2.696   4.696  18.881  0.00  0.00    +0.000 A 
ENDROOT
BRANCH   7  10
ATOM     10  C   UNL     1       5.183   4.210  16.066  0.00  0.00    +0.000 A 
ATOM     11  C   UNL     1       6.386   4.859  16.401  0.00  0.00    +0.000 A 
ATOM     12  C   UNL     1       7.396   5.068  15.457  0.00  0.00    +0.000 A 
ATOM     13  C   UNL     1       7.232   4.622  14.150  0.00  0.00    +0.000 A 
ATOM     14  C   UNL     1       6.052   3.972  13.773  0.00  0.00    +0.000 A 
ATOM     15  C   UNL     1       5.041   3.776  14.735  0.00  0.00    +0.000 A 
BRANCH  14  16
ATOM     16  C   UNL     1       5.848   3.483  12.360  0.00  0.00    +0.000 C 
ATOM     17  F   UNL     1       5.953   2.132  12.226  0.00  0.00    +0.000 F 
ATOM     18  F   UNL     1       4.621   3.813  11.868  0.00  0.00    +0.000 F 
ATOM     19  F   UNL     1       6.751   4.016  11.490  0.00  0.00    +0.000 F 
ENDBRANCH  14  16
ENDBRANCH   7  10
BRANCH   1  20
ATOM     20  C   UNL     1       2.496   6.743  20.355  0.00  0.00    +0.000 C 
BRANCH  20  24
ATOM     21  C   UNL     1       0.639   9.968  19.531  0.00  0.00    +0.000 C 
ATOM     22  N   UNL     1       1.172   8.841  20.275  0.00  0.00    +0.000 N 
ATOM     23  C   UNL     1       1.091   8.866  21.727  0.00  0.00    +0.000 C 
ATOM     24  C   UNL     1       1.890   7.884  19.555  0.00  0.00    +0.000 C 
ATOM     25  O   UNL     1       2.019   7.974  18.333  0.00  0.00    +0.000 OA
ENDBRANCH  20  24
ENDBRANCH   1  20
TORSDOF 4
ENDMDL
MODEL 3
REMARK VINA RESULT:      -7.8      1.732      3.668
REMARK  Name = 
REMARK  6 active torsions:
REMARK  status: ('A' for Active; 'I' for Inactive)
REMARK    1  A    between atoms: C_1  and  N_2
REMARK    2  A    between atoms: N_2  and  C_3
REMARK    3  A    between atoms: C_4  and  C_6
REMARK    4  A    between atoms: C_6  and  N_7
REMARK    5  A    between atoms: C_13  and  C_14
REMARK    6  A    between atoms: C_18  and  C_19
REMARK                            x       y       z     vdW  Elec       q    Type
REMARK                         _______ _______ _______ _____ _____    ______ ____
ROOT
ATOM      1  N   UNL     1       4.346   3.633  18.740  0.00  0.00    +0.000 N 
ATOM      2  C   UNL     1       4.292   2.464  19.463  0.00  0.00    +0.000 A 
ATOM      3  C   UNL     1       3.345   2.620  20.450  0.00  0.00    +0.000 A 
ATOM      4  C   UNL     1       2.809   3.922  20.320  0.00  0.00    +0.000 A 
ATOM      5  N   UNL     1       1.842   4.512  21.057  0.00  0.00    +0.000 NA
ATOM      6  C   UNL     1       1.570   5.791  20.706  0.00  0.00    +0.000 A 
ATOM      7  C   UNL     1       2.185   6.546  19.696  0.00  0.00    +0.000 A 
ATOM      8  C   UNL     1       3.166   5.887  18.938  0.00  0.00    +0.000 A 
ATOM      9  C   UNL     1       3.462   4.554  19.264  0.00  0.00    +0.000 A 
ENDROOT
BRANCH   7  10
ATOM     10  C   UNL     1       1.824   7.963  19.455  0.00  0.00    +0.000 A 
ATOM     11  C   UNL     1       2.130   8.599  18.236  0.00  0.00    +0.000 A 
ATOM     12  C   UNL     1       1.789   9.934  17.999  0.00  0.00    +0.000 A 
ATOM     13  C   UNL     1       1.123  10.669  18.974  0.00  0.00    +0.000 A 
ATOM     14  C   UNL     1       0.799  10.077  20.200  0.00  0.00    +0.000 A 
ATOM     15  C   UNL     1       1.156   8.733  20.426  0.00  0.00    +0.000 A 
BRANCH  14  16
ATOM     16  C   UNL     1       0.080  10.854  21.275  0.00  0.00    +0.000 C 
ATOM     17  F   UNL     1       0.635  12.069  21.538  0.00  0.00    +0.000 F 
ATOM     18  F   UNL     1      -1.221  11.100  20.955  0.00  0.00    +0.000 F 
ATOM     19  F   UNL     1       0.051  10.191  22.464  0.00  0.00    +0.000 F 
ENDBRANCH  14  16
ENDBRANCH   7  10
BRANCH   1  20
ATOM     20  C   UNL     1       5.165   3.814  17.545  0.00  0.00    +0.000 C 
BRANCH  20  24
ATOM     21  C   UNL     1       7.441   6.856  17.233  0.00  0.00    +0.000 C 
ATOM     22  N   UNL     1       6.355   5.921  16.995  0.00  0.00    +0.000 N 
ATOM     23  C   UNL     1       5.263   6.333  16.126  0.00  0.00    +0.000 C 
ATOM     24  C   UNL     1       6.340   4.753  17.759  0.00  0.00    +0.000 C 
ATOM     25  O   UNL     1       7.241   4.508  18.563  0.00  0.00    +0.000 OA
ENDBRANCH  20  24
ENDBRANCH   1  20
TORSDOF 4
ENDMDL
MODEL 4
REMARK VINA RESULT:      -7.7      1.617      2.216
REMARK  Name = 
REMARK  6 active torsions:
REMARK  status: ('A' for Active; 'I' for Inactive)
REMARK    1  A    between atoms: C_1  and  N_2
REMARK    2  A    between atoms: N_2  and  C_3
REMARK    3  A    between atoms: C_4  and  C_6
REMARK    4  A    between atoms: C_6  and  N_7
REMARK    5  A    between atoms: C_13  and  C_14
REMARK    6  A    between atoms: C_18  and  C_19
REMARK                            x       y       z     vdW  Elec       q    Type
REMARK                         _______ _______ _______ _____ _____    ______ ____
ROOT
ATOM      1  N   UNL     1       4.175   3.596  17.144  0.00  0.00    +0.000 N 
ATOM      2  C   UNL     1       5.140   3.466  16.172  0.00  0.00    +0.000 A 
ATOM      3  C   UNL     1       5.552   4.729  15.813  0.00  0.00    +0.000 A 
ATOM      4  C   UNL     1       4.816   5.651  16.591  0.00  0.00    +0.000 A 
ATOM      5  N   UNL     1       4.894   7.001  16.595  0.00  0.00    +0.000 NA
ATOM      6  C   UNL     1       4.025   7.611  17.434  0.00  0.00    +0.000 A 
ATOM      7  C   UNL     1       3.071   7.002  18.262  0.00  0.00    +0.000 A 
ATOM      8  C   UNL     1       3.041   5.598  18.247  0.00  0.00    +0.000 A 
ATOM      9  C   UNL     1       3.940   4.932  17.399  0.00  0.00    +0.000 A 
ENDROOT
BRANCH   7  10
ATOM     10  C   UNL     1       2.140   7.800  19.096  0.00  0.00    +0.000 A 
ATOM     11  C   UNL     1       1.856   7.438  20.427  0.00  0.00    +0.000 A 
ATOM     12  C   UNL     1       0.983   8.187  21.221  0.00  0.00    +0.000 A 
ATOM     13  C   UNL     1       0.376   9.328  20.707  0.00  0.00    +0.000 A 
ATOM     14  C   UNL     1       0.629   9.724  19.389  0.00  0.00    +0.000 A 
ATOM     15  C   UNL     1       1.506   8.954  18.599  0.00  0.00    +0.000 A 
BRANCH  14  16
ATOM     16  C   UNL     1      -0.021  10.955  18.807  0.00  0.00    +0.000 C 
ATOM     17  F   UNL     1      -0.806  11.631  19.690  0.00  0.00    +0.000 F 
ATOM     18  F   UNL     1       0.892  11.858  18.352  0.00  0.00    +0.000 F 
ATOM     19  F   UNL     1      -0.819  10.667  17.742  0.00  0.00    +0.000 F 
ENDBRANCH  14  16
ENDBRANCH   7  10
BRANCH   1  20
ATOM     20  C   UNL     1       3.569   2.469  17.846  0.00  0.00    +0.000 C 
BRANCH  20  24
ATOM     21  C   UNL     1       2.621   2.698  21.530  0.00  0.00    +0.000 C 
ATOM     22  N   UNL     1       2.513   2.668  20.083  0.00  0.00    +0.000 N 
ATOM     23  C   UNL     1       1.189   2.563  19.487  0.00  0.00    +0.000 C 
ATOM     24  C   UNL     1       3.701   2.562  19.357  0.00  0.00    +0.000 C 
ATOM     25  O   UNL     1       4.793   2.546  19.925  0.00  0.00    +0.000 OA
ENDBRANCH  20  24
ENDBRANCH   1  20
TORSDOF 4
ENDMDL
MODEL 5
REMARK VINA RESULT:      -7.6      0.869      1.095
REMARK  Name = 
REMARK  6 active torsions:
REMARK  status: ('A' for Active; 'I' for Inactive)
REMARK    1  A    between atoms: C_1  and  N_2
REMARK    2  A    between atoms: N_2  and  C_3
REMARK    3  A    between atoms: C_4  and  C_6
REMARK    4  A    between atoms: C_6  and  N_7
REMARK    5  A    between atoms: C_13  and  C_14
REMARK    6  A    between atoms: C_18  and  C_19
REMARK                            x       y       z     vdW  Elec       q    Type
REMARK                         _______ _______ _______ _____ _____    ______ ____
ROOT
ATOM      1  N   UNL     1       3.393   3.748  17.386  0.00  0.00    +0.000 N 
ATOM      2  C   UNL     1       4.554   3.384  16.744  0.00  0.00    +0.000 A 
ATOM      3  C   UNL     1       5.309   4.520  16.559  0.00  0.00    +0.000 A 
ATOM      4  C   UNL     1       4.586   5.604  17.107  0.00  0.00    +0.000 A 
ATOM      5  N   UNL     1       4.939   6.907  17.170  0.00  0.00    +0.000 NA
ATOM      6  C   UNL     1       4.007   7.715  17.728  0.00  0.00    +0.000 A 
ATOM      7  C   UNL     1       2.745   7.348  18.216  0.00  0.00    +0.000 A 
ATOM      8  C   UNL     1       2.428   5.982  18.155  0.00  0.00    +0.000 A 
ATOM      9  C   UNL     1       3.378   5.112  17.596  0.00  0.00    +0.000 A 
ENDROOT
BRANCH   7  10
ATOM     10  C   UNL     1       1.797   8.353  18.755  0.00  0.00    +0.000 A 
ATOM     11  C   UNL     1       1.196   9.314  17.920  0.00  0.00    +0.000 A 
ATOM     12  C   UNL     1       0.298  10.262  18.419  0.00  0.00    +0.000 A 
ATOM     13  C   UNL     1      -0.032  10.268  19.771  0.00  0.00    +0.000 A 
ATOM     14  C   UNL     1       0.542   9.331  20.637  0.00  0.00    +0.000 A 
ATOM     15  C   UNL     1       1.451   8.387  20.119  0.00  0.00    +0.000 A 
BRANCH  14  16
ATOM     16  C   UNL     1       0.203   9.319  22.107  0.00  0.00    +0.000 C 
ATOM     17  F   UNL     1      -0.183  10.532  22.591  0.00  0.00    +0.000 F 
ATOM     18  F   UNL     1      -0.813   8.460  22.399  0.00  0.00    +0.000 F 
ATOM     19  F   UNL     1       1.254   8.927  22.879  0.00  0.00    +0.000 F 
ENDBRANCH  14  16
ENDBRANCH   7  10
BRANCH   1  20
ATOM     20  C   UNL     1       2.384   2.799  17.844  0.00  0.00    +0.000 C 
BRANCH  20  24
ATOM     21  C   UNL     1       2.421   3.024  21.649  0.00  0.00    +0.000 C 
ATOM     22  N   UNL     1       2.825   2.731  20.286  0.00  0.00    +0.000 N 
ATOM     23  C   UNL     1       4.194   2.299  20.045  0.00  0.00    +0.000 C 
ATOM     24  C   UNL     1       1.923   3.053  19.270  0.00  0.00    +0.000 C 
ATOM     25  O   UNL     1       0.814   3.520  19.530  0.00  0.00    +0.000 OA
ENDBRANCH  20  24
ENDBRANCH   1  20
TORSDOF 4
ENDMDL
MODEL 6
REMARK VINA RESULT:      -7.6      1.549      3.667
REMARK  Name = 
REMARK  6 active torsions:
REMARK  status: ('A' for Active; 'I' for Inactive)
REMARK    1  A    between atoms: C_1  and  N_2
REMARK    2  A    between atoms: N_2  and  C_3
REMARK    3  A    between atoms: C_4  and  C_6
REMARK    4  A    between atoms: C_6  and  N_7
REMARK    5  A    between atoms: C_13  and  C_14
REMARK    6  A    between atoms: C_18  and  C_19
REMARK                            x       y       z     vdW  Elec       q    Type
REMARK                         _______ _______ _______ _____ _____    ______ ____
ROOT
ATOM      1  N   UNL     1       4.218   3.495  18.217  0.00  0.00    +0.000 N 
ATOM      2  C   UNL     1       4.211   2.182  18.629  0.00  0.00    +0.000 A 
ATOM      3  C   UNL     1       3.297   2.065  19.652  0.00  0.00    +0.000 A 
ATOM      4  C   UNL     1       2.733   3.343  19.864  0.00  0.00    +0.000 A 
ATOM      5  N   UNL     1       1.782   3.707  20.754  0.00  0.00    +0.000 NA
ATOM      6  C   UNL     1       1.475   5.026  20.739  0.00  0.00    +0.000 A 
ATOM      7  C   UNL     1       2.039   6.022  19.930  0.00  0.00    +0.000 A 
ATOM      8  C   UNL     1       3.004   5.597  19.003  0.00  0.00    +0.000 A 
ATOM      9  C   UNL     1       3.336   4.233  18.979  0.00  0.00    +0.000 A 
ENDROOT
BRANCH   7  10
ATOM     10  C   UNL     1       1.644   7.446  20.058  0.00  0.00    +0.000 A 
ATOM     11  C   UNL     1       1.829   8.355  18.999  0.00  0.00    +0.000 A 
ATOM     12  C   UNL     1       1.456   9.697  19.110  0.00  0.00    +0.000 A 
ATOM     13  C   UNL     1       0.877  10.166  20.285  0.00  0.00    +0.000 A 
ATOM     14  C   UNL     1       0.674   9.298  21.363  0.00  0.00    +0.000 A 
ATOM     15  C   UNL     1       1.063   7.949  21.237  0.00  0.00    +0.000 A 
BRANCH  14  16
ATOM     16  C   UNL     1       0.052   9.783  22.649  0.00  0.00    +0.000 C 
ATOM     17  F   UNL     1      -1.155   9.216  22.923  0.00  0.00    +0.000 F 
ATOM     18  F   UNL     1       0.838   9.531  23.733  0.00  0.00    +0.000 F 
ATOM     19  F   UNL     1      -0.159  11.129  22.649  0.00  0.00    +0.000 F 
ENDBRANCH  14  16
ENDBRANCH   7  10
BRANCH   1  20
ATOM     20  C   UNL     1       4.989   3.987  17.080  0.00  0.00    +0.000 C 
BRANCH  20  24
ATOM     21  C   UNL     1       7.333   6.973  17.426  0.00  0.00    +0.000 C 
ATOM     22  N   UNL     1       6.226   6.137  16.997  0.00  0.00    +0.000 N 
ATOM     23  C   UNL     1       5.142   6.752  16.245  0.00  0.00    +0.000 C 
ATOM     24  C   UNL     1       6.186   4.830  17.487  0.00  0.00    +0.000 C 
ATOM     25  O   UNL     1       7.082   4.397  18.212  0.00  0.00    +0.000 OA
ENDBRANCH  20  24
ENDBRANCH   1  20
TORSDOF 4
ENDMDL
MODEL 7
REMARK VINA RESULT:      -7.6      5.447      7.779
REMARK  Name = 
REMARK  6 active torsions:
REMARK  status: ('A' for Active; 'I' for Inactive)
REMARK    1  A    between atoms: C_1  and  N_2
REMARK    2  A    between atoms: N_2  and  C_3
REMARK    3  A    between atoms: C_4  and  C_6
REMARK    4  A    between atoms: C_6  and  N_7
REMARK    5  A    between atoms: C_13  and  C_14
REMARK    6  A    between atoms: C_18  and  C_19
REMARK                            x       y       z     vdW  Elec       q    Type
REMARK                         _______ _______ _______ _____ _____    ______ ____
ROOT
ATOM      1  N   UNL     1       4.098   5.212  18.453  0.00  0.00    +0.000 N 
ATOM      2  C   UNL     1       4.653   5.317  19.708  0.00  0.00    +0.000 A 
ATOM      3  C   UNL     1       6.021   5.237  19.573  0.00  0.00    +0.000 A 
ATOM      4  C   UNL     1       6.302   5.081  18.196  0.00  0.00    +0.000 A 
ATOM      5  N   UNL     1       7.506   4.976  17.589  0.00  0.00    +0.000 NA
ATOM      6  C   UNL     1       7.444   4.798  16.249  0.00  0.00    +0.000 A 
ATOM      7  C   UNL     1       6.292   4.699  15.455  0.00  0.00    +0.000 A 
ATOM      8  C   UNL     1       5.065   4.838  16.122  0.00  0.00    +0.000 A 
ATOM      9  C   UNL     1       5.091   5.040  17.511  0.00  0.00    +0.000 A 
ENDROOT
BRANCH   7  10
ATOM     10  C   UNL     1       6.372   4.448  13.996  0.00  0.00    +0.000 A 
ATOM     11  C   UNL     1       7.539   4.741  13.265  0.00  0.00    +0.000 A 
ATOM     12  C   UNL     1       7.623   4.504  11.890  0.00  0.00    +0.000 A 
ATOM     13  C   UNL     1       6.542   3.956  11.208  0.00  0.00    +0.000 A 
ATOM     14  C   UNL     1       5.362   3.649  11.894  0.00  0.00    +0.000 A 
ATOM     15  C   UNL     1       5.290   3.902  13.279  0.00  0.00    +0.000 A 
BRANCH  14  16
ATOM     16  C   UNL     1       4.174   3.059  11.176  0.00  0.00    +0.000 C 
ATOM     17  F   UNL     1       3.086   2.876  11.974  0.00  0.00    +0.000 F 
ATOM     18  F   UNL     1       3.751   3.838  10.142  0.00  0.00    +0.000 F 
ATOM     19  F   UNL     1       4.448   1.840  10.634  0.00  0.00    +0.000 F 
ENDBRANCH  14  16
ENDBRANCH   7  10
BRANCH   1  20
ATOM     20  C   UNL     1       2.671   5.354  18.180  0.00  0.00    +0.000 C 
BRANCH  20  24
ATOM     21  C   UNL     1       0.569   2.280  18.994  0.00  0.00    +0.000 C 
ATOM     22  N   UNL     1       1.307   3.522  19.149  0.00  0.00    +0.000 N 
ATOM     23  C   UNL     1       1.176   4.255  20.399  0.00  0.00    +0.000 C 
ATOM     24  C   UNL     1       1.956   4.023  18.020  0.00  0.00    +0.000 C 
ATOM     25  O   UNL     1       1.941   3.408  16.953  0.00  0.00    +0.000 OA
ENDBRANCH  20  24
ENDBRANCH   1  20
TORSDOF 4
ENDMDL
MODEL 8
REMARK VINA RESULT:      -7.5      4.831      8.062
REMARK  Name = 
REMARK  6 active torsions:
REMARK  status: ('A' for Active; 'I' for Inactive)
REMARK    1  A    between atoms: C_1  and  N_2
REMARK    2  A    between atoms: N_2  and  C_3
REMARK    3  A    between atoms: C_4  and  C_6
REMARK    4  A    between atoms: C_6  and  N_7
REMARK    5  A    between atoms: C_13  and  C_14
REMARK    6  A    between atoms: C_18  and  C_19
REMARK                            x       y       z     vdW  Elec       q    Type
REMARK                         _______ _______ _______ _____ _____    ______ ____
ROOT
ATOM      1  N   UNL     1      -1.109  11.776  20.392  0.00  0.00    +0.000 N 
ATOM      2  C   UNL     1      -1.475  12.529  21.483  0.00  0.00    +0.000 A 
ATOM      3  C   UNL     1      -0.897  11.968  22.599  0.00  0.00    +0.000 A 
ATOM      4  C   UNL     1      -0.157  10.841  22.170  0.00  0.00    +0.000 A 
ATOM      5  N   UNL     1       0.588   9.991  22.911  0.00  0.00    +0.000 NA
ATOM      6  C   UNL     1       1.150   8.980  22.209  0.00  0.00    +0.000 A 
ATOM      7  C   UNL     1       1.027   8.725  20.836  0.00  0.00    +0.000 A 
ATOM      8  C   UNL     1       0.265   9.646  20.099  0.00  0.00    +0.000 A 
ATOM      9  C   UNL     1      -0.321  10.717  20.793  0.00  0.00    +0.000 A 
ENDROOT
BRANCH   7  10
ATOM     10  C   UNL     1       1.657   7.541  20.204  0.00  0.00    +0.000 A 
ATOM     11  C   UNL     1       2.408   7.657  19.018  0.00  0.00    +0.000 A 
ATOM     12  C   UNL     1       3.009   6.547  18.418  0.00  0.00    +0.000 A 
ATOM     13  C   UNL     1       2.882   5.287  18.995  0.00  0.00    +0.000 A 
ATOM     14  C   UNL     1       2.145   5.126  20.173  0.00  0.00    +0.000 A 
ATOM     15  C   UNL     1       1.539   6.254  20.761  0.00  0.00    +0.000 A 
BRANCH  14  16
ATOM     16  C   UNL     1       1.990   3.769  20.815  0.00  0.00    +0.000 C 
ATOM     17  F   UNL     1       2.745   2.797  20.234  0.00  0.00    +0.000 F 
ATOM     18  F   UNL     1       2.338   3.776  22.132  0.00  0.00    +0.000 F 
ATOM     19  F   UNL     1       0.705   3.319  20.774  0.00  0.00    +0.000 F 
ENDBRANCH  14  16
ENDBRANCH   7  10
BRANCH   1  20
ATOM     20  C   UNL     1      -1.448  12.120  19.015  0.00  0.00    +0.000 C 
BRANCH  20  24
ATOM     21  C   UNL     1      -4.643  11.155  17.173  0.00  0.00    +0.000 C 
ATOM     22  N   UNL     1      -3.238  11.380  17.463  0.00  0.00    +0.000 N 
ATOM     23  C   UNL     1      -2.245  10.841  16.546  0.00  0.00    +0.000 C 
ATOM     24  C   UNL     1      -2.924  11.948  18.699  0.00  0.00    +0.000 C 
ATOM     25  O   UNL     1      -3.810  12.286  19.485  0.00  0.00    +0.000 OA
ENDBRANCH  20  24
ENDBRANCH   1  20
TORSDOF 4
ENDMDL
MODEL 9
REMARK VINA RESULT:      -7.4      5.617      8.024
REMARK  Name = 
REMARK  6 active torsions:
REMARK  status: ('A' for Active; 'I' for Inactive)
REMARK    1  A    between atoms: C_1  and  N_2
REMARK    2  A    between atoms: N_2  and  C_3
REMARK    3  A    between atoms: C_4  and  C_6
REMARK    4  A    between atoms: C_6  and  N_7
REMARK    5  A    between atoms: C_13  and  C_14
REMARK    6  A    between atoms: C_18  and  C_19
REMARK                            x       y       z     vdW  Elec       q    Type
REMARK                         _______ _______ _______ _____ _____    ______ ____
ROOT
ATOM      1  N   UNL     1       4.783   4.701  17.975  0.00  0.00    +0.000 N 
ATOM      2  C   UNL     1       5.510   5.430  18.886  0.00  0.00    +0.000 A 
ATOM      3  C   UNL     1       6.635   5.903  18.248  0.00  0.00    +0.000 A 
ATOM      4  C   UNL     1       6.586   5.448  16.911  0.00  0.00    +0.000 A 
ATOM      5  N   UNL     1       7.465   5.677  15.910  0.00  0.00    +0.000 NA
ATOM      6  C   UNL     1       7.157   5.068  14.741  0.00  0.00    +0.000 A 
ATOM      7  C   UNL     1       6.059   4.237  14.478  0.00  0.00    +0.000 A 
ATOM      8  C   UNL     1       5.157   4.045  15.537  0.00  0.00    +0.000 A 
ATOM      9  C   UNL     1       5.437   4.675  16.760  0.00  0.00    +0.000 A 
ENDROOT
BRANCH   7  10
ATOM     10  C   UNL     1       5.871   3.588  13.158  0.00  0.00    +0.000 A 
ATOM     11  C   UNL     1       6.847   2.727  12.621  0.00  0.00    +0.000 A 
ATOM     12  C   UNL     1       6.677   2.108  11.379  0.00  0.00    +0.000 A 
ATOM     13  C   UNL     1       5.517   2.327  10.642  0.00  0.00    +0.000 A 
ATOM     14  C   UNL     1       4.521   3.175  11.138  0.00  0.00    +0.000 A 
ATOM     15  C   UNL     1       4.712   3.797  12.388  0.00  0.00    +0.000 A 
BRANCH  14  16
ATOM     16  C   UNL     1       3.257   3.433  10.357  0.00  0.00    +0.000 C 
ATOM     17  F   UNL     1       3.330   3.048   9.052  0.00  0.00    +0.000 F 
ATOM     18  F   UNL     1       2.182   2.779  10.879  0.00  0.00    +0.000 F 
ATOM     19  F   UNL     1       2.916   4.751  10.339  0.00  0.00    +0.000 F 
ENDBRANCH  14  16
ENDBRANCH   7  10
BRANCH   1  20
ATOM     20  C   UNL     1       3.472   4.123  18.255  0.00  0.00    +0.000 C 
BRANCH  20  24
ATOM     21  C   UNL     1       2.436   2.688  21.631  0.00  0.00    +0.000 C 
ATOM     22  N   UNL     1       2.502   3.555  20.468  0.00  0.00    +0.000 N 
ATOM     23  C   UNL     1       1.468   4.564  20.294  0.00  0.00    +0.000 C 
ATOM     24  C   UNL     1       3.455   3.246  19.496  0.00  0.00    +0.000 C 
ATOM     25  O   UNL     1       4.237   2.307  19.649  0.00  0.00    +0.000 OA
ENDBRANCH  20  24
ENDBRANCH   1  20
TORSDOF 4
ENDMDL
