MODEL 1
REMARK VINA RESULT:      -7.6      0.000      0.000
REMARK  Name = 
REMARK  7 active torsions:
REMARK  status: ('A' for Active; 'I' for Inactive)
REMARK    1  A    between atoms: N_6  and  C_7
REMARK    2  A    between atoms: C_7  and  C_8
REMARK    3  A    between atoms: C_8  and  C_9
REMARK    4  A    between atoms: C_9  and  O_10
REMARK    5  A    between atoms: C_12  and  C_13
REMARK    6  A    between atoms: C_13  and  O_14
REMARK    7  A    between atoms: C_19  and  C_20
REMARK                            x       y       z     vdW  Elec       q    Type
REMARK                         _______ _______ _______ _____ _____    ______ ____
ROOT
ATOM      1  O   UNL     1       1.700   3.973  21.574  0.00  0.00    +0.000 OA
ATOM      2  C   UNL     1       2.066   4.570  20.567  0.00  0.00    +0.000 A 
ATOM      3  C   UNL     1       2.662   3.945  19.406  0.00  0.00    +0.000 A 
ATOM      4  N   UNL     1       2.770   2.606  19.163  0.00  0.00    +0.000 NA
ATOM      5  C   UNL     1       3.347   2.540  17.990  0.00  0.00    +0.000 A 
ATOM      6  N   UNL     1       3.665   3.780  17.478  0.00  0.00    +0.000 N 
ATOM      7  C   UNL     1       3.148   4.723  18.360  0.00  0.00    +0.000 A 
ATOM      8  N   UNL     1       3.084   6.097  18.254  0.00  0.00    +0.000 NA
ATOM      9  C   UNL     1       2.452   6.649  19.263  0.00  0.00    +0.000 A 
ATOM     10  N   UNL     1       2.080   7.965  19.527  0.00  0.00    +0.000 N 
ATOM     11  C   UNL     1       1.339   8.040  20.715  0.00  0.00    +0.000 A 
ATOM     12  C   UNL     1       1.309   6.795  21.228  0.00  0.00    +0.000 A 
ATOM     13  N   UNL     1       1.963   5.932  20.372  0.00  0.00    +0.000 N 
ATOM     14  H   UNL     1       2.258   8.771  18.946  0.00  0.00    +0.000 HD
ENDROOT
BRANCH  11  15
ATOM     15  C   UNL     1       0.613   9.099  21.348  0.00  0.00    +0.000 A 
ATOM     16  C   UNL     1       0.163   9.185  22.665  0.00  0.00    +0.000 A 
ATOM     17  C   UNL     1      -0.641  10.330  22.934  0.00  0.00    +0.000 A 
ATOM     18  C   UNL     1      -0.782  11.112  21.817  0.00  0.00    +0.000 A 
ATOM     19  S   UNL     1       0.070  10.479  20.470  0.00  0.00    +0.000 S 
ENDBRANCH  11  15
BRANCH   6  20
ATOM     20  C   UNL     1       4.624   3.927  16.380  0.00  0.00    +0.000 C 
BRANCH  20  21
ATOM     21  C   UNL     1       5.859   4.812  16.671  0.00  0.00    +0.000 C 
ATOM     22  C   UNL     1       6.571   5.390  15.451  0.00  0.00    +0.000 C 
ATOM     23  C   UNL     1       5.823   6.331  16.351  0.00  0.00    +0.000 C 
BRANCH  21  24
ATOM     24  C   UNL     1       6.774   4.266  17.744  0.00  0.00    +0.000 C 
BRANCH  24  25
ATOM     25  O   UNL     1       8.088   4.152  17.217  0.00  0.00    +0.000 OA
ATOM     26  H   UNL     1       8.364   5.035  16.923  0.00  0.00    +0.000 HD
ENDBRANCH  24  25
ENDBRANCH  21  24
BRANCH  23  27
ATOM     27  C   UNL     1       6.581   7.402  17.080  0.00  0.00    +0.000 C 
BRANCH  27  28
ATOM     28  O   UNL     1       7.947   7.349  16.689  0.00  0.00    +0.000 OA
ATOM     29  H   UNL     1       8.281   6.467  16.927  0.00  0.00    +0.000 HD
ENDBRANCH  27  28
ENDBRANCH  23  27
ENDBRANCH  20  21
ENDBRANCH   6  20
TORSDOF 7
ENDMDL
MODEL 2
REMARK VINA RESULT:      -7.5      2.298      4.243
REMARK  Name = 
REMARK  7 active torsions:
REMARK  status: ('A' for Active; 'I' for Inactive)
REMARK    1  A    between atoms: N_6  and  C_7
REMARK    2  A    between atoms: C_7  and  C_8
REMARK    3  A    between atoms: C_8  and  C_9
REMARK    4  A    between atoms: C_9  and  O_10
REMARK    5  A    between atoms: C_12  and  C_13
REMARK    6  A    between atoms: C_13  and  O_14
REMARK    7  A    between atoms: C_19  and  C_20
REMARK                            x       y       z     vdW  Elec       q    Type
REMARK                         _______ _______ _______ _____ _____    ______ ____
ROOT
ATOM      1  O   UNL     1       2.411   9.180  17.043  0.00  0.00    +0.000 OA
ATOM      2  C   UNL     1       2.601   8.324  17.902  0.00  0.00    +0.000 A 
ATOM      3  C   UNL     1       3.508   7.206  17.767  0.00  0.00    +0.000 A 
ATOM      4  N   UNL     1       4.407   6.998  16.762  0.00  0.00    +0.000 NA
ATOM      5  C   UNL     1       5.006   5.882  17.093  0.00  0.00    +0.000 A 
ATOM      6  N   UNL     1       4.503   5.327  18.250  0.00  0.00    +0.000 N 
ATOM      7  C   UNL     1       3.569   6.227  18.754  0.00  0.00    +0.000 A 
ATOM      8  N   UNL     1       2.872   6.210  19.945  0.00  0.00    +0.000 NA
ATOM      9  C   UNL     1       2.127   7.278  20.105  0.00  0.00    +0.000 A 
ATOM     10  N   UNL     1       1.341   7.720  21.167  0.00  0.00    +0.000 N 
ATOM     11  C   UNL     1       0.797   8.982  20.887  0.00  0.00    +0.000 A 
ATOM     12  C   UNL     1       1.179   9.295  19.633  0.00  0.00    +0.000 A 
ATOM     13  N   UNL     1       1.989   8.293  19.139  0.00  0.00    +0.000 N 
ATOM     14  H   UNL     1       1.198   7.251  22.048  0.00  0.00    +0.000 HD
ENDROOT
BRANCH  11  15
ATOM     15  C   UNL     1       0.059   9.924  21.672  0.00  0.00    +0.000 A 
ATOM     16  C   UNL     1      -0.578   9.731  22.898  0.00  0.00    +0.000 A 
ATOM     17  C   UNL     1      -1.332  10.853  23.348  0.00  0.00    +0.000 A 
ATOM     18  C   UNL     1      -1.249  11.895  22.460  0.00  0.00    +0.000 A 
ATOM     19  S   UNL     1      -0.249  11.526  21.117  0.00  0.00    +0.000 S 
ENDBRANCH  11  15
BRANCH   6  20
ATOM     20  C   UNL     1       4.761   3.927  18.598  0.00  0.00    +0.000 C 
BRANCH  20  21
ATOM     21  C   UNL     1       3.515   3.058  18.888  0.00  0.00    +0.000 C 
ATOM     22  C   UNL     1       3.786   1.661  19.439  0.00  0.00    +0.000 C 
ATOM     23  C   UNL     1       3.154   2.675  20.349  0.00  0.00    +0.000 C 
BRANCH  21  24
ATOM     24  C   UNL     1       2.450   3.124  17.817  0.00  0.00    +0.000 C 
BRANCH  24  25
ATOM     25  O   UNL     1       2.193   1.812  17.337  0.00  0.00    +0.000 OA
ATOM     26  H   UNL     1       2.905   1.236  17.662  0.00  0.00    +0.000 HD
ENDBRANCH  24  25
ENDBRANCH  21  24
BRANCH  23  27
ATOM     27  C   UNL     1       1.772   2.421  20.876  0.00  0.00    +0.000 C 
BRANCH  27  28
ATOM     28  O   UNL     1       1.721   2.802  22.245  0.00  0.00    +0.000 OA
ATOM     29  H   UNL     1       2.222   2.137  22.748  0.00  0.00    +0.000 HD
ENDBRANCH  27  28
ENDBRANCH  23  27
ENDBRANCH  20  21
ENDBRANCH   6  20
TORSDOF 7
ENDMDL
MODEL 3
REMARK VINA RESULT:      -7.3      1.283      1.496
REMARK  Name = 
REMARK  7 active torsions:
REMARK  status: ('A' for Active; 'I' for Inactive)
REMARK    1  A    between atoms: N_6  and  C_7
REMARK    2  A    between atoms: C_7  and  C_8
REMARK    3  A    between atoms: C_8  and  C_9
REMARK    4  A    between atoms: C_9  and  O_10
REMARK    5  A    between atoms: C_12  and  C_13
REMARK    6  A    between atoms: C_13  and  O_14
REMARK    7  A    between atoms: C_19  and  C_20
REMARK                            x       y       z     vdW  Elec       q    Type
REMARK                         _______ _______ _______ _____ _____    ______ ____
ROOT
ATOM      1  O   UNL     1       1.845   4.559  21.350  0.00  0.00    +0.000 OA
ATOM      2  C   UNL     1       2.163   5.270  20.402  0.00  0.00    +0.000 A 
ATOM      3  C   UNL     1       2.815   4.800  19.199  0.00  0.00    +0.000 A 
ATOM      4  N   UNL     1       3.038   3.501  18.844  0.00  0.00    +0.000 NA
ATOM      5  C   UNL     1       3.624   3.585  17.677  0.00  0.00    +0.000 A 
ATOM      6  N   UNL     1       3.837   4.886  17.276  0.00  0.00    +0.000 N 
ATOM      7  C   UNL     1       3.237   5.703  18.229  0.00  0.00    +0.000 A 
ATOM      8  N   UNL     1       3.057   7.071  18.240  0.00  0.00    +0.000 NA
ATOM      9  C   UNL     1       2.376   7.479  19.285  0.00  0.00    +0.000 A 
ATOM     10  N   UNL     1       1.892   8.731  19.656  0.00  0.00    +0.000 N 
ATOM     11  C   UNL     1       1.142   8.641  20.837  0.00  0.00    +0.000 A 
ATOM     12  C   UNL     1       1.215   7.358  21.242  0.00  0.00    +0.000 A 
ATOM     13  N   UNL     1       1.945   6.630  20.323  0.00  0.00    +0.000 N 
ATOM     14  H   UNL     1       2.002   9.596  19.147  0.00  0.00    +0.000 HD
ENDROOT
BRANCH  11  15
ATOM     15  C   UNL     1       0.325   9.576  21.549  0.00  0.00    +0.000 A 
ATOM     16  C   UNL     1      -0.235   9.456  22.821  0.00  0.00    +0.000 A 
ATOM     17  C   UNL     1      -1.102  10.528  23.180  0.00  0.00    +0.000 A 
ATOM     18  C   UNL     1      -1.182  11.460  22.178  0.00  0.00    +0.000 A 
ATOM     19  S   UNL     1      -0.198  11.054  20.834  0.00  0.00    +0.000 S 
ENDBRANCH  11  15
BRANCH   6  20
ATOM     20  C   UNL     1       4.785   5.208  16.206  0.00  0.00    +0.000 C 
BRANCH  20  21
ATOM     21  C   UNL     1       6.268   5.340  16.629  0.00  0.00    +0.000 C 
ATOM     22  C   UNL     1       6.754   6.755  16.930  0.00  0.00    +0.000 C 
ATOM     23  C   UNL     1       6.631   5.787  18.071  0.00  0.00    +0.000 C 
BRANCH  21  24
ATOM     24  C   UNL     1       7.222   4.498  15.813  0.00  0.00    +0.000 C 
BRANCH  24  25
ATOM     25  O   UNL     1       6.474   3.668  14.936  0.00  0.00    +0.000 OA
ATOM     26  H   UNL     1       7.081   3.002  14.573  0.00  0.00    +0.000 HD
ENDBRANCH  24  25
ENDBRANCH  21  24
BRANCH  23  27
ATOM     27  C   UNL     1       7.863   5.391  18.830  0.00  0.00    +0.000 C 
BRANCH  27  28
ATOM     28  O   UNL     1       7.636   5.593  20.219  0.00  0.00    +0.000 OA
ATOM     29  H   UNL     1       7.894   6.508  20.424  0.00  0.00    +0.000 HD
ENDBRANCH  27  28
ENDBRANCH  23  27
ENDBRANCH  20  21
ENDBRANCH   6  20
TORSDOF 7
ENDMDL
MODEL 4
REMARK VINA RESULT:      -7.2      2.312      4.241
REMARK  Name = 
REMARK  7 active torsions:
REMARK  status: ('A' for Active; 'I' for Inactive)
REMARK    1  A    between atoms: N_6  and  C_7
REMARK    2  A    between atoms: C_7  and  C_8
REMARK    3  A    between atoms: C_8  and  C_9
REMARK    4  A    between atoms: C_9  and  O_10
REMARK    5  A    between atoms: C_12  and  C_13
REMARK    6  A    between atoms: C_13  and  O_14
REMARK    7  A    between atoms: C_19  and  C_20
REMARK                            x       y       z     vdW  Elec       q    Type
REMARK                         _______ _______ _______ _____ _____    ______ ____
ROOT
ATOM      1  O   UNL     1       2.504   8.873  16.928  0.00  0.00    +0.000 OA
ATOM      2  C   UNL     1       2.685   8.090  17.855  0.00  0.00    +0.000 A 
ATOM      3  C   UNL     1       3.619   6.985  17.833  0.00  0.00    +0.000 A 
ATOM      4  N   UNL     1       4.552   6.722  16.873  0.00  0.00    +0.000 NA
ATOM      5  C   UNL     1       5.162   5.649  17.306  0.00  0.00    +0.000 A 
ATOM      6  N   UNL     1       4.635   5.172  18.487  0.00  0.00    +0.000 N 
ATOM      7  C   UNL     1       3.669   6.086  18.894  0.00  0.00    +0.000 A 
ATOM      8  N   UNL     1       2.936   6.144  20.061  0.00  0.00    +0.000 NA
ATOM      9  C   UNL     1       2.166   7.205  20.118  0.00  0.00    +0.000 A 
ATOM     10  N   UNL     1       1.339   7.709  21.119  0.00  0.00    +0.000 N 
ATOM     11  C   UNL     1       0.779   8.933  20.728  0.00  0.00    +0.000 A 
ATOM     12  C   UNL     1       1.192   9.158  19.465  0.00  0.00    +0.000 A 
ATOM     13  N   UNL     1       2.037   8.140  19.073  0.00  0.00    +0.000 N 
ATOM     14  H   UNL     1       1.179   7.305  22.030  0.00  0.00    +0.000 HD
ENDROOT
BRANCH  11  15
ATOM     15  C   UNL     1      -0.003   9.915  21.417  0.00  0.00    +0.000 A 
ATOM     16  C   UNL     1      -0.441  11.158  20.964  0.00  0.00    +0.000 A 
ATOM     17  C   UNL     1      -1.098  11.943  21.956  0.00  0.00    +0.000 A 
ATOM     18  C   UNL     1      -1.161  11.278  23.153  0.00  0.00    +0.000 A 
ATOM     19  S   UNL     1      -0.461   9.716  23.067  0.00  0.00    +0.000 S 
ENDBRANCH  11  15
BRANCH   6  20
ATOM     20  C   UNL     1       4.912   3.808  18.949  0.00  0.00    +0.000 C 
BRANCH  20  21
ATOM     21  C   UNL     1       3.680   2.892  19.136  0.00  0.00    +0.000 C 
ATOM     22  C   UNL     1       3.844   1.742  20.125  0.00  0.00    +0.000 C 
ATOM     23  C   UNL     1       2.922   2.870  20.491  0.00  0.00    +0.000 C 
BRANCH  21  24
ATOM     24  C   UNL     1       2.977   2.528  17.847  0.00  0.00    +0.000 C 
BRANCH  24  25
ATOM     25  O   UNL     1       1.981   3.502  17.572  0.00  0.00    +0.000 OA
ATOM     26  H   UNL     1       1.446   3.173  16.830  0.00  0.00    +0.000 HD
ENDBRANCH  24  25
ENDBRANCH  21  24
BRANCH  23  27
ATOM     27  C   UNL     1       1.460   2.586  20.676  0.00  0.00    +0.000 C 
BRANCH  27  28
ATOM     28  O   UNL     1       0.724   3.782  20.450  0.00  0.00    +0.000 OA
ATOM     29  H   UNL     1      -0.071   3.741  21.008  0.00  0.00    +0.000 HD
ENDBRANCH  27  28
ENDBRANCH  23  27
ENDBRANCH  20  21
ENDBRANCH   6  20
TORSDOF 7
ENDMDL
MODEL 5
REMARK VINA RESULT:      -7.1      2.057      2.878
REMARK  Name = 
REMARK  7 active torsions:
REMARK  status: ('A' for Active; 'I' for Inactive)
REMARK    1  A    between atoms: N_6  and  C_7
REMARK    2  A    between atoms: C_7  and  C_8
REMARK    3  A    between atoms: C_8  and  C_9
REMARK    4  A    between atoms: C_9  and  O_10
REMARK    5  A    between atoms: C_12  and  C_13
REMARK    6  A    between atoms: C_13  and  O_14
REMARK    7  A    between atoms: C_19  and  C_20
REMARK                            x       y       z     vdW  Elec       q    Type
REMARK                         _______ _______ _______ _____ _____    ______ ____
ROOT
ATOM      1  O   UNL     1       1.504   6.839  21.086  0.00  0.00    +0.000 OA
ATOM      2  C   UNL     1       1.864   7.289  20.003  0.00  0.00    +0.000 A 
ATOM      3  C   UNL     1       2.764   6.621  19.088  0.00  0.00    +0.000 A 
ATOM      4  N   UNL     1       3.230   5.342  19.187  0.00  0.00    +0.000 NA
ATOM      5  C   UNL     1       3.979   5.191  18.125  0.00  0.00    +0.000 A 
ATOM      6  N   UNL     1       4.060   6.335  17.359  0.00  0.00    +0.000 N 
ATOM      7  C   UNL     1       3.200   7.265  17.935  0.00  0.00    +0.000 A 
ATOM      8  N   UNL     1       2.821   8.516  17.494  0.00  0.00    +0.000 NA
ATOM      9  C   UNL     1       1.927   9.074  18.276  0.00  0.00    +0.000 A 
ATOM     10  N   UNL     1       1.210  10.264  18.178  0.00  0.00    +0.000 N 
ATOM     11  C   UNL     1       0.300  10.382  19.238  0.00  0.00    +0.000 A 
ATOM     12  C   UNL     1       0.496   9.311  20.033  0.00  0.00    +0.000 A 
ATOM     13  N   UNL     1       1.463   8.499  19.475  0.00  0.00    +0.000 N 
ATOM     14  H   UNL     1       1.273  10.947  17.438  0.00  0.00    +0.000 HD
ENDROOT
BRANCH  11  15
ATOM     15  C   UNL     1      -0.750  11.311  19.526  0.00  0.00    +0.000 A 
ATOM     16  C   UNL     1      -1.012  11.993  20.714  0.00  0.00    +0.000 A 
ATOM     17  C   UNL     1      -2.218  12.753  20.696  0.00  0.00    +0.000 A 
ATOM     18  C   UNL     1      -2.854  12.648  19.486  0.00  0.00    +0.000 A 
ATOM     19  S   UNL     1      -1.987  11.667  18.380  0.00  0.00    +0.000 S 
ENDBRANCH  11  15
BRANCH   6  20
ATOM     20  C   UNL     1       5.111   6.504  16.352  0.00  0.00    +0.000 C 
BRANCH  20  21
ATOM     21  C   UNL     1       6.528   6.041  16.764  0.00  0.00    +0.000 C 
ATOM     22  C   UNL     1       7.521   7.148  17.107  0.00  0.00    +0.000 C 
ATOM     23  C   UNL     1       7.030   6.263  18.217  0.00  0.00    +0.000 C 
BRANCH  21  24
ATOM     24  C   UNL     1       7.088   4.925  15.912  0.00  0.00    +0.000 C 
BRANCH  24  25
ATOM     25  O   UNL     1       7.712   5.486  14.766  0.00  0.00    +0.000 OA
ATOM     26  H   UNL     1       7.324   5.060  13.983  0.00  0.00    +0.000 HD
ENDBRANCH  24  25
ENDBRANCH  21  24
BRANCH  23  27
ATOM     27  C   UNL     1       8.012   5.398  18.950  0.00  0.00    +0.000 C 
BRANCH  27  28
ATOM     28  O   UNL     1       7.827   5.571  20.350  0.00  0.00    +0.000 OA
ATOM     29  H   UNL     1       6.887   5.409  20.539  0.00  0.00    +0.000 HD
ENDBRANCH  27  28
ENDBRANCH  23  27
ENDBRANCH  20  21
ENDBRANCH   6  20
TORSDOF 7
ENDMDL
MODEL 6
REMARK VINA RESULT:      -7.1      1.469      2.106
REMARK  Name = 
REMARK  7 active torsions:
REMARK  status: ('A' for Active; 'I' for Inactive)
REMARK    1  A    between atoms: N_6  and  C_7
REMARK    2  A    between atoms: C_7  and  C_8
REMARK    3  A    between atoms: C_8  and  C_9
REMARK    4  A    between atoms: C_9  and  O_10
REMARK    5  A    between atoms: C_12  and  C_13
REMARK    6  A    between atoms: C_13  and  O_14
REMARK    7  A    between atoms: C_19  and  C_20
REMARK                            x       y       z     vdW  Elec       q    Type
REMARK                         _______ _______ _______ _____ _____    ______ ____
ROOT
ATOM      1  O   UNL     1       0.900   3.810  20.656  0.00  0.00    +0.000 OA
ATOM      2  C   UNL     1       1.730   4.505  20.078  0.00  0.00    +0.000 A 
ATOM      3  C   UNL     1       2.693   4.014  19.116  0.00  0.00    +0.000 A 
ATOM      4  N   UNL     1       2.743   2.762  18.574  0.00  0.00    +0.000 NA
ATOM      5  C   UNL     1       3.758   2.811  17.750  0.00  0.00    +0.000 A 
ATOM      6  N   UNL     1       4.403   4.029  17.765  0.00  0.00    +0.000 N 
ATOM      7  C   UNL     1       3.666   4.863  18.600  0.00  0.00    +0.000 A 
ATOM      8  N   UNL     1       3.810   6.210  18.861  0.00  0.00    +0.000 NA
ATOM      9  C   UNL     1       2.873   6.670  19.655  0.00  0.00    +0.000 A 
ATOM     10  N   UNL     1       2.575   7.954  20.106  0.00  0.00    +0.000 N 
ATOM     11  C   UNL     1       1.407   7.946  20.883  0.00  0.00    +0.000 A 
ATOM     12  C   UNL     1       1.018   6.660  20.979  0.00  0.00    +0.000 A 
ATOM     13  N   UNL     1       1.875   5.868  20.242  0.00  0.00    +0.000 N 
ATOM     14  H   UNL     1       3.075   8.803  19.886  0.00  0.00    +0.000 HD
ENDROOT
BRANCH  11  15
ATOM     15  C   UNL     1       0.604   8.987  21.450  0.00  0.00    +0.000 A 
ATOM     16  C   UNL     1       0.066   9.075  22.733  0.00  0.00    +0.000 A 
ATOM     17  C   UNL     1      -0.794  10.194  22.930  0.00  0.00    +0.000 A 
ATOM     18  C   UNL     1      -0.889  10.954  21.793  0.00  0.00    +0.000 A 
ATOM     19  S   UNL     1       0.071  10.333  20.515  0.00  0.00    +0.000 S 
ENDBRANCH  11  15
BRANCH   6  20
ATOM     20  C   UNL     1       5.752   4.184  17.213  0.00  0.00    +0.000 C 
BRANCH  20  21
ATOM     21  C   UNL     1       5.835   4.711  15.761  0.00  0.00    +0.000 C 
ATOM     22  C   UNL     1       7.202   4.613  15.090  0.00  0.00    +0.000 C 
ATOM     23  C   UNL     1       6.098   3.728  14.587  0.00  0.00    +0.000 C 
BRANCH  21  24
ATOM     24  C   UNL     1       5.106   6.015  15.533  0.00  0.00    +0.000 C 
BRANCH  24  25
ATOM     25  O   UNL     1       5.632   7.000  16.411  0.00  0.00    +0.000 OA
ATOM     26  H   UNL     1       6.302   6.569  16.967  0.00  0.00    +0.000 HD
ENDBRANCH  24  25
ENDBRANCH  21  24
BRANCH  23  27
ATOM     27  C   UNL     1       5.614   3.894  13.177  0.00  0.00    +0.000 C 
BRANCH  27  28
ATOM     28  O   UNL     1       6.225   2.903  12.359  0.00  0.00    +0.000 OA
ATOM     29  H   UNL     1       7.186   2.982  12.480  0.00  0.00    +0.000 HD
ENDBRANCH  27  28
ENDBRANCH  23  27
ENDBRANCH  20  21
ENDBRANCH   6  20
TORSDOF 7
ENDMDL
MODEL 7
REMARK VINA RESULT:      -7.0      2.403      3.225
REMARK  Name = 
REMARK  7 active torsions:
REMARK  status: ('A' for Active; 'I' for Inactive)
REMARK    1  A    between atoms: N_6  and  C_7
REMARK    2  A    between atoms: C_7  and  C_8
REMARK    3  A    between atoms: C_8  and  C_9
REMARK    4  A    between atoms: C_9  and  O_10
REMARK    5  A    between atoms: C_12  and  C_13
REMARK    6  A    between atoms: C_13  and  O_14
REMARK    7  A    between atoms: C_19  and  C_20
REMARK                            x       y       z     vdW  Elec       q    Type
REMARK                         _______ _______ _______ _____ _____    ______ ____
ROOT
ATOM      1  O   UNL     1       1.159   8.275  21.960  0.00  0.00    +0.000 OA
ATOM      2  C   UNL     1       1.442   8.149  20.773  0.00  0.00    +0.000 A 
ATOM      3  C   UNL     1       1.797   6.899  20.136  0.00  0.00    +0.000 A 
ATOM      4  N   UNL     1       1.724   5.652  20.685  0.00  0.00    +0.000 NA
ATOM      5  C   UNL     1       2.120   4.857  19.724  0.00  0.00    +0.000 A 
ATOM      6  N   UNL     1       2.494   5.537  18.585  0.00  0.00    +0.000 N 
ATOM      7  C   UNL     1       2.212   6.880  18.809  0.00  0.00    +0.000 A 
ATOM      8  N   UNL     1       2.284   7.958  17.950  0.00  0.00    +0.000 NA
ATOM      9  C   UNL     1       1.864   9.070  18.504  0.00  0.00    +0.000 A 
ATOM     10  N   UNL     1       1.678  10.355  18.000  0.00  0.00    +0.000 N 
ATOM     11  C   UNL     1       1.124  11.194  18.978  0.00  0.00    +0.000 A 
ATOM     12  C   UNL     1       1.031  10.461  20.105  0.00  0.00    +0.000 A 
ATOM     13  N   UNL     1       1.461   9.175  19.850  0.00  0.00    +0.000 N 
ATOM     14  H   UNL     1       1.857  10.666  17.057  0.00  0.00    +0.000 HD
ENDROOT
BRANCH  11  15
ATOM     15  C   UNL     1       0.613  12.531  18.943  0.00  0.00    +0.000 A 
ATOM     16  C   UNL     1       1.256  13.702  18.544  0.00  0.00    +0.000 A 
ATOM     17  C   UNL     1       0.493  14.887  18.752  0.00  0.00    +0.000 A 
ATOM     18  C   UNL     1      -0.732  14.600  19.298  0.00  0.00    +0.000 A 
ATOM     19  S   UNL     1      -0.962  12.917  19.527  0.00  0.00    +0.000 S 
ENDBRANCH  11  15
BRANCH   6  20
ATOM     20  C   UNL     1       3.300   4.892  17.544  0.00  0.00    +0.000 C 
BRANCH  20  21
ATOM     21  C   UNL     1       4.806   5.244  17.535  0.00  0.00    +0.000 C 
ATOM     22  C   UNL     1       5.511   5.140  16.186  0.00  0.00    +0.000 C 
ATOM     23  C   UNL     1       5.310   6.504  16.781  0.00  0.00    +0.000 C 
BRANCH  21  24
ATOM     24  C   UNL     1       5.581   4.677  18.703  0.00  0.00    +0.000 C 
BRANCH  24  25
ATOM     25  O   UNL     1       6.735   4.008  18.214  0.00  0.00    +0.000 OA
ATOM     26  H   UNL     1       7.457   4.658  18.177  0.00  0.00    +0.000 HD
ENDBRANCH  24  25
ENDBRANCH  21  24
BRANCH  23  27
ATOM     27  C   UNL     1       6.511   7.326  17.145  0.00  0.00    +0.000 C 
BRANCH  27  28
ATOM     28  O   UNL     1       7.679   6.682  16.654  0.00  0.00    +0.000 OA
ATOM     29  H   UNL     1       8.382   6.818  17.312  0.00  0.00    +0.000 HD
ENDBRANCH  27  28
ENDBRANCH  23  27
ENDBRANCH  20  21
ENDBRANCH   6  20
TORSDOF 7
ENDMDL
MODEL 8
REMARK VINA RESULT:      -7.0      2.201      4.160
REMARK  Name = 
REMARK  7 active torsions:
REMARK  status: ('A' for Active; 'I' for Inactive)
REMARK    1  A    between atoms: N_6  and  C_7
REMARK    2  A    between atoms: C_7  and  C_8
REMARK    3  A    between atoms: C_8  and  C_9
REMARK    4  A    between atoms: C_9  and  O_10
REMARK    5  A    between atoms: C_12  and  C_13
REMARK    6  A    between atoms: C_13  and  O_14
REMARK    7  A    between atoms: C_19  and  C_20
REMARK                            x       y       z     vdW  Elec       q    Type
REMARK                         _______ _______ _______ _____ _____    ______ ____
ROOT
ATOM      1  O   UNL     1       2.521   8.840  17.026  0.00  0.00    +0.000 OA
ATOM      2  C   UNL     1       2.660   8.045  17.950  0.00  0.00    +0.000 A 
ATOM      3  C   UNL     1       3.545   6.901  17.930  0.00  0.00    +0.000 A 
ATOM      4  N   UNL     1       4.475   6.602  16.977  0.00  0.00    +0.000 NA
ATOM      5  C   UNL     1       5.034   5.501  17.410  0.00  0.00    +0.000 A 
ATOM      6  N   UNL     1       4.476   5.042  18.583  0.00  0.00    +0.000 N 
ATOM      7  C   UNL     1       3.546   5.995  18.986  0.00  0.00    +0.000 A 
ATOM      8  N   UNL     1       2.805   6.078  20.147  0.00  0.00    +0.000 NA
ATOM      9  C   UNL     1       2.081   7.171  20.202  0.00  0.00    +0.000 A 
ATOM     10  N   UNL     1       1.267   7.705  21.199  0.00  0.00    +0.000 N 
ATOM     11  C   UNL     1       0.764   8.954  20.809  0.00  0.00    +0.000 A 
ATOM     12  C   UNL     1       1.199   9.168  19.552  0.00  0.00    +0.000 A 
ATOM     13  N   UNL     1       2.003   8.116  19.162  0.00  0.00    +0.000 N 
ATOM     14  H   UNL     1       1.081   7.303  22.106  0.00  0.00    +0.000 HD
ENDROOT
BRANCH  11  15
ATOM     15  C   UNL     1       0.020   9.965  21.497  0.00  0.00    +0.000 A 
ATOM     16  C   UNL     1      -0.476   9.952  22.800  0.00  0.00    +0.000 A 
ATOM     17  C   UNL     1      -1.284  11.078  23.129  0.00  0.00    +0.000 A 
ATOM     18  C   UNL     1      -1.384  11.944  22.071  0.00  0.00    +0.000 A 
ATOM     19  S   UNL     1      -0.487  11.412  20.710  0.00  0.00    +0.000 S 
ENDBRANCH  11  15
BRANCH   6  20
ATOM     20  C   UNL     1       4.689   3.665  19.040  0.00  0.00    +0.000 C 
BRANCH  20  21
ATOM     21  C   UNL     1       3.467   2.722  18.944  0.00  0.00    +0.000 C 
ATOM     22  C   UNL     1       2.771   2.391  20.261  0.00  0.00    +0.000 C 
ATOM     23  C   UNL     1       2.044   3.252  19.270  0.00  0.00    +0.000 C 
BRANCH  21  24
ATOM     24  C   UNL     1       3.663   1.546  18.015  0.00  0.00    +0.000 C 
BRANCH  24  25
ATOM     25  O   UNL     1       4.482   0.579  18.657  0.00  0.00    +0.000 OA
ATOM     26  H   UNL     1       4.419   0.731  19.614  0.00  0.00    +0.000 HD
ENDBRANCH  24  25
ENDBRANCH  21  24
BRANCH  23  27
ATOM     27  C   UNL     1       0.761   2.753  18.672  0.00  0.00    +0.000 C 
BRANCH  27  28
ATOM     28  O   UNL     1      -0.164   2.485  19.718  0.00  0.00    +0.000 OA
ATOM     29  H   UNL     1      -0.730   1.752  19.422  0.00  0.00    +0.000 HD
ENDBRANCH  27  28
ENDBRANCH  23  27
ENDBRANCH  20  21
ENDBRANCH   6  20
TORSDOF 7
ENDMDL
MODEL 9
REMARK VINA RESULT:      -7.0      2.459      3.567
REMARK  Name = 
REMARK  7 active torsions:
REMARK  status: ('A' for Active; 'I' for Inactive)
REMARK    1  A    between atoms: N_6  and  C_7
REMARK    2  A    between atoms: C_7  and  C_8
REMARK    3  A    between atoms: C_8  and  C_9
REMARK    4  A    between atoms: C_9  and  O_10
REMARK    5  A    between atoms: C_12  and  C_13
REMARK    6  A    between atoms: C_13  and  O_14
REMARK    7  A    between atoms: C_19  and  C_20
REMARK                            x       y       z     vdW  Elec       q    Type
REMARK                         _______ _______ _______ _____ _____    ______ ____
ROOT
ATOM      1  O   UNL     1       1.027   8.274  21.921  0.00  0.00    +0.000 OA
ATOM      2  C   UNL     1       1.395   8.222  20.752  0.00  0.00    +0.000 A 
ATOM      3  C   UNL     1       1.874   7.028  20.088  0.00  0.00    +0.000 A 
ATOM      4  N   UNL     1       1.848   5.754  20.577  0.00  0.00    +0.000 NA
ATOM      5  C   UNL     1       2.359   5.032  19.613  0.00  0.00    +0.000 A 
ATOM      6  N   UNL     1       2.761   5.787  18.532  0.00  0.00    +0.000 N 
ATOM      7  C   UNL     1       2.375   7.098  18.793  0.00  0.00    +0.000 A 
ATOM      8  N   UNL     1       2.431   8.216  17.987  0.00  0.00    +0.000 NA
ATOM      9  C   UNL     1       1.902   9.272  18.558  0.00  0.00    +0.000 A 
ATOM     10  N   UNL     1       1.664  10.565  18.097  0.00  0.00    +0.000 N 
ATOM     11  C   UNL     1       0.992  11.320  19.069  0.00  0.00    +0.000 A 
ATOM     12  C   UNL     1       0.875  10.532  20.155  0.00  0.00    +0.000 A 
ATOM     13  N   UNL     1       1.405   9.288  19.876  0.00  0.00    +0.000 N 
ATOM     14  H   UNL     1       1.884  10.930  17.182  0.00  0.00    +0.000 HD
ENDROOT
BRANCH  11  15
ATOM     15  C   UNL     1       0.396  12.622  19.056  0.00  0.00    +0.000 A 
ATOM     16  C   UNL     1       0.926  13.821  18.580  0.00  0.00    +0.000 A 
ATOM     17  C   UNL     1       0.111  14.961  18.834  0.00  0.00    +0.000 A 
ATOM     18  C   UNL     1      -1.041  14.612  19.492  0.00  0.00    +0.000 A 
ATOM     19  S   UNL     1      -1.142  12.924  19.771  0.00  0.00    +0.000 S 
ENDBRANCH  11  15
BRANCH   6  20
ATOM     20  C   UNL     1       3.674   5.244  17.522  0.00  0.00    +0.000 C 
BRANCH  20  21
ATOM     21  C   UNL     1       5.167   5.615  17.688  0.00  0.00    +0.000 C 
ATOM     22  C   UNL     1       5.748   5.443  19.088  0.00  0.00    +0.000 C 
ATOM     23  C   UNL     1       6.214   4.512  18.005  0.00  0.00    +0.000 C 
BRANCH  21  24
ATOM     24  C   UNL     1       5.571   6.889  16.982  0.00  0.00    +0.000 C 
BRANCH  24  25
ATOM     25  O   UNL     1       5.522   6.677  15.578  0.00  0.00    +0.000 OA
ATOM     26  H   UNL     1       5.931   5.814  15.397  0.00  0.00    +0.000 HD
ENDBRANCH  24  25
ENDBRANCH  21  24
BRANCH  23  27
ATOM     27  C   UNL     1       7.658   4.529  17.599  0.00  0.00    +0.000 C 
BRANCH  27  28
ATOM     28  O   UNL     1       7.742   4.452  16.182  0.00  0.00    +0.000 OA
ATOM     29  H   UNL     1       7.665   3.514  15.939  0.00  0.00    +0.000 HD
ENDBRANCH  27  28
ENDBRANCH  23  27
ENDBRANCH  20  21
ENDBRANCH   6  20
TORSDOF 7
ENDMDL
