MODEL 1
REMARK VINA RESULT:      -7.4      0.000      0.000
REMARK  Name = 
REMARK  7 active torsions:
REMARK  status: ('A' for Active; 'I' for Inactive)
REMARK    1  A    between atoms: C_1  and  C_2
REMARK    2  A    between atoms: C_7  and  O_8
REMARK    3  A    between atoms: O_8  and  C_9
REMARK    4  A    between atoms: C_9  and  C_10
REMARK    5  A    between atoms: C_10  and  O_11
REMARK    6  A    between atoms: C_10  and  C_12
REMARK    7  A    between atoms: C_12  and  N_13
REMARK                            x       y       z     vdW  Elec       q    Type
REMARK                         _______ _______ _______ _____ _____    ______ ____
ROOT
ATOM      1  C   UNL     1       7.255   7.035  16.975  0.00  0.00    +0.000 C 
ENDROOT
BRANCH   1   2
ATOM      2  N   UNL     1       6.428   6.151  17.814  0.00  0.00    +0.000 NA
ATOM      3  C   UNL     1       5.070   6.635  18.129  0.00  0.00    +0.000 C 
ATOM      4  C   UNL     1       3.878   6.136  17.265  0.00  0.00    +0.000 C 
ATOM      5  N   UNL     1       3.955   4.708  16.942  0.00  0.00    +0.000 N 
ATOM      6  C   UNL     1       3.231   3.786  17.691  0.00  0.00    +0.000 A 
ATOM      7  C   UNL     1       1.875   4.014  17.961  0.00  0.00    +0.000 A 
ATOM      8  C   UNL     1       1.114   3.057  18.649  0.00  0.00    +0.000 A 
ATOM      9  C   UNL     1       1.721   1.873  19.043  0.00  0.00    +0.000 A 
ATOM     10  C   UNL     1       3.054   1.704  18.731  0.00  0.00    +0.000 A 
ATOM     11  N   UNL     1       3.804   2.624  18.064  0.00  0.00    +0.000 NA
ATOM     12  C   UNL     1       5.279   4.301  16.445  0.00  0.00    +0.000 C 
ATOM     13  C   UNL     1       6.414   4.734  17.398  0.00  0.00    +0.000 C 
ENDBRANCH   1   2
BRANCH   1  14
ATOM     14  C   UNL     1       8.312   7.857  17.781  0.00  0.00    +0.000 C 
BRANCH  14  15
ATOM     15  O   UNL     1       8.473   7.360  19.120  0.00  0.00    +0.000 OA
ATOM     16  H   UNL     1       7.842   6.631  19.241  0.00  0.00    +0.000 HD
ENDBRANCH  14  15
BRANCH  14  17
ATOM     17  C   UNL     1       7.929   9.346  17.898  0.00  0.00    +0.000 C 
BRANCH  17  18
ATOM     18  O   UNL     1       8.750  10.030  18.832  0.00  0.00    +0.000 OA
BRANCH  18  25
ATOM     19  C   UNL     1       7.725  12.594  17.236  0.00  0.00    +0.000 C 
ATOM     20  C   UNL     1       9.106  12.273  17.733  0.00  0.00    +0.000 A 
ATOM     21  C   UNL     1      10.101  13.237  17.447  0.00  0.00    +0.000 A 
ATOM     22  C   UNL     1      11.421  13.082  17.852  0.00  0.00    +0.000 A 
ATOM     23  C   UNL     1      11.787  11.948  18.559  0.00  0.00    +0.000 A 
ATOM     24  C   UNL     1      10.825  10.982  18.846  0.00  0.00    +0.000 A 
ATOM     25  C   UNL     1       9.485  11.118  18.442  0.00  0.00    +0.000 A 
ENDBRANCH  18  25
ENDBRANCH  17  18
ENDBRANCH  14  17
ENDBRANCH   1  14
TORSDOF 6
ENDMDL
MODEL 2
REMARK VINA RESULT:      -7.3      1.461      1.686
REMARK  Name = 
REMARK  7 active torsions:
REMARK  status: ('A' for Active; 'I' for Inactive)
REMARK    1  A    between atoms: C_1  and  C_2
REMARK    2  A    between atoms: C_7  and  O_8
REMARK    3  A    between atoms: O_8  and  C_9
REMARK    4  A    between atoms: C_9  and  C_10
REMARK    5  A    between atoms: C_10  and  O_11
REMARK    6  A    between atoms: C_10  and  C_12
REMARK    7  A    between atoms: C_12  and  N_13
REMARK                            x       y       z     vdW  Elec       q    Type
REMARK                         _______ _______ _______ _____ _____    ______ ____
ROOT
ATOM      1  C   UNL     1       6.996   6.480  17.143  0.00  0.00    +0.000 C 
ENDROOT
BRANCH   1   2
ATOM      2  N   UNL     1       5.784   6.318  17.964  0.00  0.00    +0.000 NA
ATOM      3  C   UNL     1       4.517   6.144  17.229  0.00  0.00    +0.000 C 
ATOM      4  C   UNL     1       3.974   4.706  16.999  0.00  0.00    +0.000 C 
ATOM      5  N   UNL     1       4.120   3.839  18.173  0.00  0.00    +0.000 N 
ATOM      6  C   UNL     1       3.041   3.639  19.027  0.00  0.00    +0.000 A 
ATOM      7  C   UNL     1       1.783   3.315  18.504  0.00  0.00    +0.000 A 
ATOM      8  C   UNL     1       0.704   3.037  19.357  0.00  0.00    +0.000 A 
ATOM      9  C   UNL     1       0.908   3.071  20.729  0.00  0.00    +0.000 A 
ATOM     10  C   UNL     1       2.175   3.380  21.179  0.00  0.00    +0.000 A 
ATOM     11  N   UNL     1       3.229   3.652  20.363  0.00  0.00    +0.000 NA
ATOM     12  C   UNL     1       5.465   3.895  18.765  0.00  0.00    +0.000 C 
ATOM     13  C   UNL     1       5.906   5.343  19.067  0.00  0.00    +0.000 C 
ENDBRANCH   1   2
BRANCH   1  14
ATOM     14  C   UNL     1       8.084   7.388  17.801  0.00  0.00    +0.000 C 
BRANCH  14  15
ATOM     15  O   UNL     1       8.401   6.965  19.137  0.00  0.00    +0.000 OA
ATOM     16  H   UNL     1       8.175   6.023  19.209  0.00  0.00    +0.000 HD
ENDBRANCH  14  15
BRANCH  14  17
ATOM     17  C   UNL     1       7.639   8.862  17.890  0.00  0.00    +0.000 C 
BRANCH  17  18
ATOM     18  O   UNL     1       8.711   9.754  17.625  0.00  0.00    +0.000 OA
BRANCH  18  25
ATOM     19  C   UNL     1       7.884  12.787  17.090  0.00  0.00    +0.000 C 
ATOM     20  C   UNL     1       8.606  12.191  18.266  0.00  0.00    +0.000 A 
ATOM     21  C   UNL     1       8.984  13.102  19.280  0.00  0.00    +0.000 A 
ATOM     22  C   UNL     1       9.649  12.695  20.430  0.00  0.00    +0.000 A 
ATOM     23  C   UNL     1       9.957  11.356  20.600  0.00  0.00    +0.000 A 
ATOM     24  C   UNL     1       9.600  10.442  19.612  0.00  0.00    +0.000 A 
ATOM     25  C   UNL     1       8.931  10.833  18.438  0.00  0.00    +0.000 A 
ENDBRANCH  18  25
ENDBRANCH  17  18
ENDBRANCH  14  17
ENDBRANCH   1  14
TORSDOF 6
ENDMDL
MODEL 3
REMARK VINA RESULT:      -7.2      5.311      7.171
REMARK  Name = 
REMARK  7 active torsions:
REMARK  status: ('A' for Active; 'I' for Inactive)
REMARK    1  A    between atoms: C_1  and  C_2
REMARK    2  A    between atoms: C_7  and  O_8
REMARK    3  A    between atoms: O_8  and  C_9
REMARK    4  A    between atoms: C_9  and  C_10
REMARK    5  A    between atoms: C_10  and  O_11
REMARK    6  A    between atoms: C_10  and  C_12
REMARK    7  A    between atoms: C_12  and  N_13
REMARK                            x       y       z     vdW  Elec       q    Type
REMARK                         _______ _______ _______ _____ _____    ______ ____
ROOT
ATOM      1  C   UNL     1       2.293   2.415  20.170  0.00  0.00    +0.000 C 
ENDROOT
BRANCH   1   2
ATOM      2  N   UNL     1       3.363   2.341  19.160  0.00  0.00    +0.000 NA
ATOM      3  C   UNL     1       2.929   2.318  17.750  0.00  0.00    +0.000 C 
ATOM      4  C   UNL     1       2.920   3.649  16.947  0.00  0.00    +0.000 C 
ATOM      5  N   UNL     1       4.092   4.490  17.209  0.00  0.00    +0.000 N 
ATOM      6  C   UNL     1       5.168   4.475  16.329  0.00  0.00    +0.000 A 
ATOM      7  C   UNL     1       4.949   4.596  14.950  0.00  0.00    +0.000 A 
ATOM      8  C   UNL     1       6.029   4.658  14.058  0.00  0.00    +0.000 A 
ATOM      9  C   UNL     1       7.321   4.616  14.564  0.00  0.00    +0.000 A 
ATOM     10  C   UNL     1       7.468   4.514  15.932  0.00  0.00    +0.000 A 
ATOM     11  N   UNL     1       6.429   4.453  16.808  0.00  0.00    +0.000 NA
ATOM     12  C   UNL     1       4.378   4.647  18.643  0.00  0.00    +0.000 C 
ATOM     13  C   UNL     1       4.479   3.286  19.366  0.00  0.00    +0.000 C 
ENDBRANCH   1   2
BRANCH   1  14
ATOM     14  C   UNL     1       2.426   3.635  21.136  0.00  0.00    +0.000 C 
BRANCH  14  15
ATOM     15  O   UNL     1       2.036   3.303  22.479  0.00  0.00    +0.000 OA
ATOM     16  H   UNL     1       1.092   3.516  22.572  0.00  0.00    +0.000 HD
ENDBRANCH  14  15
BRANCH  14  17
ATOM     17  C   UNL     1       1.552   4.827  20.697  0.00  0.00    +0.000 C 
BRANCH  17  18
ATOM     18  O   UNL     1       2.162   6.071  21.008  0.00  0.00    +0.000 OA
BRANCH  18  25
ATOM     19  C   UNL     1       0.516   8.639  21.940  0.00  0.00    +0.000 C 
ATOM     20  C   UNL     1       1.149   8.347  20.609  0.00  0.00    +0.000 A 
ATOM     21  C   UNL     1       0.987   9.345  19.619  0.00  0.00    +0.000 A 
ATOM     22  C   UNL     1       1.525   9.219  18.345  0.00  0.00    +0.000 A 
ATOM     23  C   UNL     1       2.245   8.080  18.020  0.00  0.00    +0.000 A 
ATOM     24  C   UNL     1       2.412   7.081  18.976  0.00  0.00    +0.000 A 
ATOM     25  C   UNL     1       1.872   7.188  20.270  0.00  0.00    +0.000 A 
ENDBRANCH  18  25
ENDBRANCH  17  18
ENDBRANCH  14  17
ENDBRANCH   1  14
TORSDOF 6
ENDMDL
MODEL 4
REMARK VINA RESULT:      -7.2      3.953      6.491
REMARK  Name = 
REMARK  7 active torsions:
REMARK  status: ('A' for Active; 'I' for Inactive)
REMARK    1  A    between atoms: C_1  and  C_2
REMARK    2  A    between atoms: C_7  and  O_8
REMARK    3  A    between atoms: O_8  and  C_9
REMARK    4  A    between atoms: C_9  and  C_10
REMARK    5  A    between atoms: C_10  and  O_11
REMARK    6  A    between atoms: C_10  and  C_12
REMARK    7  A    between atoms: C_12  and  N_13
REMARK                            x       y       z     vdW  Elec       q    Type
REMARK                         _______ _______ _______ _____ _____    ______ ____
ROOT
ATOM      1  C   UNL     1       2.371   2.779  19.199  0.00  0.00    +0.000 C 
ENDROOT
BRANCH   1   2
ATOM      2  N   UNL     1       1.620   4.027  18.975  0.00  0.00    +0.000 NA
ATOM      3  C   UNL     1       0.979   4.624  20.163  0.00  0.00    +0.000 C 
ATOM      4  C   UNL     1       1.716   5.765  20.918  0.00  0.00    +0.000 C 
ATOM      5  N   UNL     1       2.356   6.733  20.021  0.00  0.00    +0.000 N 
ATOM      6  C   UNL     1       1.718   7.933  19.725  0.00  0.00    +0.000 A 
ATOM      7  C   UNL     1       1.177   8.712  20.756  0.00  0.00    +0.000 A 
ATOM      8  C   UNL     1       0.598   9.960  20.480  0.00  0.00    +0.000 A 
ATOM      9  C   UNL     1       0.586  10.419  19.170  0.00  0.00    +0.000 A 
ATOM     10  C   UNL     1       1.150   9.611  18.205  0.00  0.00    +0.000 A 
ATOM     11  N   UNL     1       1.714   8.399  18.459  0.00  0.00    +0.000 NA
ATOM     12  C   UNL     1       3.148   6.095  18.958  0.00  0.00    +0.000 C 
ATOM     13  C   UNL     1       2.330   5.045  18.176  0.00  0.00    +0.000 C 
ENDBRANCH   1   2
BRANCH   1  14
ATOM     14  C   UNL     1       3.456   2.497  18.111  0.00  0.00    +0.000 C 
BRANCH  14  15
ATOM     15  O   UNL     1       3.716   1.091  17.963  0.00  0.00    +0.000 OA
ATOM     16  H   UNL     1       4.065   0.949  17.067  0.00  0.00    +0.000 HD
ENDBRANCH  14  15
BRANCH  14  17
ATOM     17  C   UNL     1       4.804   3.169  18.441  0.00  0.00    +0.000 C 
BRANCH  17  18
ATOM     18  O   UNL     1       5.352   3.834  17.312  0.00  0.00    +0.000 OA
BRANCH  18  25
ATOM     19  C   UNL     1       5.208   6.486  15.548  0.00  0.00    +0.000 C 
ATOM     20  C   UNL     1       6.080   6.178  16.732  0.00  0.00    +0.000 A 
ATOM     21  C   UNL     1       6.974   7.203  17.120  0.00  0.00    +0.000 A 
ATOM     22  C   UNL     1       7.834   7.066  18.202  0.00  0.00    +0.000 A 
ATOM     23  C   UNL     1       7.825   5.889  18.933  0.00  0.00    +0.000 A 
ATOM     24  C   UNL     1       6.958   4.863  18.566  0.00  0.00    +0.000 A 
ATOM     25  C   UNL     1       6.082   4.981  17.471  0.00  0.00    +0.000 A 
ENDBRANCH  18  25
ENDBRANCH  17  18
ENDBRANCH  14  17
ENDBRANCH   1  14
TORSDOF 6
ENDMDL
MODEL 5
REMARK VINA RESULT:      -7.2      0.521      1.513
REMARK  Name = 
REMARK  7 active torsions:
REMARK  status: ('A' for Active; 'I' for Inactive)
REMARK    1  A    between atoms: C_1  and  C_2
REMARK    2  A    between atoms: C_7  and  O_8
REMARK    3  A    between atoms: O_8  and  C_9
REMARK    4  A    between atoms: C_9  and  C_10
REMARK    5  A    between atoms: C_10  and  O_11
REMARK    6  A    between atoms: C_10  and  C_12
REMARK    7  A    between atoms: C_12  and  N_13
REMARK                            x       y       z     vdW  Elec       q    Type
REMARK                         _______ _______ _______ _____ _____    ______ ____
ROOT
ATOM      1  C   UNL     1       7.121   7.129  17.041  0.00  0.00    +0.000 C 
ENDROOT
BRANCH   1   2
ATOM      2  N   UNL     1       6.314   6.215  17.868  0.00  0.00    +0.000 NA
ATOM      3  C   UNL     1       4.947   6.666  18.193  0.00  0.00    +0.000 C 
ATOM      4  C   UNL     1       3.763   6.157  17.324  0.00  0.00    +0.000 C 
ATOM      5  N   UNL     1       3.869   4.736  16.978  0.00  0.00    +0.000 N 
ATOM      6  C   UNL     1       3.165   3.788  17.713  0.00  0.00    +0.000 A 
ATOM      7  C   UNL     1       1.805   3.984  17.989  0.00  0.00    +0.000 A 
ATOM      8  C   UNL     1       1.065   3.001  18.664  0.00  0.00    +0.000 A 
ATOM      9  C   UNL     1       1.697   1.823  19.037  0.00  0.00    +0.000 A 
ATOM     10  C   UNL     1       3.033   1.687  18.720  0.00  0.00    +0.000 A 
ATOM     11  N   UNL     1       3.762   2.632  18.067  0.00  0.00    +0.000 NA
ATOM     12  C   UNL     1       5.199   4.365  16.472  0.00  0.00    +0.000 C 
ATOM     13  C   UNL     1       6.327   4.805  17.430  0.00  0.00    +0.000 C 
ENDBRANCH   1   2
BRANCH   1  14
ATOM     14  C   UNL     1       8.306   7.792  17.814  0.00  0.00    +0.000 C 
BRANCH  14  15
ATOM     15  O   UNL     1       8.486   7.218  19.120  0.00  0.00    +0.000 OA
ATOM     16  H   UNL     1       9.218   7.689  19.550  0.00  0.00    +0.000 HD
ENDBRANCH  14  15
BRANCH  14  17
ATOM     17  C   UNL     1       8.100   9.307  18.014  0.00  0.00    +0.000 C 
BRANCH  17  18
ATOM     18  O   UNL     1       9.217   9.912  18.647  0.00  0.00    +0.000 OA
BRANCH  18  25
ATOM     19  C   UNL     1      11.878  11.490  19.422  0.00  0.00    +0.000 C 
ATOM     20  C   UNL     1      10.620  12.004  18.782  0.00  0.00    +0.000 A 
ATOM     21  C   UNL     1      10.602  13.388  18.487  0.00  0.00    +0.000 A 
ATOM     22  C   UNL     1       9.512  14.003  17.886  0.00  0.00    +0.000 A 
ATOM     23  C   UNL     1       8.398  13.247  17.561  0.00  0.00    +0.000 A 
ATOM     24  C   UNL     1       8.389  11.884  17.848  0.00  0.00    +0.000 A 
ATOM     25  C   UNL     1       9.482  11.243  18.460  0.00  0.00    +0.000 A 
ENDBRANCH  18  25
ENDBRANCH  17  18
ENDBRANCH  14  17
ENDBRANCH   1  14
TORSDOF 6
ENDMDL
MODEL 6
REMARK VINA RESULT:      -7.0      4.862      7.371
REMARK  Name = 
REMARK  7 active torsions:
REMARK  status: ('A' for Active; 'I' for Inactive)
REMARK    1  A    between atoms: C_1  and  C_2
REMARK    2  A    between atoms: C_7  and  O_8
REMARK    3  A    between atoms: O_8  and  C_9
REMARK    4  A    between atoms: C_9  and  C_10
REMARK    5  A    between atoms: C_10  and  O_11
REMARK    6  A    between atoms: C_10  and  C_12
REMARK    7  A    between atoms: C_12  and  N_13
REMARK                            x       y       z     vdW  Elec       q    Type
REMARK                         _______ _______ _______ _____ _____    ______ ____
ROOT
ATOM      1  C   UNL     1       3.844   5.017  18.874  0.00  0.00    +0.000 C 
ENDROOT
BRANCH   1   2
ATOM      2  N   UNL     1       4.026   5.107  17.415  0.00  0.00    +0.000 NA
ATOM      3  C   UNL     1       4.911   6.185  16.934  0.00  0.00    +0.000 C 
ATOM      4  C   UNL     1       6.395   5.851  16.616  0.00  0.00    +0.000 C 
ATOM      5  N   UNL     1       6.564   4.570  15.923  0.00  0.00    +0.000 N 
ATOM      6  C   UNL     1       6.719   4.544  14.541  0.00  0.00    +0.000 A 
ATOM      7  C   UNL     1       7.636   5.404  13.922  0.00  0.00    +0.000 A 
ATOM      8  C   UNL     1       7.857   5.336  12.538  0.00  0.00    +0.000 A 
ATOM      9  C   UNL     1       7.165   4.390  11.794  0.00  0.00    +0.000 A 
ATOM     10  C   UNL     1       6.291   3.563  12.467  0.00  0.00    +0.000 A 
ATOM     11  N   UNL     1       6.067   3.618  13.808  0.00  0.00    +0.000 NA
ATOM     12  C   UNL     1       5.814   3.472  16.551  0.00  0.00    +0.000 C 
ATOM     13  C   UNL     1       4.323   3.825  16.745  0.00  0.00    +0.000 C 
ENDBRANCH   1   2
BRANCH   1  14
ATOM     14  C   UNL     1       2.361   4.787  19.308  0.00  0.00    +0.000 C 
BRANCH  14  15
ATOM     15  O   UNL     1       1.452   4.901  18.201  0.00  0.00    +0.000 OA
ATOM     16  H   UNL     1       1.592   4.130  17.625  0.00  0.00    +0.000 HD
ENDBRANCH  14  15
BRANCH  14  17
ATOM     17  C   UNL     1       1.899   5.801  20.374  0.00  0.00    +0.000 C 
BRANCH  17  18
ATOM     18  O   UNL     1       2.410   7.101  20.121  0.00  0.00    +0.000 OA
BRANCH  18  25
ATOM     19  C   UNL     1       2.024   9.138  17.697  0.00  0.00    +0.000 C 
ATOM     20  C   UNL     1       1.350   9.119  19.041  0.00  0.00    +0.000 A 
ATOM     21  C   UNL     1       0.417  10.156  19.275  0.00  0.00    +0.000 A 
ATOM     22  C   UNL     1      -0.290  10.262  20.466  0.00  0.00    +0.000 A 
ATOM     23  C   UNL     1      -0.081   9.327  21.466  0.00  0.00    +0.000 A 
ATOM     24  C   UNL     1       0.838   8.300  21.261  0.00  0.00    +0.000 A 
ATOM     25  C   UNL     1       1.566   8.178  20.064  0.00  0.00    +0.000 A 
ENDBRANCH  18  25
ENDBRANCH  17  18
ENDBRANCH  14  17
ENDBRANCH   1  14
TORSDOF 6
ENDMDL
MODEL 7
REMARK VINA RESULT:      -7.0      1.380      1.776
REMARK  Name = 
REMARK  7 active torsions:
REMARK  status: ('A' for Active; 'I' for Inactive)
REMARK    1  A    between atoms: C_1  and  C_2
REMARK    2  A    between atoms: C_7  and  O_8
REMARK    3  A    between atoms: O_8  and  C_9
REMARK    4  A    between atoms: C_9  and  C_10
REMARK    5  A    between atoms: C_10  and  O_11
REMARK    6  A    between atoms: C_10  and  C_12
REMARK    7  A    between atoms: C_12  and  N_13
REMARK                            x       y       z     vdW  Elec       q    Type
REMARK                         _______ _______ _______ _____ _____    ______ ____
ROOT
ATOM      1  C   UNL     1       7.660   6.179  17.519  0.00  0.00    +0.000 C 
ENDROOT
BRANCH   1   2
ATOM      2  N   UNL     1       6.741   5.162  18.057  0.00  0.00    +0.000 NA
ATOM      3  C   UNL     1       5.908   5.577  19.202  0.00  0.00    +0.000 C 
ATOM      4  C   UNL     1       4.455   6.060  18.936  0.00  0.00    +0.000 C 
ATOM      5  N   UNL     1       3.752   5.253  17.934  0.00  0.00    +0.000 N 
ATOM      6  C   UNL     1       2.878   4.249  18.339  0.00  0.00    +0.000 A 
ATOM      7  C   UNL     1       1.913   4.513  19.319  0.00  0.00    +0.000 A 
ATOM      8  C   UNL     1       0.978   3.533  19.683  0.00  0.00    +0.000 A 
ATOM      9  C   UNL     1       1.012   2.302  19.042  0.00  0.00    +0.000 A 
ATOM     10  C   UNL     1       1.977   2.112  18.075  0.00  0.00    +0.000 A 
ATOM     11  N   UNL     1       2.890   3.054  17.713  0.00  0.00    +0.000 NA
ATOM     12  C   UNL     1       4.549   5.022  16.719  0.00  0.00    +0.000 C 
ATOM     13  C   UNL     1       5.944   4.444  17.042  0.00  0.00    +0.000 C 
ENDBRANCH   1   2
BRANCH   1  14
ATOM     14  C   UNL     1       7.339   7.631  17.997  0.00  0.00    +0.000 C 
BRANCH  14  15
ATOM     15  O   UNL     1       6.788   8.436  16.941  0.00  0.00    +0.000 OA
ATOM     16  H   UNL     1       6.242   9.126  17.351  0.00  0.00    +0.000 HD
ENDBRANCH  14  15
BRANCH  14  17
ATOM     17  C   UNL     1       8.591   8.367  18.515  0.00  0.00    +0.000 C 
BRANCH  17  18
ATOM     18  O   UNL     1       8.437   9.777  18.454  0.00  0.00    +0.000 OA
BRANCH  18  25
ATOM     19  C   UNL     1       8.910  10.854  21.418  0.00  0.00    +0.000 C 
ATOM     20  C   UNL     1       9.704  11.123  20.171  0.00  0.00    +0.000 A 
ATOM     21  C   UNL     1      10.816  11.984  20.324  0.00  0.00    +0.000 A 
ATOM     22  C   UNL     1      11.648  12.315  19.262  0.00  0.00    +0.000 A 
ATOM     23  C   UNL     1      11.389  11.791  18.006  0.00  0.00    +0.000 A 
ATOM     24  C   UNL     1      10.295  10.947  17.830  0.00  0.00    +0.000 A 
ATOM     25  C   UNL     1       9.439  10.602  18.891  0.00  0.00    +0.000 A 
ENDBRANCH  18  25
ENDBRANCH  17  18
ENDBRANCH  14  17
ENDBRANCH   1  14
TORSDOF 6
ENDMDL
MODEL 8
REMARK VINA RESULT:      -6.9      1.218      1.674
REMARK  Name = 
REMARK  7 active torsions:
REMARK  status: ('A' for Active; 'I' for Inactive)
REMARK    1  A    between atoms: C_1  and  C_2
REMARK    2  A    between atoms: C_7  and  O_8
REMARK    3  A    between atoms: O_8  and  C_9
REMARK    4  A    between atoms: C_9  and  C_10
REMARK    5  A    between atoms: C_10  and  O_11
REMARK    6  A    between atoms: C_10  and  C_12
REMARK    7  A    between atoms: C_12  and  N_13
REMARK                            x       y       z     vdW  Elec       q    Type
REMARK                         _______ _______ _______ _____ _____    ______ ____
ROOT
ATOM      1  C   UNL     1       7.650   7.671  17.066  0.00  0.00    +0.000 C 
ENDROOT
BRANCH   1   2
ATOM      2  N   UNL     1       6.574   7.003  17.818  0.00  0.00    +0.000 NA
ATOM      3  C   UNL     1       5.254   6.952  17.161  0.00  0.00    +0.000 C 
ATOM      4  C   UNL     1       4.854   5.667  16.383  0.00  0.00    +0.000 C 
ATOM      5  N   UNL     1       5.241   4.430  17.070  0.00  0.00    +0.000 N 
ATOM      6  C   UNL     1       4.304   3.736  17.828  0.00  0.00    +0.000 A 
ATOM      7  C   UNL     1       3.036   3.463  17.299  0.00  0.00    +0.000 A 
ATOM      8  C   UNL     1       2.109   2.699  18.023  0.00  0.00    +0.000 A 
ATOM      9  C   UNL     1       2.475   2.200  19.266  0.00  0.00    +0.000 A 
ATOM     10  C   UNL     1       3.744   2.491  19.722  0.00  0.00    +0.000 A 
ATOM     11  N   UNL     1       4.652   3.231  19.030  0.00  0.00    +0.000 NA
ATOM     12  C   UNL     1       6.634   4.447  17.544  0.00  0.00    +0.000 C 
ATOM     13  C   UNL     1       6.941   5.695  18.398  0.00  0.00    +0.000 C 
ENDBRANCH   1   2
BRANCH   1  14
ATOM     14  C   UNL     1       8.505   8.653  17.930  0.00  0.00    +0.000 C 
BRANCH  14  15
ATOM     15  O   UNL     1       8.823   8.098  19.218  0.00  0.00    +0.000 OA
ATOM     16  H   UNL     1       8.642   8.781  19.885  0.00  0.00    +0.000 HD
ENDBRANCH  14  15
BRANCH  14  17
ATOM     17  C   UNL     1       7.782   9.991  18.184  0.00  0.00    +0.000 C 
BRANCH  17  18
ATOM     18  O   UNL     1       8.586  11.102  17.819  0.00  0.00    +0.000 OA
BRANCH  18  25
ATOM     19  C   UNL     1       8.974  11.203  20.983  0.00  0.00    +0.000 C 
ATOM     20  C   UNL     1       9.978  11.452  19.893  0.00  0.00    +0.000 A 
ATOM     21  C   UNL     1      11.282  11.791  20.326  0.00  0.00    +0.000 A 
ATOM     22  C   UNL     1      12.317  12.040  19.433  0.00  0.00    +0.000 A 
ATOM     23  C   UNL     1      12.075  11.958  18.072  0.00  0.00    +0.000 A 
ATOM     24  C   UNL     1      10.797  11.633  17.623  0.00  0.00    +0.000 A 
ATOM     25  C   UNL     1       9.735  11.381  18.510  0.00  0.00    +0.000 A 
ENDBRANCH  18  25
ENDBRANCH  17  18
ENDBRANCH  14  17
ENDBRANCH   1  14
TORSDOF 6
ENDMDL
MODEL 9
REMARK VINA RESULT:      -6.8      4.574      8.418
REMARK  Name = 
REMARK  7 active torsions:
REMARK  status: ('A' for Active; 'I' for Inactive)
REMARK    1  A    between atoms: C_1  and  C_2
REMARK    2  A    between atoms: C_7  and  O_8
REMARK    3  A    between atoms: O_8  and  C_9
REMARK    4  A    between atoms: C_9  and  C_10
REMARK    5  A    between atoms: C_10  and  O_11
REMARK    6  A    between atoms: C_10  and  C_12
REMARK    7  A    between atoms: C_12  and  N_13
REMARK                            x       y       z     vdW  Elec       q    Type
REMARK                         _______ _______ _______ _____ _____    ______ ____
ROOT
ATOM      1  C   UNL     1       3.777   6.281  18.899  0.00  0.00    +0.000 C 
ENDROOT
BRANCH   1   2
ATOM      2  N   UNL     1       3.968   6.122  17.448  0.00  0.00    +0.000 NA
ATOM      3  C   UNL     1       5.007   6.968  16.830  0.00  0.00    +0.000 C 
ATOM      4  C   UNL     1       6.423   6.369  16.600  0.00  0.00    +0.000 C 
ATOM      5  N   UNL     1       6.393   4.987  16.109  0.00  0.00    +0.000 N 
ATOM      6  C   UNL     1       6.541   4.730  14.750  0.00  0.00    +0.000 A 
ATOM      7  C   UNL     1       7.578   5.337  14.030  0.00  0.00    +0.000 A 
ATOM      8  C   UNL     1       7.784   5.028  12.678  0.00  0.00    +0.000 A 
ATOM      9  C   UNL     1       6.956   4.096  12.068  0.00  0.00    +0.000 A 
ATOM     10  C   UNL     1       5.965   3.522  12.838  0.00  0.00    +0.000 A 
ATOM     11  N   UNL     1       5.754   3.813  14.150  0.00  0.00    +0.000 NA
ATOM     12  C   UNL     1       5.485   4.123  16.878  0.00  0.00    +0.000 C 
ATOM     13  C   UNL     1       4.066   4.723  16.984  0.00  0.00    +0.000 C 
ENDBRANCH   1   2
BRANCH   1  14
ATOM     14  C   UNL     1       2.323   6.692  19.299  0.00  0.00    +0.000 C 
BRANCH  14  15
ATOM     15  O   UNL     1       2.170   8.118  19.382  0.00  0.00    +0.000 OA
ATOM     16  H   UNL     1       3.029   8.519  19.169  0.00  0.00    +0.000 HD
ENDBRANCH  14  15
BRANCH  14  17
ATOM     17  C   UNL     1       1.907   6.115  20.667  0.00  0.00    +0.000 C 
BRANCH  17  18
ATOM     18  O   UNL     1       2.566   4.888  20.944  0.00  0.00    +0.000 OA
BRANCH  18  25
ATOM     19  C   UNL     1       4.586   2.563  20.120  0.00  0.00    +0.000 C 
ATOM     20  C   UNL     1       3.128   2.716  19.792  0.00  0.00    +0.000 A 
ATOM     21  C   UNL     1       2.566   1.691  18.995  0.00  0.00    +0.000 A 
ATOM     22  C   UNL     1       1.229   1.693  18.620  0.00  0.00    +0.000 A 
ATOM     23  C   UNL     1       0.408   2.729  19.033  0.00  0.00    +0.000 A 
ATOM     24  C   UNL     1       0.940   3.753  19.813  0.00  0.00    +0.000 A 
ATOM     25  C   UNL     1       2.292   3.772  20.200  0.00  0.00    +0.000 A 
ENDBRANCH  18  25
ENDBRANCH  17  18
ENDBRANCH  14  17
ENDBRANCH   1  14
TORSDOF 6
ENDMDL
