MODEL 1
REMARK VINA RESULT:      -7.3      0.000      0.000
REMARK  Name = 
REMARK  13 active torsions:
REMARK  status: ('A' for Active; 'I' for Inactive)
REMARK    1  A    between atoms: C_1  and  C_2
REMARK    2  A    between atoms: C_2  and  C_3
REMARK    3  A    between atoms: C_3  and  C_4
REMARK    4  A    between atoms: C_3  and  C_5
REMARK    5  A    between atoms: C_5  and  N_6
REMARK    6  A    between atoms: C_5  and  C_7
REMARK    7  A    between atoms: N_9  and  S_10
REMARK    8  A    between atoms: S_10  and  O_13
REMARK    9  A    between atoms: O_13  and  C_14
REMARK   10  A    between atoms: C_14  and  C_15
REMARK   11  A    between atoms: C_17  and  N_18
REMARK   12  A    between atoms: C_26  and  O_27
REMARK   13  A    between atoms: C_28  and  O_29
REMARK                            x       y       z     vdW  Elec       q    Type
REMARK                         _______ _______ _______ _____ _____    ______ ____
ROOT
ATOM      1  C   UNL     1       3.914   3.564  19.018  0.00  0.00    +0.000 C 
ATOM      2  O   UNL     1       4.036   4.966  19.353  0.00  0.00    +0.000 OA
ATOM      3  C   UNL     1       2.777   5.433  19.887  0.00  0.00    +0.000 C 
ATOM      4  C   UNL     1       1.721   4.374  19.539  0.00  0.00    +0.000 C 
ATOM      5  C   UNL     1       2.557   3.104  19.542  0.00  0.00    +0.000 C 
ENDROOT
BRANCH   3   6
ATOM      6  N   UNL     1       2.469   6.766  19.375  0.00  0.00    +0.000 N 
ATOM      7  C   UNL     1       2.911   7.173  18.133  0.00  0.00    +0.000 A 
ATOM      8  C   UNL     1       2.645   8.387  17.645  0.00  0.00    +0.000 A 
ATOM      9  C   UNL     1       1.848   9.316  18.458  0.00  0.00    +0.000 A 
ATOM     10  O   UNL     1       1.637  10.461  18.078  0.00  0.00    +0.000 OA
ATOM     11  N   UNL     1       1.379   8.818  19.637  0.00  0.00    +0.000 N 
ATOM     12  C   UNL     1       1.680   7.591  20.173  0.00  0.00    +0.000 A 
ATOM     13  O   UNL     1       1.281   7.297  21.296  0.00  0.00    +0.000 OA
ATOM     14  H   UNL     1       0.840   9.440  20.219  0.00  0.00    +0.000 HD
ENDBRANCH   3   6
BRANCH   4  15
ATOM     15  O   UNL     1       0.646   4.297  20.468  0.00  0.00    +0.000 OA
ATOM     16  H   UNL     1      -0.111   4.780  20.069  0.00  0.00    +0.000 HD
ENDBRANCH   4  15
BRANCH   5  17
ATOM     17  O   UNL     1       2.670   2.628  20.901  0.00  0.00    +0.000 OA
ATOM     18  H   UNL     1       2.493   1.669  20.924  0.00  0.00    +0.000 HD
ENDBRANCH   5  17
BRANCH   1  19
ATOM     19  C   UNL     1       4.120   3.369  17.512  0.00  0.00    +0.000 C 
BRANCH  19  20
ATOM     20  O   UNL     1       4.196   4.607  16.825  0.00  0.00    +0.000 OA
BRANCH  20  21
ATOM     21  S   UNL     1       5.631   5.005  16.163  0.00  0.00    +0.000 S 
ATOM     22  O   UNL     1       6.684   4.413  16.948  0.00  0.00    +0.000 OA
ATOM     23  O   UNL     1       5.614   6.430  15.906  0.00  0.00    +0.000 OA
BRANCH  21  26
ATOM     24  C   UNL     1       6.591   4.576  13.703  0.00  0.00    +0.000 C 
ATOM     25  O   UNL     1       7.604   5.210  13.967  0.00  0.00    +0.000 OA
ATOM     26  N   UNL     1       5.618   4.295  14.672  0.00  0.00    +0.000 N 
ATOM     27  H   UNL     1       4.749   3.822  14.452  0.00  0.00    +0.000 HD
BRANCH  24  28
ATOM     28  C   UNL     1       6.285   4.074  12.266  0.00  0.00    +0.000 C 
BRANCH  28  29
ATOM     29  N   UNL     1       7.563   3.783  11.571  0.00  0.00    +0.000 NA
ATOM     30  H   UNL     1       7.840   2.824  11.805  0.00  0.00    +0.000 HD
ATOM     31  H   UNL     1       8.306   4.356  11.973  0.00  0.00    +0.000 HD
ENDBRANCH  28  29
BRANCH  28  32
ATOM     32  C   UNL     1       5.336   2.841  12.256  0.00  0.00    +0.000 C 
ATOM     33  C   UNL     1       5.907   1.670  11.443  0.00  0.00    +0.000 C 
BRANCH  32  35
ATOM     34  C   UNL     1       3.893   3.900  10.355  0.00  0.00    +0.000 C 
ATOM     35  C   UNL     1       3.939   3.278  11.743  0.00  0.00    +0.000 C 
ENDBRANCH  32  35
ENDBRANCH  28  32
ENDBRANCH  24  28
ENDBRANCH  21  26
ENDBRANCH  20  21
ENDBRANCH  19  20
ENDBRANCH   1  19
TORSDOF 11
ENDMDL
MODEL 2
REMARK VINA RESULT:      -7.2      3.441      8.209
REMARK  Name = 
REMARK  13 active torsions:
REMARK  status: ('A' for Active; 'I' for Inactive)
REMARK    1  A    between atoms: C_1  and  C_2
REMARK    2  A    between atoms: C_2  and  C_3
REMARK    3  A    between atoms: C_3  and  C_4
REMARK    4  A    between atoms: C_3  and  C_5
REMARK    5  A    between atoms: C_5  and  N_6
REMARK    6  A    between atoms: C_5  and  C_7
REMARK    7  A    between atoms: N_9  and  S_10
REMARK    8  A    between atoms: S_10  and  O_13
REMARK    9  A    between atoms: O_13  and  C_14
REMARK   10  A    between atoms: C_14  and  C_15
REMARK   11  A    between atoms: C_17  and  N_18
REMARK   12  A    between atoms: C_26  and  O_27
REMARK   13  A    between atoms: C_28  and  O_29
REMARK                            x       y       z     vdW  Elec       q    Type
REMARK                         _______ _______ _______ _____ _____    ______ ____
ROOT
ATOM      1  C   UNL     1       1.492   6.144  19.971  0.00  0.00    +0.000 C 
ATOM      2  O   UNL     1       2.053   5.981  18.647  0.00  0.00    +0.000 OA
ATOM      3  C   UNL     1       2.859   4.781  18.623  0.00  0.00    +0.000 C 
ATOM      4  C   UNL     1       3.100   4.372  20.083  0.00  0.00    +0.000 C 
ATOM      5  C   UNL     1       1.830   4.877  20.750  0.00  0.00    +0.000 C 
ENDROOT
BRANCH   3   6
ATOM      6  N   UNL     1       4.085   5.005  17.861  0.00  0.00    +0.000 N 
ATOM      7  C   UNL     1       4.626   6.269  17.737  0.00  0.00    +0.000 A 
ATOM      8  C   UNL     1       5.743   6.499  17.043  0.00  0.00    +0.000 A 
ATOM      9  C   UNL     1       6.421   5.366  16.398  0.00  0.00    +0.000 A 
ATOM     10  O   UNL     1       7.411   5.542  15.699  0.00  0.00    +0.000 OA
ATOM     11  N   UNL     1       5.875   4.139  16.631  0.00  0.00    +0.000 N 
ATOM     12  C   UNL     1       4.704   3.890  17.303  0.00  0.00    +0.000 A 
ATOM     13  O   UNL     1       4.257   2.748  17.355  0.00  0.00    +0.000 OA
ATOM     14  H   UNL     1       6.314   3.347  16.190  0.00  0.00    +0.000 HD
ENDBRANCH   3   6
BRANCH   4  15
ATOM     15  O   UNL     1       3.274   2.973  20.274  0.00  0.00    +0.000 OA
ATOM     16  H   UNL     1       2.488   2.532  19.882  0.00  0.00    +0.000 HD
ENDBRANCH   4  15
BRANCH   5  17
ATOM     17  O   UNL     1       0.795   3.884  20.583  0.00  0.00    +0.000 OA
ATOM     18  H   UNL     1       0.684   3.688  19.633  0.00  0.00    +0.000 HD
ENDBRANCH   5  17
BRANCH   1  19
ATOM     19  C   UNL     1       2.010   7.442  20.600  0.00  0.00    +0.000 C 
BRANCH  19  20
ATOM     20  O   UNL     1       1.362   8.584  20.064  0.00  0.00    +0.000 OA
BRANCH  20  21
ATOM     21  S   UNL     1       0.405   9.437  21.069  0.00  0.00    +0.000 S 
ATOM     22  O   UNL     1       1.173  10.517  21.635  0.00  0.00    +0.000 OA
ATOM     23  O   UNL     1      -0.284   8.493  21.924  0.00  0.00    +0.000 OA
BRANCH  21  26
ATOM     24  C   UNL     1      -0.467  10.953  19.044  0.00  0.00    +0.000 C 
ATOM     25  O   UNL     1       0.682  11.148  18.670  0.00  0.00    +0.000 OA
ATOM     26  N   UNL     1      -0.767  10.075  20.094  0.00  0.00    +0.000 N 
ATOM     27  H   UNL     1      -1.708   9.949  20.450  0.00  0.00    +0.000 HD
BRANCH  24  28
ATOM     28  C   UNL     1      -1.675  11.697  18.414  0.00  0.00    +0.000 C 
BRANCH  28  29
ATOM     29  N   UNL     1      -1.181  12.634  17.376  0.00  0.00    +0.000 NA
ATOM     30  H   UNL     1      -1.237  12.161  16.468  0.00  0.00    +0.000 HD
ATOM     31  H   UNL     1      -0.180  12.789  17.508  0.00  0.00    +0.000 HD
ENDBRANCH  28  29
BRANCH  28  32
ATOM     32  C   UNL     1      -2.742  10.721  17.838  0.00  0.00    +0.000 C 
ATOM     33  C   UNL     1      -2.225   9.939  16.622  0.00  0.00    +0.000 C 
BRANCH  32  35
ATOM     34  C   UNL     1      -5.332  10.953  18.076  0.00  0.00    +0.000 C 
ATOM     35  C   UNL     1      -4.035  11.514  17.513  0.00  0.00    +0.000 C 
ENDBRANCH  32  35
ENDBRANCH  28  32
ENDBRANCH  24  28
ENDBRANCH  21  26
ENDBRANCH  20  21
ENDBRANCH  19  20
ENDBRANCH   1  19
TORSDOF 11
ENDMDL
MODEL 3
REMARK VINA RESULT:      -7.2      1.261      1.301
REMARK  Name = 
REMARK  13 active torsions:
REMARK  status: ('A' for Active; 'I' for Inactive)
REMARK    1  A    between atoms: C_1  and  C_2
REMARK    2  A    between atoms: C_2  and  C_3
REMARK    3  A    between atoms: C_3  and  C_4
REMARK    4  A    between atoms: C_3  and  C_5
REMARK    5  A    between atoms: C_5  and  N_6
REMARK    6  A    between atoms: C_5  and  C_7
REMARK    7  A    between atoms: N_9  and  S_10
REMARK    8  A    between atoms: S_10  and  O_13
REMARK    9  A    between atoms: O_13  and  C_14
REMARK   10  A    between atoms: C_14  and  C_15
REMARK   11  A    between atoms: C_17  and  N_18
REMARK   12  A    between atoms: C_26  and  O_27
REMARK   13  A    between atoms: C_28  and  O_29
REMARK                            x       y       z     vdW  Elec       q    Type
REMARK                         _______ _______ _______ _____ _____    ______ ____
ROOT
ATOM      1  C   UNL     1       4.406   3.995  19.109  0.00  0.00    +0.000 C 
ATOM      2  O   UNL     1       3.785   5.127  19.762  0.00  0.00    +0.000 OA
ATOM      3  C   UNL     1       2.483   5.353  19.176  0.00  0.00    +0.000 C 
ATOM      4  C   UNL     1       2.437   4.556  17.864  0.00  0.00    +0.000 C 
ATOM      5  C   UNL     1       3.349   3.385  18.193  0.00  0.00    +0.000 C 
ENDROOT
BRANCH   3   6
ATOM      6  N   UNL     1       2.241   6.783  19.008  0.00  0.00    +0.000 N 
ATOM      7  C   UNL     1       2.537   7.422  17.821  0.00  0.00    +0.000 A 
ATOM      8  C   UNL     1       2.328   8.729  17.644  0.00  0.00    +0.000 A 
ATOM      9  C   UNL     1       1.756   9.509  18.751  0.00  0.00    +0.000 A 
ATOM     10  O   UNL     1       1.609  10.721  18.654  0.00  0.00    +0.000 OA
ATOM     11  N   UNL     1       1.415   8.797  19.862  0.00  0.00    +0.000 N 
ATOM     12  C   UNL     1       1.664   7.465  20.076  0.00  0.00    +0.000 A 
ATOM     13  O   UNL     1       1.405   6.959  21.165  0.00  0.00    +0.000 OA
ATOM     14  H   UNL     1       1.032   9.311  20.640  0.00  0.00    +0.000 HD
ENDBRANCH   3   6
BRANCH   4  15
ATOM     15  O   UNL     1       1.133   4.120  17.495  0.00  0.00    +0.000 OA
ATOM     16  H   UNL     1       0.504   4.806  17.809  0.00  0.00    +0.000 HD
ENDBRANCH   4  15
BRANCH   5  17
ATOM     17  O   UNL     1       2.581   2.384  18.895  0.00  0.00    +0.000 OA
ATOM     18  H   UNL     1       1.934   2.823  19.480  0.00  0.00    +0.000 HD
ENDBRANCH   5  17
BRANCH   1  19
ATOM     19  C   UNL     1       5.689   4.441  18.401  0.00  0.00    +0.000 C 
BRANCH  19  20
ATOM     20  O   UNL     1       5.423   4.972  17.113  0.00  0.00    +0.000 OA
BRANCH  20  21
ATOM     21  S   UNL     1       6.666   5.673  16.325  0.00  0.00    +0.000 S 
ATOM     22  O   UNL     1       7.880   4.973  16.658  0.00  0.00    +0.000 OA
ATOM     23  O   UNL     1       6.558   7.103  16.524  0.00  0.00    +0.000 OA
BRANCH  21  26
ATOM     24  C   UNL     1       6.181   4.151  14.179  0.00  0.00    +0.000 C 
ATOM     25  O   UNL     1       6.088   3.154  14.883  0.00  0.00    +0.000 OA
ATOM     26  N   UNL     1       6.337   5.432  14.723  0.00  0.00    +0.000 N 
ATOM     27  H   UNL     1       6.473   6.257  14.150  0.00  0.00    +0.000 HD
BRANCH  24  28
ATOM     28  C   UNL     1       6.176   4.066  12.628  0.00  0.00    +0.000 C 
BRANCH  28  29
ATOM     29  N   UNL     1       7.396   4.726  12.103  0.00  0.00    +0.000 NA
ATOM     30  H   UNL     1       7.189   5.722  11.974  0.00  0.00    +0.000 HD
ATOM     31  H   UNL     1       7.581   4.391  11.156  0.00  0.00    +0.000 HD
ENDBRANCH  28  29
BRANCH  28  32
ATOM     32  C   UNL     1       6.052   2.603  12.112  0.00  0.00    +0.000 C 
ATOM     33  C   UNL     1       7.294   2.150  11.331  0.00  0.00    +0.000 C 
BRANCH  32  35
ATOM     34  C   UNL     1       3.893   3.716  11.155  0.00  0.00    +0.000 C 
ATOM     35  C   UNL     1       4.756   2.469  11.271  0.00  0.00    +0.000 C 
ENDBRANCH  32  35
ENDBRANCH  28  32
ENDBRANCH  24  28
ENDBRANCH  21  26
ENDBRANCH  20  21
ENDBRANCH  19  20
ENDBRANCH   1  19
TORSDOF 11
ENDMDL
MODEL 4
REMARK VINA RESULT:      -7.2      1.194      1.363
REMARK  Name = 
REMARK  13 active torsions:
REMARK  status: ('A' for Active; 'I' for Inactive)
REMARK    1  A    between atoms: C_1  and  C_2
REMARK    2  A    between atoms: C_2  and  C_3
REMARK    3  A    between atoms: C_3  and  C_4
REMARK    4  A    between atoms: C_3  and  C_5
REMARK    5  A    between atoms: C_5  and  N_6
REMARK    6  A    between atoms: C_5  and  C_7
REMARK    7  A    between atoms: N_9  and  S_10
REMARK    8  A    between atoms: S_10  and  O_13
REMARK    9  A    between atoms: O_13  and  C_14
REMARK   10  A    between atoms: C_14  and  C_15
REMARK   11  A    between atoms: C_17  and  N_18
REMARK   12  A    between atoms: C_26  and  O_27
REMARK   13  A    between atoms: C_28  and  O_29
REMARK                            x       y       z     vdW  Elec       q    Type
REMARK                         _______ _______ _______ _____ _____    ______ ____
ROOT
ATOM      1  C   UNL     1       4.155   4.216  19.242  0.00  0.00    +0.000 C 
ATOM      2  O   UNL     1       4.033   5.600  19.646  0.00  0.00    +0.000 OA
ATOM      3  C   UNL     1       2.671   5.851  20.059  0.00  0.00    +0.000 C 
ATOM      4  C   UNL     1       1.824   4.674  19.555  0.00  0.00    +0.000 C 
ATOM      5  C   UNL     1       2.834   3.538  19.597  0.00  0.00    +0.000 C 
ENDROOT
BRANCH   3   6
ATOM      6  N   UNL     1       2.223   7.153  19.573  0.00  0.00    +0.000 N 
ATOM      7  C   UNL     1       2.466   7.552  18.274  0.00  0.00    +0.000 A 
ATOM      8  C   UNL     1       2.070   8.738  17.807  0.00  0.00    +0.000 A 
ATOM      9  C   UNL     1       1.343   9.644  18.707  0.00  0.00    +0.000 A 
ATOM     10  O   UNL     1       1.019  10.767  18.340  0.00  0.00    +0.000 OA
ATOM     11  N   UNL     1       1.069   9.152  19.948  0.00  0.00    +0.000 N 
ATOM     12  C   UNL     1       1.507   7.955  20.458  0.00  0.00    +0.000 A 
ATOM     13  O   UNL     1       1.284   7.669  21.631  0.00  0.00    +0.000 OA
ATOM     14  H   UNL     1       0.582   9.759  20.588  0.00  0.00    +0.000 HD
ENDBRANCH   3   6
BRANCH   4  15
ATOM     15  O   UNL     1       0.684   4.392  20.359  0.00  0.00    +0.000 OA
ATOM     16  H   UNL     1      -0.101   4.705  19.859  0.00  0.00    +0.000 HD
ENDBRANCH   4  15
BRANCH   5  17
ATOM     17  O   UNL     1       2.878   3.007  20.939  0.00  0.00    +0.000 OA
ATOM     18  H   UNL     1       2.512   3.665  21.560  0.00  0.00    +0.000 HD
ENDBRANCH   5  17
BRANCH   1  19
ATOM     19  C   UNL     1       4.538   4.137  17.760  0.00  0.00    +0.000 C 
BRANCH  19  20
ATOM     20  O   UNL     1       5.878   3.706  17.584  0.00  0.00    +0.000 OA
BRANCH  20  21
ATOM     21  S   UNL     1       7.021   4.860  17.453  0.00  0.00    +0.000 S 
ATOM     22  O   UNL     1       8.188   4.444  18.189  0.00  0.00    +0.000 OA
ATOM     23  O   UNL     1       6.389   6.134  17.728  0.00  0.00    +0.000 OA
BRANCH  21  26
ATOM     24  C   UNL     1       6.513   5.418  14.886  0.00  0.00    +0.000 C 
ATOM     25  O   UNL     1       5.507   6.040  15.200  0.00  0.00    +0.000 OA
ATOM     26  N   UNL     1       7.395   4.900  15.844  0.00  0.00    +0.000 N 
ATOM     27  H   UNL     1       8.200   4.334  15.597  0.00  0.00    +0.000 HD
BRANCH  24  28
ATOM     28  C   UNL     1       6.866   5.118  13.404  0.00  0.00    +0.000 C 
BRANCH  28  29
ATOM     29  N   UNL     1       8.313   5.362  13.190  0.00  0.00    +0.000 NA
ATOM     30  H   UNL     1       8.744   5.543  14.102  0.00  0.00    +0.000 HD
ATOM     31  H   UNL     1       8.438   6.239  12.683  0.00  0.00    +0.000 HD
ENDBRANCH  28  29
BRANCH  28  32
ATOM     32  C   UNL     1       6.461   3.677  12.976  0.00  0.00    +0.000 C 
ATOM     33  C   UNL     1       7.214   3.205  11.723  0.00  0.00    +0.000 C 
BRANCH  32  35
ATOM     34  C   UNL     1       4.426   3.205  11.409  0.00  0.00    +0.000 C 
ATOM     35  C   UNL     1       4.923   3.616  12.787  0.00  0.00    +0.000 C 
ENDBRANCH  32  35
ENDBRANCH  28  32
ENDBRANCH  24  28
ENDBRANCH  21  26
ENDBRANCH  20  21
ENDBRANCH  19  20
ENDBRANCH   1  19
TORSDOF 11
ENDMDL
MODEL 5
REMARK VINA RESULT:      -7.2      1.536      1.753
REMARK  Name = 
REMARK  13 active torsions:
REMARK  status: ('A' for Active; 'I' for Inactive)
REMARK    1  A    between atoms: C_1  and  C_2
REMARK    2  A    between atoms: C_2  and  C_3
REMARK    3  A    between atoms: C_3  and  C_4
REMARK    4  A    between atoms: C_3  and  C_5
REMARK    5  A    between atoms: C_5  and  N_6
REMARK    6  A    between atoms: C_5  and  C_7
REMARK    7  A    between atoms: N_9  and  S_10
REMARK    8  A    between atoms: S_10  and  O_13
REMARK    9  A    between atoms: O_13  and  C_14
REMARK   10  A    between atoms: C_14  and  C_15
REMARK   11  A    between atoms: C_17  and  N_18
REMARK   12  A    between atoms: C_26  and  O_27
REMARK   13  A    between atoms: C_28  and  O_29
REMARK                            x       y       z     vdW  Elec       q    Type
REMARK                         _______ _______ _______ _____ _____    ______ ____
ROOT
ATOM      1  C   UNL     1       4.222   4.529  19.809  0.00  0.00    +0.000 C 
ATOM      2  O   UNL     1       3.400   5.624  20.278  0.00  0.00    +0.000 OA
ATOM      3  C   UNL     1       2.290   5.801  19.369  0.00  0.00    +0.000 C 
ATOM      4  C   UNL     1       2.627   5.020  18.090  0.00  0.00    +0.000 C 
ATOM      5  C   UNL     1       3.473   3.886  18.646  0.00  0.00    +0.000 C 
ENDROOT
BRANCH   3   6
ATOM      6  N   UNL     1       2.036   7.222  19.145  0.00  0.00    +0.000 N 
ATOM      7  C   UNL     1       2.347   7.821  17.941  0.00  0.00    +0.000 A 
ATOM      8  C   UNL     1       2.127   9.118  17.714  0.00  0.00    +0.000 A 
ATOM      9  C   UNL     1       1.526   9.930  18.781  0.00  0.00    +0.000 A 
ATOM     10  O   UNL     1       1.368  11.136  18.639  0.00  0.00    +0.000 OA
ATOM     11  N   UNL     1       1.172   9.255  19.911  0.00  0.00    +0.000 N 
ATOM     12  C   UNL     1       1.431   7.934  20.177  0.00  0.00    +0.000 A 
ATOM     13  O   UNL     1       1.157   7.465  21.279  0.00  0.00    +0.000 OA
ATOM     14  H   UNL     1       0.768   9.792  20.662  0.00  0.00    +0.000 HD
ENDBRANCH   3   6
BRANCH   4  15
ATOM     15  O   UNL     1       1.488   4.532  17.390  0.00  0.00    +0.000 OA
ATOM     16  H   UNL     1       1.013   5.317  17.039  0.00  0.00    +0.000 HD
ENDBRANCH   4  15
BRANCH   5  17
ATOM     17  O   UNL     1       2.594   2.843  19.120  0.00  0.00    +0.000 OA
ATOM     18  H   UNL     1       2.599   2.834  20.096  0.00  0.00    +0.000 HD
ENDBRANCH   5  17
BRANCH   1  19
ATOM     19  C   UNL     1       5.625   5.041  19.465  0.00  0.00    +0.000 C 
BRANCH  19  20
ATOM     20  O   UNL     1       5.763   5.310  18.079  0.00  0.00    +0.000 OA
BRANCH  20  21
ATOM     21  S   UNL     1       7.271   5.563  17.516  0.00  0.00    +0.000 S 
ATOM     22  O   UNL     1       8.067   4.391  17.779  0.00  0.00    +0.000 OA
ATOM     23  O   UNL     1       7.699   6.866  17.981  0.00  0.00    +0.000 OA
BRANCH  21  26
ATOM     24  C   UNL     1       6.566   4.696  15.085  0.00  0.00    +0.000 C 
ATOM     25  O   UNL     1       6.043   3.702  15.570  0.00  0.00    +0.000 OA
ATOM     26  N   UNL     1       7.088   5.724  15.882  0.00  0.00    +0.000 N 
ATOM     27  H   UNL     1       7.574   6.524  15.493  0.00  0.00    +0.000 HD
BRANCH  24  28
ATOM     28  C   UNL     1       6.731   4.874  13.552  0.00  0.00    +0.000 C 
BRANCH  28  29
ATOM     29  N   UNL     1       8.129   5.273  13.257  0.00  0.00    +0.000 NA
ATOM     30  H   UNL     1       8.237   6.262  13.506  0.00  0.00    +0.000 HD
ATOM     31  H   UNL     1       8.280   5.258  12.247  0.00  0.00    +0.000 HD
ENDBRANCH  28  29
BRANCH  28  32
ATOM     32  C   UNL     1       6.323   3.598  12.758  0.00  0.00    +0.000 C 
ATOM     33  C   UNL     1       7.198   3.378  11.515  0.00  0.00    +0.000 C 
BRANCH  32  35
ATOM     34  C   UNL     1       4.370   2.911  11.167  0.00  0.00    +0.000 C 
ATOM     35  C   UNL     1       4.816   3.682  12.401  0.00  0.00    +0.000 C 
ENDBRANCH  32  35
ENDBRANCH  28  32
ENDBRANCH  24  28
ENDBRANCH  21  26
ENDBRANCH  20  21
ENDBRANCH  19  20
ENDBRANCH   1  19
TORSDOF 11
ENDMDL
MODEL 6
REMARK VINA RESULT:      -7.0      3.090      7.422
REMARK  Name = 
REMARK  13 active torsions:
REMARK  status: ('A' for Active; 'I' for Inactive)
REMARK    1  A    between atoms: C_1  and  C_2
REMARK    2  A    between atoms: C_2  and  C_3
REMARK    3  A    between atoms: C_3  and  C_4
REMARK    4  A    between atoms: C_3  and  C_5
REMARK    5  A    between atoms: C_5  and  N_6
REMARK    6  A    between atoms: C_5  and  C_7
REMARK    7  A    between atoms: N_9  and  S_10
REMARK    8  A    between atoms: S_10  and  O_13
REMARK    9  A    between atoms: O_13  and  C_14
REMARK   10  A    between atoms: C_14  and  C_15
REMARK   11  A    between atoms: C_17  and  N_18
REMARK   12  A    between atoms: C_26  and  O_27
REMARK   13  A    between atoms: C_28  and  O_29
REMARK                            x       y       z     vdW  Elec       q    Type
REMARK                         _______ _______ _______ _____ _____    ______ ____
ROOT
ATOM      1  C   UNL     1       2.349   3.125  17.615  0.00  0.00    +0.000 C 
ATOM      2  O   UNL     1       3.455   3.581  16.801  0.00  0.00    +0.000 OA
ATOM      3  C   UNL     1       4.691   3.333  17.507  0.00  0.00    +0.000 C 
ATOM      4  C   UNL     1       4.324   3.040  18.969  0.00  0.00    +0.000 C 
ATOM      5  C   UNL     1       2.956   2.396  18.810  0.00  0.00    +0.000 C 
ENDROOT
BRANCH   3   6
ATOM      6  N   UNL     1       5.607   4.459  17.342  0.00  0.00    +0.000 N 
ATOM      7  C   UNL     1       5.818   5.363  18.364  0.00  0.00    +0.000 A 
ATOM      8  C   UNL     1       6.647   6.401  18.235  0.00  0.00    +0.000 A 
ATOM      9  C   UNL     1       7.363   6.581  16.965  0.00  0.00    +0.000 A 
ATOM     10  O   UNL     1       8.082   7.556  16.782  0.00  0.00    +0.000 OA
ATOM     11  N   UNL     1       7.167   5.607  16.031  0.00  0.00    +0.000 N 
ATOM     12  C   UNL     1       6.286   4.559  16.130  0.00  0.00    +0.000 A 
ATOM     13  O   UNL     1       6.120   3.805  15.175  0.00  0.00    +0.000 OA
ATOM     14  H   UNL     1       7.637   5.714  15.147  0.00  0.00    +0.000 HD
ENDBRANCH   3   6
BRANCH   4  15
ATOM     15  O   UNL     1       5.237   2.176  19.636  0.00  0.00    +0.000 OA
ATOM     16  H   UNL     1       5.773   1.736  18.940  0.00  0.00    +0.000 HD
ENDBRANCH   4  15
BRANCH   5  17
ATOM     17  O   UNL     1       3.136   0.994  18.514  0.00  0.00    +0.000 OA
ATOM     18  H   UNL     1       3.962   0.679  18.927  0.00  0.00    +0.000 HD
ENDBRANCH   5  17
BRANCH   1  19
ATOM     19  C   UNL     1       1.446   4.310  17.977  0.00  0.00    +0.000 C 
BRANCH  19  20
ATOM     20  O   UNL     1       2.191   5.501  18.171  0.00  0.00    +0.000 OA
BRANCH  20  21
ATOM     21  S   UNL     1       2.242   6.110  19.682  0.00  0.00    +0.000 S 
ATOM     22  O   UNL     1       3.607   6.089  20.144  0.00  0.00    +0.000 OA
ATOM     23  O   UNL     1       1.193   5.469  20.447  0.00  0.00    +0.000 OA
BRANCH  21  26
ATOM     24  C   UNL     1       1.345   8.453  20.612  0.00  0.00    +0.000 C 
ATOM     25  O   UNL     1       1.492   8.072  21.766  0.00  0.00    +0.000 OA
ATOM     26  N   UNL     1       1.762   7.682  19.518  0.00  0.00    +0.000 N 
ATOM     27  H   UNL     1       1.594   7.960  18.558  0.00  0.00    +0.000 HD
BRANCH  24  28
ATOM     28  C   UNL     1       0.646   9.796  20.271  0.00  0.00    +0.000 C 
BRANCH  28  29
ATOM     29  N   UNL     1       1.096  10.835  21.229  0.00  0.00    +0.000 NA
ATOM     30  H   UNL     1       1.482  10.362  22.052  0.00  0.00    +0.000 HD
ATOM     31  H   UNL     1       0.283  11.335  21.593  0.00  0.00    +0.000 HD
ENDBRANCH  28  29
BRANCH  28  32
ATOM     32  C   UNL     1       0.888  10.236  18.797  0.00  0.00    +0.000 C 
ATOM     33  C   UNL     1       1.549  11.619  18.700  0.00  0.00    +0.000 C 
BRANCH  32  35
ATOM     34  C   UNL     1      -1.680  10.703  18.753  0.00  0.00    +0.000 C 
ATOM     35  C   UNL     1      -0.454  10.177  18.022  0.00  0.00    +0.000 C 
ENDBRANCH  32  35
ENDBRANCH  28  32
ENDBRANCH  24  28
ENDBRANCH  21  26
ENDBRANCH  20  21
ENDBRANCH  19  20
ENDBRANCH   1  19
TORSDOF 11
ENDMDL
MODEL 7
REMARK VINA RESULT:      -7.0      3.276      6.807
REMARK  Name = 
REMARK  13 active torsions:
REMARK  status: ('A' for Active; 'I' for Inactive)
REMARK    1  A    between atoms: C_1  and  C_2
REMARK    2  A    between atoms: C_2  and  C_3
REMARK    3  A    between atoms: C_3  and  C_4
REMARK    4  A    between atoms: C_3  and  C_5
REMARK    5  A    between atoms: C_5  and  N_6
REMARK    6  A    between atoms: C_5  and  C_7
REMARK    7  A    between atoms: N_9  and  S_10
REMARK    8  A    between atoms: S_10  and  O_13
REMARK    9  A    between atoms: O_13  and  C_14
REMARK   10  A    between atoms: C_14  and  C_15
REMARK   11  A    between atoms: C_17  and  N_18
REMARK   12  A    between atoms: C_26  and  O_27
REMARK   13  A    between atoms: C_28  and  O_29
REMARK                            x       y       z     vdW  Elec       q    Type
REMARK                         _______ _______ _______ _____ _____    ______ ____
ROOT
ATOM      1  C   UNL     1       2.495   3.468  17.483  0.00  0.00    +0.000 C 
ATOM      2  O   UNL     1       3.654   4.032  16.824  0.00  0.00    +0.000 OA
ATOM      3  C   UNL     1       4.835   3.705  17.589  0.00  0.00    +0.000 C 
ATOM      4  C   UNL     1       4.360   3.223  18.967  0.00  0.00    +0.000 C 
ATOM      5  C   UNL     1       3.020   2.595  18.619  0.00  0.00    +0.000 C 
ENDROOT
BRANCH   3   6
ATOM      6  N   UNL     1       5.741   4.849  17.643  0.00  0.00    +0.000 N 
ATOM      7  C   UNL     1       6.606   5.025  18.704  0.00  0.00    +0.000 A 
ATOM      8  C   UNL     1       7.440   6.065  18.777  0.00  0.00    +0.000 A 
ATOM      9  C   UNL     1       7.441   7.049  17.685  0.00  0.00    +0.000 A 
ATOM     10  O   UNL     1       8.143   8.051  17.743  0.00  0.00    +0.000 OA
ATOM     11  N   UNL     1       6.620   6.768  16.634  0.00  0.00    +0.000 N 
ATOM     12  C   UNL     1       5.725   5.729  16.564  0.00  0.00    +0.000 A 
ATOM     13  O   UNL     1       4.960   5.642  15.607  0.00  0.00    +0.000 OA
ATOM     14  H   UNL     1       6.593   7.433  15.878  0.00  0.00    +0.000 HD
ENDBRANCH   3   6
BRANCH   4  15
ATOM     15  O   UNL     1       5.233   2.287  19.589  0.00  0.00    +0.000 OA
ATOM     16  H   UNL     1       4.717   1.844  20.298  0.00  0.00    +0.000 HD
ENDBRANCH   4  15
BRANCH   5  17
ATOM     17  O   UNL     1       3.247   1.244  18.162  0.00  0.00    +0.000 OA
ATOM     18  H   UNL     1       3.139   0.626  18.909  0.00  0.00    +0.000 HD
ENDBRANCH   5  17
BRANCH   1  19
ATOM     19  C   UNL     1       1.546   4.589  17.920  0.00  0.00    +0.000 C 
BRANCH  19  20
ATOM     20  O   UNL     1       2.203   5.845  17.971  0.00  0.00    +0.000 OA
BRANCH  20  21
ATOM     21  S   UNL     1       2.534   6.453  19.446  0.00  0.00    +0.000 S 
ATOM     22  O   UNL     1       3.963   6.584  19.583  0.00  0.00    +0.000 OA
ATOM     23  O   UNL     1       1.765   5.698  20.413  0.00  0.00    +0.000 OA
BRANCH  21  26
ATOM     24  C   UNL     1       2.025   8.848  18.366  0.00  0.00    +0.000 C 
ATOM     25  O   UNL     1       2.509   8.491  17.300  0.00  0.00    +0.000 OA
ATOM     26  N   UNL     1       1.862   7.962  19.440  0.00  0.00    +0.000 N 
ATOM     27  H   UNL     1       1.516   8.259  20.345  0.00  0.00    +0.000 HD
BRANCH  24  28
ATOM     28  C   UNL     1       1.598  10.317  18.624  0.00  0.00    +0.000 C 
BRANCH  28  29
ATOM     29  N   UNL     1       2.210  11.190  17.593  0.00  0.00    +0.000 NA
ATOM     30  H   UNL     1       3.222  11.216  17.758  0.00  0.00    +0.000 HD
ATOM     31  H   UNL     1       1.914  12.155  17.746  0.00  0.00    +0.000 HD
ENDBRANCH  28  29
BRANCH  28  32
ATOM     32  C   UNL     1       0.052  10.488  18.671  0.00  0.00    +0.000 C 
ATOM     33  C   UNL     1      -0.528  10.198  20.063  0.00  0.00    +0.000 C 
BRANCH  32  35
ATOM     34  C   UNL     1      -2.007   9.960  17.154  0.00  0.00    +0.000 C 
ATOM     35  C   UNL     1      -0.591   9.597  17.576  0.00  0.00    +0.000 C 
ENDBRANCH  32  35
ENDBRANCH  28  32
ENDBRANCH  24  28
ENDBRANCH  21  26
ENDBRANCH  20  21
ENDBRANCH  19  20
ENDBRANCH   1  19
TORSDOF 11
ENDMDL
MODEL 8
REMARK VINA RESULT:      -6.9      3.011      7.375
REMARK  Name = 
REMARK  13 active torsions:
REMARK  status: ('A' for Active; 'I' for Inactive)
REMARK    1  A    between atoms: C_1  and  C_2
REMARK    2  A    between atoms: C_2  and  C_3
REMARK    3  A    between atoms: C_3  and  C_4
REMARK    4  A    between atoms: C_3  and  C_5
REMARK    5  A    between atoms: C_5  and  N_6
REMARK    6  A    between atoms: C_5  and  C_7
REMARK    7  A    between atoms: N_9  and  S_10
REMARK    8  A    between atoms: S_10  and  O_13
REMARK    9  A    between atoms: O_13  and  C_14
REMARK   10  A    between atoms: C_14  and  C_15
REMARK   11  A    between atoms: C_17  and  N_18
REMARK   12  A    between atoms: C_26  and  O_27
REMARK   13  A    between atoms: C_28  and  O_29
REMARK                            x       y       z     vdW  Elec       q    Type
REMARK                         _______ _______ _______ _____ _____    ______ ____
ROOT
ATOM      1  C   UNL     1       2.238   3.320  17.971  0.00  0.00    +0.000 C 
ATOM      2  O   UNL     1       3.298   3.769  17.095  0.00  0.00    +0.000 OA
ATOM      3  C   UNL     1       4.572   3.409  17.674  0.00  0.00    +0.000 C 
ATOM      4  C   UNL     1       4.309   3.038  19.141  0.00  0.00    +0.000 C 
ATOM      5  C   UNL     1       2.897   2.481  19.062  0.00  0.00    +0.000 C 
ENDROOT
BRANCH   3   6
ATOM      6  N   UNL     1       5.536   4.492  17.501  0.00  0.00    +0.000 N 
ATOM      7  C   UNL     1       6.170   5.063  18.586  0.00  0.00    +0.000 A 
ATOM      8  C   UNL     1       7.051   6.057  18.454  0.00  0.00    +0.000 A 
ATOM      9  C   UNL     1       7.361   6.551  17.105  0.00  0.00    +0.000 A 
ATOM     10  O   UNL     1       8.114   7.504  16.943  0.00  0.00    +0.000 OA
ATOM     11  N   UNL     1       6.759   5.887  16.078  0.00  0.00    +0.000 N 
ATOM     12  C   UNL     1       5.818   4.895  16.199  0.00  0.00    +0.000 A 
ATOM     13  O   UNL     1       5.267   4.447  15.197  0.00  0.00    +0.000 OA
ATOM     14  H   UNL     1       6.946   6.215  15.144  0.00  0.00    +0.000 HD
ENDBRANCH   3   6
BRANCH   4  15
ATOM     15  O   UNL     1       5.222   2.083  19.672  0.00  0.00    +0.000 OA
ATOM     16  H   UNL     1       4.790   1.205  19.598  0.00  0.00    +0.000 HD
ENDBRANCH   4  15
BRANCH   5  17
ATOM     17  O   UNL     1       2.969   1.094  18.664  0.00  0.00    +0.000 OA
ATOM     18  H   UNL     1       3.900   0.803  18.670  0.00  0.00    +0.000 HD
ENDBRANCH   5  17
BRANCH   1  19
ATOM     19  C   UNL     1       1.440   4.525  18.483  0.00  0.00    +0.000 C 
BRANCH  19  20
ATOM     20  O   UNL     1       1.811   5.723  17.821  0.00  0.00    +0.000 OA
BRANCH  20  21
ATOM     21  S   UNL     1       2.708   6.792  18.663  0.00  0.00    +0.000 S 
ATOM     22  O   UNL     1       3.786   7.253  17.826  0.00  0.00    +0.000 OA
ATOM     23  O   UNL     1       2.977   6.210  19.961  0.00  0.00    +0.000 OA
BRANCH  21  26
ATOM     24  C   UNL     1       1.649   9.192  18.136  0.00  0.00    +0.000 C 
ATOM     25  O   UNL     1       2.226   9.231  17.057  0.00  0.00    +0.000 OA
ATOM     26  N   UNL     1       1.686   8.057  18.957  0.00  0.00    +0.000 N 
ATOM     27  H   UNL     1       1.262   8.034  19.877  0.00  0.00    +0.000 HD
BRANCH  24  28
ATOM     28  C   UNL     1       0.871  10.413  18.697  0.00  0.00    +0.000 C 
BRANCH  28  29
ATOM     29  N   UNL     1      -0.474  10.460  18.073  0.00  0.00    +0.000 NA
ATOM     30  H   UNL     1      -0.657  11.426  17.785  0.00  0.00    +0.000 HD
ATOM     31  H   UNL     1      -1.184  10.278  18.784  0.00  0.00    +0.000 HD
ENDBRANCH  28  29
BRANCH  28  32
ATOM     32  C   UNL     1       0.778  10.396  20.251  0.00  0.00    +0.000 C 
ATOM     33  C   UNL     1      -0.609   9.967  20.750  0.00  0.00    +0.000 C 
BRANCH  32  35
ATOM     34  C   UNL     1       0.174  12.908  20.628  0.00  0.00    +0.000 C 
ATOM     35  C   UNL     1       1.189  11.788  20.800  0.00  0.00    +0.000 C 
ENDBRANCH  32  35
ENDBRANCH  28  32
ENDBRANCH  24  28
ENDBRANCH  21  26
ENDBRANCH  20  21
ENDBRANCH  19  20
ENDBRANCH   1  19
TORSDOF 11
ENDMDL
MODEL 9
REMARK VINA RESULT:      -6.9      3.491      5.764
REMARK  Name = 
REMARK  13 active torsions:
REMARK  status: ('A' for Active; 'I' for Inactive)
REMARK    1  A    between atoms: C_1  and  C_2
REMARK    2  A    between atoms: C_2  and  C_3
REMARK    3  A    between atoms: C_3  and  C_4
REMARK    4  A    between atoms: C_3  and  C_5
REMARK    5  A    between atoms: C_5  and  N_6
REMARK    6  A    between atoms: C_5  and  C_7
REMARK    7  A    between atoms: N_9  and  S_10
REMARK    8  A    between atoms: S_10  and  O_13
REMARK    9  A    between atoms: O_13  and  C_14
REMARK   10  A    between atoms: C_14  and  C_15
REMARK   11  A    between atoms: C_17  and  N_18
REMARK   12  A    between atoms: C_26  and  O_27
REMARK   13  A    between atoms: C_28  and  O_29
REMARK                            x       y       z     vdW  Elec       q    Type
REMARK                         _______ _______ _______ _____ _____    ______ ____
ROOT
ATOM      1  C   UNL     1       1.879   8.460  20.377  0.00  0.00    +0.000 C 
ATOM      2  O   UNL     1       1.399   9.562  19.571  0.00  0.00    +0.000 OA
ATOM      3  C   UNL     1       0.294  10.197  20.254  0.00  0.00    +0.000 C 
ATOM      4  C   UNL     1      -0.165   9.234  21.359  0.00  0.00    +0.000 C 
ATOM      5  C   UNL     1       1.140   8.537  21.709  0.00  0.00    +0.000 C 
ENDROOT
BRANCH   3   6
ATOM      6  N   UNL     1      -0.758  10.550  19.304  0.00  0.00    +0.000 N 
ATOM      7  C   UNL     1      -0.928   9.841  18.132  0.00  0.00    +0.000 A 
ATOM      8  C   UNL     1      -1.879  10.147  17.246  0.00  0.00    +0.000 A 
ATOM      9  C   UNL     1      -2.778  11.272  17.536  0.00  0.00    +0.000 A 
ATOM     10  O   UNL     1      -3.621  11.628  16.722  0.00  0.00    +0.000 OA
ATOM     11  N   UNL     1      -2.603  11.874  18.746  0.00  0.00    +0.000 N 
ATOM     12  C   UNL     1      -1.603  11.601  19.647  0.00  0.00    +0.000 A 
ATOM     13  O   UNL     1      -1.485  12.287  20.659  0.00  0.00    +0.000 OA
ATOM     14  H   UNL     1      -3.199  12.656  18.964  0.00  0.00    +0.000 HD
ENDBRANCH   3   6
BRANCH   4  15
ATOM     15  O   UNL     1      -0.737   9.878  22.491  0.00  0.00    +0.000 OA
ATOM     16  H   UNL     1      -0.452   9.370  23.282  0.00  0.00    +0.000 HD
ENDBRANCH   4  15
BRANCH   5  17
ATOM     17  O   UNL     1       1.866   9.360  22.648  0.00  0.00    +0.000 OA
ATOM     18  H   UNL     1       2.811   9.115  22.632  0.00  0.00    +0.000 HD
ENDBRANCH   5  17
BRANCH   1  19
ATOM     19  C   UNL     1       1.698   7.142  19.617  0.00  0.00    +0.000 C 
BRANCH  19  20
ATOM     20  O   UNL     1       1.805   6.019  20.476  0.00  0.00    +0.000 OA
BRANCH  20  21
ATOM     21  S   UNL     1       2.291   4.614  19.809  0.00  0.00    +0.000 S 
ATOM     22  O   UNL     1       1.249   4.128  18.940  0.00  0.00    +0.000 OA
ATOM     23  O   UNL     1       2.813   3.782  20.873  0.00  0.00    +0.000 OA
BRANCH  21  26
ATOM     24  C   UNL     1       4.374   4.052  18.226  0.00  0.00    +0.000 C 
ATOM     25  O   UNL     1       4.013   2.886  18.133  0.00  0.00    +0.000 OA
ATOM     26  N   UNL     1       3.603   5.017  18.889  0.00  0.00    +0.000 N 
ATOM     27  H   UNL     1       3.917   5.971  19.022  0.00  0.00    +0.000 HD
BRANCH  24  28
ATOM     28  C   UNL     1       5.732   4.542  17.656  0.00  0.00    +0.000 C 
BRANCH  28  29
ATOM     29  N   UNL     1       6.074   3.737  16.458  0.00  0.00    +0.000 NA
ATOM     30  H   UNL     1       6.831   4.216  15.958  0.00  0.00    +0.000 HD
ATOM     31  H   UNL     1       5.294   3.761  15.800  0.00  0.00    +0.000 HD
ENDBRANCH  28  29
BRANCH  28  32
ATOM     32  C   UNL     1       5.730   6.065  17.338  0.00  0.00    +0.000 C 
ATOM     33  C   UNL     1       5.220   6.367  15.921  0.00  0.00    +0.000 C 
BRANCH  32  35
ATOM     34  C   UNL     1       7.870   6.160  18.832  0.00  0.00    +0.000 C 
ATOM     35  C   UNL     1       7.152   6.637  17.577  0.00  0.00    +0.000 C 
ENDBRANCH  32  35
ENDBRANCH  28  32
ENDBRANCH  24  28
ENDBRANCH  21  26
ENDBRANCH  20  21
ENDBRANCH  19  20
ENDBRANCH   1  19
TORSDOF 11
ENDMDL
