MODEL 1
REMARK VINA RESULT:      -7.8      0.000      0.000
REMARK  Name = 
REMARK  7 active torsions:
REMARK  status: ('A' for Active; 'I' for Inactive)
REMARK    1  A    between atoms: C_1  and  O_2
REMARK    2  A    between atoms: O_2  and  C_3
REMARK    3  A    between atoms: C_9  and  C_10
REMARK    4  A    between atoms: C_10  and  C_11
REMARK    5  A    between atoms: C_10  and  C_19
REMARK    6  A    between atoms: C_25  and  O_26
REMARK    7  A    between atoms: O_26  and  C_27
REMARK                            x       y       z     vdW  Elec       q    Type
REMARK                         _______ _______ _______ _____ _____    ______ ____
ROOT
ATOM      1  C   UNL     1       0.536  10.861  18.879  0.00  0.00    +0.000 C 
ENDROOT
BRANCH   1   8
ATOM      2  C   UNL     1      -3.095  10.461  15.766  0.00  0.00    +0.000 A 
ATOM      3  C   UNL     1      -4.251  11.067  16.245  0.00  0.00    +0.000 A 
ATOM      4  C   UNL     1      -4.285  11.646  17.521  0.00  0.00    +0.000 A 
ATOM      5  C   UNL     1      -3.121  11.597  18.298  0.00  0.00    +0.000 A 
ATOM      6  N   UNL     1      -2.880  12.084  19.559  0.00  0.00    +0.000 N 
ATOM      7  C   UNL     1      -1.582  11.856  19.914  0.00  0.00    +0.000 A 
ATOM      8  C   UNL     1      -0.937  11.200  18.875  0.00  0.00    +0.000 A 
ATOM      9  C   UNL     1      -1.935  11.012  17.851  0.00  0.00    +0.000 A 
ATOM     10  C   UNL     1      -1.945  10.436  16.562  0.00  0.00    +0.000 A 
ATOM     11  H   UNL     1      -3.565  12.569  20.123  0.00  0.00    +0.000 HD
BRANCH   2  13
ATOM     12  C   UNL     1      -4.035   9.940  13.645  0.00  0.00    +0.000 C 
ATOM     13  O   UNL     1      -2.937   9.868  14.542  0.00  0.00    +0.000 OA
ENDBRANCH   2  13
ENDBRANCH   1   8
BRANCH   1  14
ATOM     14  C   UNL     1       0.940   9.623  19.643  0.00  0.00    +0.000 A 
ATOM     15  C   UNL     1       0.464   9.171  20.865  0.00  0.00    +0.000 A 
ATOM     16  N   UNL     1       1.010   7.944  21.126  0.00  0.00    +0.000 N 
ATOM     17  C   UNL     1       1.817   7.553  20.088  0.00  0.00    +0.000 A 
ATOM     18  C   UNL     1       2.521   6.362  19.891  0.00  0.00    +0.000 A 
ATOM     19  C   UNL     1       3.279   6.237  18.719  0.00  0.00    +0.000 A 
ATOM     20  C   UNL     1       3.346   7.274  17.790  0.00  0.00    +0.000 A 
ATOM     21  C   UNL     1       2.626   8.455  18.010  0.00  0.00    +0.000 A 
ATOM     22  C   UNL     1       1.830   8.599  19.166  0.00  0.00    +0.000 A 
ATOM     23  H   UNL     1       0.815   7.386  21.946  0.00  0.00    +0.000 HD
BRANCH  20  24
ATOM     24  O   UNL     1       4.072   7.271  16.630  0.00  0.00    +0.000 OA
ATOM     25  C   UNL     1       5.067   6.265  16.497  0.00  0.00    +0.000 C 
ENDBRANCH  20  24
ENDBRANCH   1  14
BRANCH   1  26
ATOM     26  C   UNL     1       1.312  12.080  19.367  0.00  0.00    +0.000 A 
ATOM     27  C   UNL     1       1.473  12.422  20.722  0.00  0.00    +0.000 A 
ATOM     28  C   UNL     1       2.178  13.566  21.103  0.00  0.00    +0.000 A 
ATOM     29  C   UNL     1       2.765  14.369  20.135  0.00  0.00    +0.000 A 
ATOM     30  F   UNL     1       3.448  15.456  20.528  0.00  0.00    +0.000 F 
ATOM     31  C   UNL     1       2.651  14.044  18.789  0.00  0.00    +0.000 A 
ATOM     32 BR   UNL     1       3.488  15.106  17.467  0.00  0.00    +0.000 Br
ATOM     33  C   UNL     1       1.922  12.915  18.405  0.00  0.00    +0.000 A 
ENDBRANCH   1  26
TORSDOF 5
ENDMDL
MODEL 2
REMARK VINA RESULT:      -7.8      3.256      6.603
REMARK  Name = 
REMARK  7 active torsions:
REMARK  status: ('A' for Active; 'I' for Inactive)
REMARK    1  A    between atoms: C_1  and  O_2
REMARK    2  A    between atoms: O_2  and  C_3
REMARK    3  A    between atoms: C_9  and  C_10
REMARK    4  A    between atoms: C_10  and  C_11
REMARK    5  A    between atoms: C_10  and  C_19
REMARK    6  A    between atoms: C_25  and  O_26
REMARK    7  A    between atoms: O_26  and  C_27
REMARK                            x       y       z     vdW  Elec       q    Type
REMARK                         _______ _______ _______ _____ _____    ______ ____
ROOT
ATOM      1  C   UNL     1      -0.009  11.730  18.971  0.00  0.00    +0.000 C 
ENDROOT
BRANCH   1   8
ATOM      2  C   UNL     1       0.088  16.518  18.652  0.00  0.00    +0.000 A 
ATOM      3  C   UNL     1       1.076  17.067  19.461  0.00  0.00    +0.000 A 
ATOM      4  C   UNL     1       1.862  16.253  20.289  0.00  0.00    +0.000 A 
ATOM      5  C   UNL     1       1.624  14.873  20.276  0.00  0.00    +0.000 A 
ATOM      6  N   UNL     1       2.243  13.864  20.972  0.00  0.00    +0.000 N 
ATOM      7  C   UNL     1       1.722  12.654  20.614  0.00  0.00    +0.000 A 
ATOM      8  C   UNL     1       0.731  12.852  19.662  0.00  0.00    +0.000 A 
ATOM      9  C   UNL     1       0.654  14.279  19.468  0.00  0.00    +0.000 A 
ATOM     10  C   UNL     1      -0.120  15.134  18.653  0.00  0.00    +0.000 A 
ATOM     11  H   UNL     1       2.997  14.005  21.630  0.00  0.00    +0.000 HD
BRANCH   2  13
ATOM     12  C   UNL     1      -1.574  18.196  18.376  0.00  0.00    +0.000 C 
ATOM     13  O   UNL     1      -0.737  17.203  17.801  0.00  0.00    +0.000 OA
ENDBRANCH   2  13
ENDBRANCH   1   8
BRANCH   1  14
ATOM     14  C   UNL     1      -1.516  11.820  18.966  0.00  0.00    +0.000 A 
ATOM     15  C   UNL     1      -2.350  12.363  19.932  0.00  0.00    +0.000 A 
ATOM     16  N   UNL     1      -3.636  12.350  19.464  0.00  0.00    +0.000 N 
ATOM     17  C   UNL     1      -3.672  11.838  18.192  0.00  0.00    +0.000 A 
ATOM     18  C   UNL     1      -4.745  11.694  17.308  0.00  0.00    +0.000 A 
ATOM     19  C   UNL     1      -4.486  11.127  16.053  0.00  0.00    +0.000 A 
ATOM     20  C   UNL     1      -3.206  10.700  15.706  0.00  0.00    +0.000 A 
ATOM     21  C   UNL     1      -2.148  10.860  16.609  0.00  0.00    +0.000 A 
ATOM     22  C   UNL     1      -2.372  11.456  17.869  0.00  0.00    +0.000 A 
ATOM     23  H   UNL     1      -4.438  12.705  19.966  0.00  0.00    +0.000 HD
BRANCH  20  24
ATOM     24  O   UNL     1      -2.846  10.111  14.523  0.00  0.00    +0.000 OA
ATOM     25  C   UNL     1      -3.873   9.922  13.560  0.00  0.00    +0.000 C 
ENDBRANCH  20  24
ENDBRANCH   1  14
BRANCH   1  26
ATOM     26  C   UNL     1       0.456  10.405  19.567  0.00  0.00    +0.000 A 
ATOM     27  C   UNL     1       0.086   9.941  20.843  0.00  0.00    +0.000 A 
ATOM     28  C   UNL     1       0.565   8.727  21.340  0.00  0.00    +0.000 A 
ATOM     29  C   UNL     1       1.393   7.938  20.554  0.00  0.00    +0.000 A 
ATOM     30  F   UNL     1       1.829   6.769  21.050  0.00  0.00    +0.000 F 
ATOM     31  C   UNL     1       1.754   8.352  19.278  0.00  0.00    +0.000 A 
ATOM     32 BR   UNL     1       2.845   7.261  18.183  0.00  0.00    +0.000 Br
ATOM     33  C   UNL     1       1.299   9.580  18.790  0.00  0.00    +0.000 A 
ENDBRANCH   1  26
TORSDOF 5
ENDMDL
MODEL 3
REMARK VINA RESULT:      -7.6      1.279      1.338
REMARK  Name = 
REMARK  7 active torsions:
REMARK  status: ('A' for Active; 'I' for Inactive)
REMARK    1  A    between atoms: C_1  and  O_2
REMARK    2  A    between atoms: O_2  and  C_3
REMARK    3  A    between atoms: C_9  and  C_10
REMARK    4  A    between atoms: C_10  and  C_11
REMARK    5  A    between atoms: C_10  and  C_19
REMARK    6  A    between atoms: C_25  and  O_26
REMARK    7  A    between atoms: O_26  and  C_27
REMARK                            x       y       z     vdW  Elec       q    Type
REMARK                         _______ _______ _______ _____ _____    ______ ____
ROOT
ATOM      1  C   UNL     1      -0.145  11.429  19.131  0.00  0.00    +0.000 C 
ENDROOT
BRANCH   1   8
ATOM      2  C   UNL     1      -3.235  10.636  15.544  0.00  0.00    +0.000 A 
ATOM      3  C   UNL     1      -4.503  11.123  15.842  0.00  0.00    +0.000 A 
ATOM      4  C   UNL     1      -4.777  11.703  17.088  0.00  0.00    +0.000 A 
ATOM      5  C   UNL     1      -3.737  11.780  18.023  0.00  0.00    +0.000 A 
ATOM      6  N   UNL     1      -3.730  12.298  19.295  0.00  0.00    +0.000 N 
ATOM      7  C   UNL     1      -2.480  12.207  19.835  0.00  0.00    +0.000 A 
ATOM      8  C   UNL     1      -1.630  11.615  18.912  0.00  0.00    +0.000 A 
ATOM      9  C   UNL     1      -2.446  11.318  17.761  0.00  0.00    +0.000 A 
ATOM     10  C   UNL     1      -2.213  10.736  16.496  0.00  0.00    +0.000 A 
ATOM     11  H   UNL     1      -4.534  12.713  19.746  0.00  0.00    +0.000 HD
BRANCH   2  13
ATOM     12  C   UNL     1      -3.840   9.889  13.370  0.00  0.00    +0.000 C 
ATOM     13  O   UNL     1      -2.844  10.055  14.368  0.00  0.00    +0.000 OA
ENDBRANCH   2  13
ENDBRANCH   1   8
BRANCH   1  14
ATOM     14  C   UNL     1       0.263  10.306  20.054  0.00  0.00    +0.000 A 
ATOM     15  C   UNL     1      -0.178  10.045  21.343  0.00  0.00    +0.000 A 
ATOM     16  N   UNL     1       0.355   8.858  21.762  0.00  0.00    +0.000 N 
ATOM     17  C   UNL     1       1.120   8.304  20.767  0.00  0.00    +0.000 A 
ATOM     18  C   UNL     1       1.798   7.082  20.723  0.00  0.00    +0.000 A 
ATOM     19  C   UNL     1       2.513   6.773  19.558  0.00  0.00    +0.000 A 
ATOM     20  C   UNL     1       2.566   7.663  18.488  0.00  0.00    +0.000 A 
ATOM     21  C   UNL     1       1.874   8.879  18.556  0.00  0.00    +0.000 A 
ATOM     22  C   UNL     1       1.119   9.205  19.703  0.00  0.00    +0.000 A 
ATOM     23  H   UNL     1       0.179   8.428  22.660  0.00  0.00    +0.000 HD
BRANCH  20  24
ATOM     24  O   UNL     1       3.252   7.477  17.318  0.00  0.00    +0.000 OA
ATOM     25  C   UNL     1       4.319   6.539  17.341  0.00  0.00    +0.000 C 
ENDBRANCH  20  24
ENDBRANCH   1  14
BRANCH   1  26
ATOM     26  C   UNL     1       0.445  12.757  19.594  0.00  0.00    +0.000 A 
ATOM     27  C   UNL     1       1.413  12.879  20.609  0.00  0.00    +0.000 A 
ATOM     28  C   UNL     1       1.897  14.129  21.003  0.00  0.00    +0.000 A 
ATOM     29  C   UNL     1       1.448  15.275  20.363  0.00  0.00    +0.000 A 
ATOM     30  F   UNL     1       1.939  16.463  20.751  0.00  0.00    +0.000 F 
ATOM     31  C   UNL     1       0.515  15.188  19.337  0.00  0.00    +0.000 A 
ATOM     32 BR   UNL     1      -0.067  16.742  18.429  0.00  0.00    +0.000 Br
ATOM     33  C   UNL     1       0.008  13.942  18.961  0.00  0.00    +0.000 A 
ENDBRANCH   1  26
TORSDOF 5
ENDMDL
MODEL 4
REMARK VINA RESULT:      -7.5      3.112      6.901
REMARK  Name = 
REMARK  7 active torsions:
REMARK  status: ('A' for Active; 'I' for Inactive)
REMARK    1  A    between atoms: C_1  and  O_2
REMARK    2  A    between atoms: O_2  and  C_3
REMARK    3  A    between atoms: C_9  and  C_10
REMARK    4  A    between atoms: C_10  and  C_11
REMARK    5  A    between atoms: C_10  and  C_19
REMARK    6  A    between atoms: C_25  and  O_26
REMARK    7  A    between atoms: O_26  and  C_27
REMARK                            x       y       z     vdW  Elec       q    Type
REMARK                         _______ _______ _______ _____ _____    ______ ____
ROOT
ATOM      1  C   UNL     1      -0.149  11.993  19.373  0.00  0.00    +0.000 C 
ENDROOT
BRANCH   1   8
ATOM      2  C   UNL     1       3.765  14.732  18.904  0.00  0.00    +0.000 A 
ATOM      3  C   UNL     1       4.009  15.479  20.051  0.00  0.00    +0.000 A 
ATOM      4  C   UNL     1       3.131  15.428  21.143  0.00  0.00    +0.000 A 
ATOM      5  C   UNL     1       2.004  14.603  21.046  0.00  0.00    +0.000 A 
ATOM      6  N   UNL     1       1.003  14.365  21.956  0.00  0.00    +0.000 N 
ATOM      7  C   UNL     1       0.123  13.447  21.461  0.00  0.00    +0.000 A 
ATOM      8  C   UNL     1       0.536  13.062  20.193  0.00  0.00    +0.000 A 
ATOM      9  C   UNL     1       1.729  13.826  19.920  0.00  0.00    +0.000 A 
ATOM     10  C   UNL     1       2.635  13.909  18.840  0.00  0.00    +0.000 A 
ATOM     11  H   UNL     1       0.952  14.792  22.871  0.00  0.00    +0.000 HD
BRANCH   2  13
ATOM     12  C   UNL     1       5.951  14.702  17.971  0.00  0.00    +0.000 C 
ATOM     13  O   UNL     1       4.544  14.693  17.780  0.00  0.00    +0.000 OA
ENDBRANCH   2  13
ENDBRANCH   1   8
BRANCH   1  14
ATOM     14  C   UNL     1      -1.656  12.053  19.313  0.00  0.00    +0.000 A 
ATOM     15  C   UNL     1      -2.531  12.666  20.199  0.00  0.00    +0.000 A 
ATOM     16  N   UNL     1      -3.800  12.586  19.695  0.00  0.00    +0.000 N 
ATOM     17  C   UNL     1      -3.787  11.960  18.474  0.00  0.00    +0.000 A 
ATOM     18  C   UNL     1      -4.828  11.717  17.574  0.00  0.00    +0.000 A 
ATOM     19  C   UNL     1      -4.519  11.043  16.384  0.00  0.00    +0.000 A 
ATOM     20  C   UNL     1      -3.221  10.611  16.117  0.00  0.00    +0.000 A 
ATOM     21  C   UNL     1      -2.196  10.872  17.034  0.00  0.00    +0.000 A 
ATOM     22  C   UNL     1      -2.470  11.576  18.227  0.00  0.00    +0.000 A 
ATOM     23  H   UNL     1      -4.624  12.970  20.137  0.00  0.00    +0.000 HD
BRANCH  20  24
ATOM     24  O   UNL     1      -2.813   9.924  15.005  0.00  0.00    +0.000 OA
ATOM     25  C   UNL     1      -3.650  10.000  13.860  0.00  0.00    +0.000 C 
ENDBRANCH  20  24
ENDBRANCH   1  14
BRANCH   1  26
ATOM     26  C   UNL     1       0.322  10.628  19.865  0.00  0.00    +0.000 A 
ATOM     27  C   UNL     1      -0.019  10.080  21.116  0.00  0.00    +0.000 A 
ATOM     28  C   UNL     1       0.465   8.833  21.517  0.00  0.00    +0.000 A 
ATOM     29  C   UNL     1       1.269   8.096  20.659  0.00  0.00    +0.000 A 
ATOM     30  F   UNL     1       1.710   6.894  21.063  0.00  0.00    +0.000 F 
ATOM     31  C   UNL     1       1.599   8.594  19.405  0.00  0.00    +0.000 A 
ATOM     32 BR   UNL     1       2.655   7.576  18.211  0.00  0.00    +0.000 Br
ATOM     33  C   UNL     1       1.140   9.854  19.013  0.00  0.00    +0.000 A 
ENDBRANCH   1  26
TORSDOF 5
ENDMDL
MODEL 5
REMARK VINA RESULT:      -7.4      2.360      6.428
REMARK  Name = 
REMARK  7 active torsions:
REMARK  status: ('A' for Active; 'I' for Inactive)
REMARK    1  A    between atoms: C_1  and  O_2
REMARK    2  A    between atoms: O_2  and  C_3
REMARK    3  A    between atoms: C_9  and  C_10
REMARK    4  A    between atoms: C_10  and  C_11
REMARK    5  A    between atoms: C_10  and  C_19
REMARK    6  A    between atoms: C_25  and  O_26
REMARK    7  A    between atoms: O_26  and  C_27
REMARK                            x       y       z     vdW  Elec       q    Type
REMARK                         _______ _______ _______ _____ _____    ______ ____
ROOT
ATOM      1  C   UNL     1      -1.138  12.684  20.166  0.00  0.00    +0.000 C 
ENDROOT
BRANCH   1   8
ATOM      2  C   UNL     1       1.522   8.793  19.257  0.00  0.00    +0.000 A 
ATOM      3  C   UNL     1       1.677   8.001  20.389  0.00  0.00    +0.000 A 
ATOM      4  C   UNL     1       1.143   8.398  21.623  0.00  0.00    +0.000 A 
ATOM      5  C   UNL     1       0.448   9.612  21.682  0.00  0.00    +0.000 A 
ATOM      6  N   UNL     1      -0.171  10.224  22.744  0.00  0.00    +0.000 N 
ATOM      7  C   UNL     1      -0.771  11.381  22.338  0.00  0.00    +0.000 A 
ATOM      8  C   UNL     1      -0.549  11.554  20.979  0.00  0.00    +0.000 A 
ATOM      9  C   UNL     1       0.257  10.430  20.567  0.00  0.00    +0.000 A 
ATOM     10  C   UNL     1       0.814   9.997  19.345  0.00  0.00    +0.000 A 
ATOM     11  H   UNL     1      -0.199   9.848  23.682  0.00  0.00    +0.000 HD
BRANCH   2  13
ATOM     12  C   UNL     1       3.050   7.575  17.903  0.00  0.00    +0.000 C 
ATOM     13  O   UNL     1       1.990   8.515  18.001  0.00  0.00    +0.000 OA
ENDBRANCH   2  13
ENDBRANCH   1   8
BRANCH   1  14
ATOM     14  C   UNL     1      -1.841  12.298  18.887  0.00  0.00    +0.000 A 
ATOM     15  C   UNL     1      -1.284  12.006  17.651  0.00  0.00    +0.000 A 
ATOM     16  N   UNL     1      -2.274  11.582  16.808  0.00  0.00    +0.000 N 
ATOM     17  C   UNL     1      -3.478  11.554  17.466  0.00  0.00    +0.000 A 
ATOM     18  C   UNL     1      -4.736  11.133  17.028  0.00  0.00    +0.000 A 
ATOM     19  C   UNL     1      -5.805  11.221  17.930  0.00  0.00    +0.000 A 
ATOM     20  C   UNL     1      -5.625  11.732  19.213  0.00  0.00    +0.000 A 
ATOM     21  C   UNL     1      -4.352  12.143  19.628  0.00  0.00    +0.000 A 
ATOM     22  C   UNL     1      -3.249  12.038  18.753  0.00  0.00    +0.000 A 
ATOM     23  H   UNL     1      -2.134  11.290  15.850  0.00  0.00    +0.000 HD
BRANCH  20  24
ATOM     24  O   UNL     1      -6.598  11.888  20.163  0.00  0.00    +0.000 OA
ATOM     25  C   UNL     1      -7.450  10.775  20.399  0.00  0.00    +0.000 C 
ENDBRANCH  20  24
ENDBRANCH   1  14
BRANCH   1  26
ATOM     26  C   UNL     1      -0.041  13.709  19.896  0.00  0.00    +0.000 A 
ATOM     27  C   UNL     1       1.309  13.530  20.249  0.00  0.00    +0.000 A 
ATOM     28  C   UNL     1       2.262  14.519  19.994  0.00  0.00    +0.000 A 
ATOM     29  C   UNL     1       1.887  15.690  19.349  0.00  0.00    +0.000 A 
ATOM     30  F   UNL     1       2.824  16.619  19.103  0.00  0.00    +0.000 F 
ATOM     31  C   UNL     1       0.567  15.886  18.961  0.00  0.00    +0.000 A 
ATOM     32 BR   UNL     1       0.057  17.457  18.040  0.00  0.00    +0.000 Br
ATOM     33  C   UNL     1      -0.393  14.910  19.241  0.00  0.00    +0.000 A 
ENDBRANCH   1  26
TORSDOF 5
ENDMDL
MODEL 6
REMARK VINA RESULT:      -7.4      3.235      5.284
REMARK  Name = 
REMARK  7 active torsions:
REMARK  status: ('A' for Active; 'I' for Inactive)
REMARK    1  A    between atoms: C_1  and  O_2
REMARK    2  A    between atoms: O_2  and  C_3
REMARK    3  A    between atoms: C_9  and  C_10
REMARK    4  A    between atoms: C_10  and  C_11
REMARK    5  A    between atoms: C_10  and  C_19
REMARK    6  A    between atoms: C_25  and  O_26
REMARK    7  A    between atoms: O_26  and  C_27
REMARK                            x       y       z     vdW  Elec       q    Type
REMARK                         _______ _______ _______ _____ _____    ______ ____
ROOT
ATOM      1  C   UNL     1      -0.765  12.514  20.659  0.00  0.00    +0.000 C 
ENDROOT
BRANCH   1   8
ATOM      2  C   UNL     1      -3.086  10.790  16.828  0.00  0.00    +0.000 A 
ATOM      3  C   UNL     1      -4.450  11.051  16.893  0.00  0.00    +0.000 A 
ATOM      4  C   UNL     1      -5.008  11.689  18.009  0.00  0.00    +0.000 A 
ATOM      5  C   UNL     1      -4.152  12.056  19.055  0.00  0.00    +0.000 A 
ATOM      6  N   UNL     1      -4.429  12.690  20.242  0.00  0.00    +0.000 N 
ATOM      7  C   UNL     1      -3.280  12.895  20.948  0.00  0.00    +0.000 A 
ATOM      8  C   UNL     1      -2.209  12.388  20.226  0.00  0.00    +0.000 A 
ATOM      9  C   UNL     1      -2.776  11.827  19.024  0.00  0.00    +0.000 A 
ATOM     10  C   UNL     1      -2.255  11.178  17.884  0.00  0.00    +0.000 A 
ATOM     11  H   UNL     1      -5.353  12.985  20.528  0.00  0.00    +0.000 HD
BRANCH   2  13
ATOM     12  C   UNL     1      -3.039  10.234  14.516  0.00  0.00    +0.000 C 
ATOM     13  O   UNL     1      -2.425  10.181  15.795  0.00  0.00    +0.000 OA
ENDBRANCH   2  13
ENDBRANCH   1   8
BRANCH   1  14
ATOM     14  C   UNL     1       0.102  13.443  19.845  0.00  0.00    +0.000 A 
ATOM     15  C   UNL     1      -0.242  14.186  18.725  0.00  0.00    +0.000 A 
ATOM     16  N   UNL     1       0.813  14.987  18.383  0.00  0.00    +0.000 N 
ATOM     17  C   UNL     1       1.845  14.817  19.271  0.00  0.00    +0.000 A 
ATOM     18  C   UNL     1       3.081  15.464  19.352  0.00  0.00    +0.000 A 
ATOM     19  C   UNL     1       3.953  15.079  20.379  0.00  0.00    +0.000 A 
ATOM     20  C   UNL     1       3.610  14.070  21.275  0.00  0.00    +0.000 A 
ATOM     21  C   UNL     1       2.363  13.440  21.174  0.00  0.00    +0.000 A 
ATOM     22  C   UNL     1       1.450  13.828  20.170  0.00  0.00    +0.000 A 
ATOM     23  H   UNL     1       0.817  15.640  17.612  0.00  0.00    +0.000 HD
BRANCH  20  24
ATOM     24  O   UNL     1       4.392  13.597  22.295  0.00  0.00    +0.000 OA
ATOM     25  C   UNL     1       5.740  14.045  22.332  0.00  0.00    +0.000 C 
ENDBRANCH  20  24
ENDBRANCH   1  14
BRANCH   1  26
ATOM     26  C   UNL     1      -0.156  11.118  20.725  0.00  0.00    +0.000 A 
ATOM     27  C   UNL     1      -0.243  10.271  21.846  0.00  0.00    +0.000 A 
ATOM     28  C   UNL     1       0.358   9.010  21.851  0.00  0.00    +0.000 A 
ATOM     29  C   UNL     1       1.025   8.560  20.721  0.00  0.00    +0.000 A 
ATOM     30  F   UNL     1       1.582   7.339  20.746  0.00  0.00    +0.000 F 
ATOM     31  C   UNL     1       1.104   9.358  19.586  0.00  0.00    +0.000 A 
ATOM     32 BR   UNL     1       1.971   8.732  18.026  0.00  0.00    +0.000 Br
ATOM     33  C   UNL     1       0.529  10.631  19.589  0.00  0.00    +0.000 A 
ENDBRANCH   1  26
TORSDOF 5
ENDMDL
MODEL 7
REMARK VINA RESULT:      -7.4      2.570      3.533
REMARK  Name = 
REMARK  7 active torsions:
REMARK  status: ('A' for Active; 'I' for Inactive)
REMARK    1  A    between atoms: C_1  and  O_2
REMARK    2  A    between atoms: O_2  and  C_3
REMARK    3  A    between atoms: C_9  and  C_10
REMARK    4  A    between atoms: C_10  and  C_11
REMARK    5  A    between atoms: C_10  and  C_19
REMARK    6  A    between atoms: C_25  and  O_26
REMARK    7  A    between atoms: O_26  and  C_27
REMARK                            x       y       z     vdW  Elec       q    Type
REMARK                         _______ _______ _______ _____ _____    ______ ____
ROOT
ATOM      1  C   UNL     1      -0.244  11.511  18.842  0.00  0.00    +0.000 C 
ENDROOT
BRANCH   1   8
ATOM      2  C   UNL     1      -3.678  12.866  21.910  0.00  0.00    +0.000 A 
ATOM      3  C   UNL     1      -4.937  12.835  21.319  0.00  0.00    +0.000 A 
ATOM      4  C   UNL     1      -5.088  12.499  19.966  0.00  0.00    +0.000 A 
ATOM      5  C   UNL     1      -3.937  12.195  19.229  0.00  0.00    +0.000 A 
ATOM      6  N   UNL     1      -3.802  11.833  17.911  0.00  0.00    +0.000 N 
ATOM      7  C   UNL     1      -2.492  11.581  17.621  0.00  0.00    +0.000 A 
ATOM      8  C   UNL     1      -1.730  11.780  18.764  0.00  0.00    +0.000 A 
ATOM      9  C   UNL     1      -2.657  12.200  19.786  0.00  0.00    +0.000 A 
ATOM     10  C   UNL     1      -2.547  12.548  21.150  0.00  0.00    +0.000 A 
ATOM     11  H   UNL     1      -4.573  11.739  17.264  0.00  0.00    +0.000 HD
BRANCH   2  13
ATOM     12  C   UNL     1      -4.367  12.791  24.184  0.00  0.00    +0.000 C 
ATOM     13  O   UNL     1      -3.403  13.173  23.215  0.00  0.00    +0.000 OA
ENDBRANCH   2  13
ENDBRANCH   1   8
BRANCH   1  14
ATOM     14  C   UNL     1       0.195  10.434  19.804  0.00  0.00    +0.000 A 
ATOM     15  C   UNL     1      -0.242  10.205  21.100  0.00  0.00    +0.000 A 
ATOM     16  N   UNL     1       0.325   9.048  21.561  0.00  0.00    +0.000 N 
ATOM     17  C   UNL     1       1.108   8.483  20.586  0.00  0.00    +0.000 A 
ATOM     18  C   UNL     1       1.821   7.280  20.586  0.00  0.00    +0.000 A 
ATOM     19  C   UNL     1       2.547   6.952  19.433  0.00  0.00    +0.000 A 
ATOM     20  C   UNL     1       2.576   7.806  18.333  0.00  0.00    +0.000 A 
ATOM     21  C   UNL     1       1.849   9.003  18.358  0.00  0.00    +0.000 A 
ATOM     22  C   UNL     1       1.083   9.346  19.492  0.00  0.00    +0.000 A 
ATOM     23  H   UNL     1       0.159   8.645  22.473  0.00  0.00    +0.000 HD
BRANCH  20  24
ATOM     24  O   UNL     1       3.271   7.600  17.171  0.00  0.00    +0.000 OA
ATOM     25  C   UNL     1       4.426   6.776  17.250  0.00  0.00    +0.000 C 
ENDBRANCH  20  24
ENDBRANCH   1  14
BRANCH   1  26
ATOM     26  C   UNL     1       0.471  12.826  19.135  0.00  0.00    +0.000 A 
ATOM     27  C   UNL     1       1.719  12.920  19.778  0.00  0.00    +0.000 A 
ATOM     28  C   UNL     1       2.310  14.158  20.038  0.00  0.00    +0.000 A 
ATOM     29  C   UNL     1       1.680  15.324  19.625  0.00  0.00    +0.000 A 
ATOM     30  F   UNL     1       2.275  16.501  19.874  0.00  0.00    +0.000 F 
ATOM     31  C   UNL     1       0.461  15.266  18.961  0.00  0.00    +0.000 A 
ATOM     32 BR   UNL     1      -0.382  16.847  18.354  0.00  0.00    +0.000 Br
ATOM     33  C   UNL     1      -0.146  14.030  18.726  0.00  0.00    +0.000 A 
ENDBRANCH   1  26
TORSDOF 5
ENDMDL
MODEL 8
REMARK VINA RESULT:      -7.4      1.057      1.327
REMARK  Name = 
REMARK  7 active torsions:
REMARK  status: ('A' for Active; 'I' for Inactive)
REMARK    1  A    between atoms: C_1  and  O_2
REMARK    2  A    between atoms: O_2  and  C_3
REMARK    3  A    between atoms: C_9  and  C_10
REMARK    4  A    between atoms: C_10  and  C_11
REMARK    5  A    between atoms: C_10  and  C_19
REMARK    6  A    between atoms: C_25  and  O_26
REMARK    7  A    between atoms: O_26  and  C_27
REMARK                            x       y       z     vdW  Elec       q    Type
REMARK                         _______ _______ _______ _____ _____    ______ ____
ROOT
ATOM      1  C   UNL     1       0.336  10.791  18.743  0.00  0.00    +0.000 C 
ENDROOT
BRANCH   1   8
ATOM      2  C   UNL     1      -3.190  10.518  15.498  0.00  0.00    +0.000 A 
ATOM      3  C   UNL     1      -4.342  11.162  15.936  0.00  0.00    +0.000 A 
ATOM      4  C   UNL     1      -4.403  11.739  17.212  0.00  0.00    +0.000 A 
ATOM      5  C   UNL     1      -3.270  11.650  18.031  0.00  0.00    +0.000 A 
ATOM      6  N   UNL     1      -3.060  12.126  19.302  0.00  0.00    +0.000 N 
ATOM      7  C   UNL     1      -1.785  11.854  19.704  0.00  0.00    +0.000 A 
ATOM      8  C   UNL     1      -1.124  11.179  18.687  0.00  0.00    +0.000 A 
ATOM      9  C   UNL     1      -2.089  11.026  17.626  0.00  0.00    +0.000 A 
ATOM     10  C   UNL     1      -2.071  10.454  16.335  0.00  0.00    +0.000 A 
ATOM     11  H   UNL     1      -3.749  12.632  19.842  0.00  0.00    +0.000 HD
BRANCH   2  13
ATOM     12  C   UNL     1      -4.124   9.892  13.403  0.00  0.00    +0.000 C 
ATOM     13  O   UNL     1      -3.007   9.923  14.279  0.00  0.00    +0.000 OA
ENDBRANCH   2  13
ENDBRANCH   1   8
BRANCH   1  14
ATOM     14  C   UNL     1       0.703   9.694  19.713  0.00  0.00    +0.000 A 
ATOM     15  C   UNL     1       0.217   9.476  20.994  0.00  0.00    +0.000 A 
ATOM     16  N   UNL     1       0.725   8.297  21.466  0.00  0.00    +0.000 N 
ATOM     17  C   UNL     1       1.518   7.707  20.514  0.00  0.00    +0.000 A 
ATOM     18  C   UNL     1       2.184   6.479  20.530  0.00  0.00    +0.000 A 
ATOM     19  C   UNL     1       2.935   6.128  19.400  0.00  0.00    +0.000 A 
ATOM     20  C   UNL     1       3.031   6.984  18.305  0.00  0.00    +0.000 A 
ATOM     21  C   UNL     1       2.349   8.207  18.313  0.00  0.00    +0.000 A 
ATOM     22  C   UNL     1       1.560   8.575  19.424  0.00  0.00    +0.000 A 
ATOM     23  H   UNL     1       0.516   7.897  22.371  0.00  0.00    +0.000 HD
BRANCH  20  24
ATOM     24  O   UNL     1       3.754   6.757  17.165  0.00  0.00    +0.000 OA
ATOM     25  C   UNL     1       4.653   5.656  17.183  0.00  0.00    +0.000 C 
ENDBRANCH  20  24
ENDBRANCH   1  14
BRANCH   1  26
ATOM     26  C   UNL     1       1.161  12.047  19.004  0.00  0.00    +0.000 A 
ATOM     27  C   UNL     1       2.214  12.484  18.179  0.00  0.00    +0.000 A 
ATOM     28  C   UNL     1       2.947  13.633  18.487  0.00  0.00    +0.000 A 
ATOM     29  C   UNL     1       2.615  14.384  19.606  0.00  0.00    +0.000 A 
ATOM     30  F   UNL     1       3.326  15.491  19.872  0.00  0.00    +0.000 F 
ATOM     31  C   UNL     1       1.562  13.996  20.425  0.00  0.00    +0.000 A 
ATOM     32 BR   UNL     1       1.074  15.040  21.925  0.00  0.00    +0.000 Br
ATOM     33  C   UNL     1       0.846  12.832  20.135  0.00  0.00    +0.000 A 
ENDBRANCH   1  26
TORSDOF 5
ENDMDL
MODEL 9
REMARK VINA RESULT:      -7.3      3.248      6.853
REMARK  Name = 
REMARK  7 active torsions:
REMARK  status: ('A' for Active; 'I' for Inactive)
REMARK    1  A    between atoms: C_1  and  O_2
REMARK    2  A    between atoms: O_2  and  C_3
REMARK    3  A    between atoms: C_9  and  C_10
REMARK    4  A    between atoms: C_10  and  C_11
REMARK    5  A    between atoms: C_10  and  C_19
REMARK    6  A    between atoms: C_25  and  O_26
REMARK    7  A    between atoms: O_26  and  C_27
REMARK                            x       y       z     vdW  Elec       q    Type
REMARK                         _______ _______ _______ _____ _____    ______ ____
ROOT
ATOM      1  C   UNL     1       0.396  11.188  18.515  0.00  0.00    +0.000 C 
ENDROOT
BRANCH   1   8
ATOM      2  C   UNL     1       0.606  14.385  22.089  0.00  0.00    +0.000 A 
ATOM      3  C   UNL     1       1.649  15.288  21.911  0.00  0.00    +0.000 A 
ATOM      4  C   UNL     1       2.526  15.168  20.824  0.00  0.00    +0.000 A 
ATOM      5  C   UNL     1       2.321  14.114  19.924  0.00  0.00    +0.000 A 
ATOM      6  N   UNL     1       3.016  13.775  18.789  0.00  0.00    +0.000 N 
ATOM      7  C   UNL     1       2.438  12.696  18.185  0.00  0.00    +0.000 A 
ATOM      8  C   UNL     1       1.335  12.299  18.928  0.00  0.00    +0.000 A 
ATOM      9  C   UNL     1       1.279  13.195  20.057  0.00  0.00    +0.000 A 
ATOM     10  C   UNL     1       0.421  13.349  21.168  0.00  0.00    +0.000 A 
ATOM     11  H   UNL     1       3.822  14.277  18.443  0.00  0.00    +0.000 HD
BRANCH   2  13
ATOM     12  C   UNL     1      -1.197  13.291  23.186  0.00  0.00    +0.000 C 
ATOM     13  O   UNL     1      -0.314  14.400  23.102  0.00  0.00    +0.000 OA
ENDBRANCH   2  13
ENDBRANCH   1   8
BRANCH   1  14
ATOM     14  C   UNL     1      -1.080  11.465  18.661  0.00  0.00    +0.000 A 
ATOM     15  C   UNL     1      -1.732  12.159  19.670  0.00  0.00    +0.000 A 
ATOM     16  N   UNL     1      -3.054  12.282  19.340  0.00  0.00    +0.000 N 
ATOM     17  C   UNL     1      -3.293  11.711  18.115  0.00  0.00    +0.000 A 
ATOM     18  C   UNL     1      -4.467  11.656  17.359  0.00  0.00    +0.000 A 
ATOM     19  C   UNL     1      -4.417  10.995  16.125  0.00  0.00    +0.000 A 
ATOM     20  C   UNL     1      -3.244  10.394  15.675  0.00  0.00    +0.000 A 
ATOM     21  C   UNL     1      -2.080  10.468  16.451  0.00  0.00    +0.000 A 
ATOM     22  C   UNL     1      -2.090  11.154  17.685  0.00  0.00    +0.000 A 
ATOM     23  H   UNL     1      -3.748  12.761  19.898  0.00  0.00    +0.000 HD
BRANCH  20  24
ATOM     24  O   UNL     1      -3.089   9.701  14.504  0.00  0.00    +0.000 OA
ATOM     25  C   UNL     1      -4.020   9.979  13.467  0.00  0.00    +0.000 C 
ENDBRANCH  20  24
ENDBRANCH   1  14
BRANCH   1  26
ATOM     26  C   UNL     1       0.789   9.920  19.266  0.00  0.00    +0.000 A 
ATOM     27  C   UNL     1       0.358   9.609  20.569  0.00  0.00    +0.000 A 
ATOM     28  C   UNL     1       0.773   8.439  21.210  0.00  0.00    +0.000 A 
ATOM     29  C   UNL     1       1.597   7.543  20.545  0.00  0.00    +0.000 A 
ATOM     30  F   UNL     1       1.970   6.419  21.178  0.00  0.00    +0.000 F 
ATOM     31  C   UNL     1       2.016   7.804  19.246  0.00  0.00    +0.000 A 
ATOM     32 BR   UNL     1       3.101   6.565  18.316  0.00  0.00    +0.000 Br
ATOM     33  C   UNL     1       1.626   8.987  18.613  0.00  0.00    +0.000 A 
ENDBRANCH   1  26
TORSDOF 5
ENDMDL
