MODEL 1
REMARK VINA RESULT:      -7.8      0.000      0.000
REMARK  Name = 
REMARK  8 active torsions:
REMARK  status: ('A' for Active; 'I' for Inactive)
REMARK    1  A    between atoms: C_1  and  O_2
REMARK    2  A    between atoms: O_2  and  C_3
REMARK    3  A    between atoms: C_6  and  C_7
REMARK    4  A    between atoms: C_7  and  C_8
REMARK    5  A    between atoms: C_8  and  N_9
REMARK    6  A    between atoms: N_9  and  C_10
REMARK    7  A    between atoms: C_23  and  O_24
REMARK    8  A    between atoms: O_24  and  C_25
REMARK                            x       y       z     vdW  Elec       q    Type
REMARK                         _______ _______ _______ _____ _____    ______ ____
ROOT
ATOM      1  N   UNL     1       8.385   7.637  18.562  0.00  0.00    +0.000 N 
ATOM      2  H   UNL     1       8.505   7.444  19.565  0.00  0.00    +0.000 HD
ENDROOT
BRANCH   1   3
ATOM      3  C   UNL     1       7.379   6.822  18.041  0.00  0.00    +0.000 C 
ATOM      4  C   UNL     1       6.841   6.953  16.821  0.00  0.00    +0.000 C 
ATOM      5  C   UNL     1       5.748   6.110  16.307  0.00  0.00    +0.000 C 
ATOM      6  O   UNL     1       5.309   6.321  15.183  0.00  0.00    +0.000 OA
ATOM      7  C   UNL     1       5.229   5.051  17.198  0.00  0.00    +0.000 A 
ATOM      8  N   UNL     1       4.205   4.301  16.709  0.00  0.00    +0.000 NA
ATOM      9  C   UNL     1       3.709   3.337  17.511  0.00  0.00    +0.000 A 
ATOM     10  C   UNL     1       4.194   3.080  18.784  0.00  0.00    +0.000 A 
ATOM     11  C   UNL     1       5.245   3.860  19.264  0.00  0.00    +0.000 A 
ATOM     12  C   UNL     1       5.773   4.870  18.456  0.00  0.00    +0.000 A 
ATOM     13  C   UNL     1       6.865   5.733  18.945  0.00  0.00    +0.000 C 
ATOM     14  O   UNL     1       7.323   5.587  20.072  0.00  0.00    +0.000 OA
ENDBRANCH   1   3
BRANCH   1  15
ATOM     15  C   UNL     1       8.518   9.046  18.200  0.00  0.00    +0.000 C 
BRANCH  15  16
ATOM     16  C   UNL     1       9.157   9.876  19.316  0.00  0.00    +0.000 C 
BRANCH  16  20
ATOM     17  C   UNL     1      10.681  13.461  17.420  0.00  0.00    +0.000 A 
ATOM     18  C   UNL     1      11.520  12.358  17.652  0.00  0.00    +0.000 A 
ATOM     19  C   UNL     1      11.045  11.208  18.288  0.00  0.00    +0.000 A 
ATOM     20  C   UNL     1       9.727  11.152  18.742  0.00  0.00    +0.000 A 
ATOM     21  C   UNL     1       8.911  12.278  18.571  0.00  0.00    +0.000 A 
ATOM     22  C   UNL     1       9.370  13.435  17.917  0.00  0.00    +0.000 A 
BRANCH  17  24
ATOM     23  C   UNL     1      11.926  15.471  17.503  0.00  0.00    +0.000 C 
ATOM     24  O   UNL     1      11.129  14.563  16.742  0.00  0.00    +0.000 OA
ENDBRANCH  17  24
BRANCH  22  25
ATOM     25  O   UNL     1       8.393  14.391  17.837  0.00  0.00    +0.000 OA
ATOM     26  C   UNL     1       8.342  15.416  18.816  0.00  0.00    +0.000 C 
ENDBRANCH  22  25
ENDBRANCH  16  20
ENDBRANCH  15  16
ENDBRANCH   1  15
TORSDOF 6
ENDMDL
MODEL 2
REMARK VINA RESULT:      -7.7      1.559      2.733
REMARK  Name = 
REMARK  8 active torsions:
REMARK  status: ('A' for Active; 'I' for Inactive)
REMARK    1  A    between atoms: C_1  and  O_2
REMARK    2  A    between atoms: O_2  and  C_3
REMARK    3  A    between atoms: C_6  and  C_7
REMARK    4  A    between atoms: C_7  and  C_8
REMARK    5  A    between atoms: C_8  and  N_9
REMARK    6  A    between atoms: N_9  and  C_10
REMARK    7  A    between atoms: C_23  and  O_24
REMARK    8  A    between atoms: O_24  and  C_25
REMARK                            x       y       z     vdW  Elec       q    Type
REMARK                         _______ _______ _______ _____ _____    ______ ____
ROOT
ATOM      1  N   UNL     1       7.916   8.281  17.033  0.00  0.00    +0.000 N 
ATOM      2  H   UNL     1       8.719   7.962  16.476  0.00  0.00    +0.000 HD
ENDROOT
BRANCH   1   3
ATOM      3  C   UNL     1       7.332   7.194  17.685  0.00  0.00    +0.000 C 
ATOM      4  C   UNL     1       7.788   6.645  18.818  0.00  0.00    +0.000 C 
ATOM      5  C   UNL     1       7.183   5.468  19.467  0.00  0.00    +0.000 C 
ATOM      6  O   UNL     1       7.687   5.028  20.493  0.00  0.00    +0.000 OA
ATOM      7  C   UNL     1       5.994   4.873  18.821  0.00  0.00    +0.000 A 
ATOM      8  N   UNL     1       5.468   3.775  19.426  0.00  0.00    +0.000 NA
ATOM      9  C   UNL     1       4.389   3.210  18.847  0.00  0.00    +0.000 A 
ATOM     10  C   UNL     1       3.803   3.695  17.689  0.00  0.00    +0.000 A 
ATOM     11  C   UNL     1       4.359   4.823  17.087  0.00  0.00    +0.000 A 
ATOM     12  C   UNL     1       5.480   5.425  17.662  0.00  0.00    +0.000 A 
ATOM     13  C   UNL     1       6.110   6.602  17.035  0.00  0.00    +0.000 C 
ATOM     14  O   UNL     1       5.669   7.068  15.992  0.00  0.00    +0.000 OA
ENDBRANCH   1   3
BRANCH   1  15
ATOM     15  C   UNL     1       8.113   9.574  17.685  0.00  0.00    +0.000 C 
BRANCH  15  16
ATOM     16  C   UNL     1       9.001   9.471  18.927  0.00  0.00    +0.000 C 
BRANCH  16  20
ATOM     17  C   UNL     1      11.216  13.119  19.670  0.00  0.00    +0.000 A 
ATOM     18  C   UNL     1      10.454  12.520  20.687  0.00  0.00    +0.000 A 
ATOM     19  C   UNL     1       9.714  11.360  20.450  0.00  0.00    +0.000 A 
ATOM     20  C   UNL     1       9.688  10.792  19.176  0.00  0.00    +0.000 A 
ATOM     21  C   UNL     1      10.393  11.428  18.145  0.00  0.00    +0.000 A 
ATOM     22  C   UNL     1      11.157  12.586  18.373  0.00  0.00    +0.000 A 
BRANCH  17  24
ATOM     23  C   UNL     1      11.295  15.357  20.432  0.00  0.00    +0.000 C 
ATOM     24  O   UNL     1      11.990  14.221  19.917  0.00  0.00    +0.000 OA
ENDBRANCH  17  24
BRANCH  22  25
ATOM     25  O   UNL     1      11.783  13.012  17.232  0.00  0.00    +0.000 OA
ATOM     26  C   UNL     1      11.433  14.267  16.674  0.00  0.00    +0.000 C 
ENDBRANCH  22  25
ENDBRANCH  16  20
ENDBRANCH  15  16
ENDBRANCH   1  15
TORSDOF 6
ENDMDL
MODEL 3
REMARK VINA RESULT:      -7.7      5.262      7.261
REMARK  Name = 
REMARK  8 active torsions:
REMARK  status: ('A' for Active; 'I' for Inactive)
REMARK    1  A    between atoms: C_1  and  O_2
REMARK    2  A    between atoms: O_2  and  C_3
REMARK    3  A    between atoms: C_6  and  C_7
REMARK    4  A    between atoms: C_7  and  C_8
REMARK    5  A    between atoms: C_8  and  N_9
REMARK    6  A    between atoms: N_9  and  C_10
REMARK    7  A    between atoms: C_23  and  O_24
REMARK    8  A    between atoms: O_24  and  C_25
REMARK                            x       y       z     vdW  Elec       q    Type
REMARK                         _______ _______ _______ _____ _____    ______ ____
ROOT
ATOM      1  N   UNL     1       4.484   4.978  19.483  0.00  0.00    +0.000 N 
ATOM      2  H   UNL     1       4.643   4.045  19.884  0.00  0.00    +0.000 HD
ENDROOT
BRANCH   1   3
ATOM      3  C   UNL     1       5.271   5.142  18.342  0.00  0.00    +0.000 C 
ATOM      4  C   UNL     1       6.221   6.074  18.194  0.00  0.00    +0.000 C 
ATOM      5  C   UNL     1       7.009   6.260  16.963  0.00  0.00    +0.000 C 
ATOM      6  O   UNL     1       7.844   7.156  16.919  0.00  0.00    +0.000 OA
ATOM      7  C   UNL     1       6.733   5.347  15.834  0.00  0.00    +0.000 A 
ATOM      8  N   UNL     1       7.458   5.554  14.703  0.00  0.00    +0.000 NA
ATOM      9  C   UNL     1       7.212   4.740  13.656  0.00  0.00    +0.000 A 
ATOM     10  C   UNL     1       6.276   3.719  13.688  0.00  0.00    +0.000 A 
ATOM     11  C   UNL     1       5.545   3.525  14.860  0.00  0.00    +0.000 A 
ATOM     12  C   UNL     1       5.775   4.358  15.956  0.00  0.00    +0.000 A 
ATOM     13  C   UNL     1       4.998   4.199  17.200  0.00  0.00    +0.000 C 
ATOM     14  O   UNL     1       4.130   3.340  17.292  0.00  0.00    +0.000 OA
ENDBRANCH   1   3
BRANCH   1  15
ATOM     15  C   UNL     1       3.098   5.435  19.553  0.00  0.00    +0.000 C 
BRANCH  15  16
ATOM     16  C   UNL     1       2.691   6.250  18.323  0.00  0.00    +0.000 C 
BRANCH  16  20
ATOM     17  C   UNL     1       1.038  10.068  19.532  0.00  0.00    +0.000 A 
ATOM     18  C   UNL     1       1.480   9.860  18.214  0.00  0.00    +0.000 A 
ATOM     19  C   UNL     1       2.039   8.642  17.822  0.00  0.00    +0.000 A 
ATOM     20  C   UNL     1       2.207   7.615  18.752  0.00  0.00    +0.000 A 
ATOM     21  C   UNL     1       1.829   7.847  20.082  0.00  0.00    +0.000 A 
ATOM     22  C   UNL     1       1.247   9.061  20.486  0.00  0.00    +0.000 A 
BRANCH  17  24
ATOM     23  C   UNL     1       1.132  12.431  19.547  0.00  0.00    +0.000 C 
ATOM     24  O   UNL     1       0.432  11.239  19.902  0.00  0.00    +0.000 OA
ENDBRANCH  17  24
BRANCH  22  25
ATOM     25  O   UNL     1       0.930   9.050  21.818  0.00  0.00    +0.000 OA
ATOM     26  C   UNL     1      -0.419   8.854  22.210  0.00  0.00    +0.000 C 
ENDBRANCH  22  25
ENDBRANCH  16  20
ENDBRANCH  15  16
ENDBRANCH   1  15
TORSDOF 6
ENDMDL
MODEL 4
REMARK VINA RESULT:      -7.6      1.111      2.187
REMARK  Name = 
REMARK  8 active torsions:
REMARK  status: ('A' for Active; 'I' for Inactive)
REMARK    1  A    between atoms: C_1  and  O_2
REMARK    2  A    between atoms: O_2  and  C_3
REMARK    3  A    between atoms: C_6  and  C_7
REMARK    4  A    between atoms: C_7  and  C_8
REMARK    5  A    between atoms: C_8  and  N_9
REMARK    6  A    between atoms: N_9  and  C_10
REMARK    7  A    between atoms: C_23  and  O_24
REMARK    8  A    between atoms: O_24  and  C_25
REMARK                            x       y       z     vdW  Elec       q    Type
REMARK                         _______ _______ _______ _____ _____    ______ ____
ROOT
ATOM      1  N   UNL     1       8.039   8.407  17.110  0.00  0.00    +0.000 N 
ATOM      2  H   UNL     1       8.919   8.119  16.664  0.00  0.00    +0.000 HD
ENDROOT
BRANCH   1   3
ATOM      3  C   UNL     1       7.440   7.307  17.727  0.00  0.00    +0.000 C 
ATOM      4  C   UNL     1       7.874   6.733  18.857  0.00  0.00    +0.000 C 
ATOM      5  C   UNL     1       7.255   5.544  19.468  0.00  0.00    +0.000 C 
ATOM      6  O   UNL     1       7.738   5.080  20.494  0.00  0.00    +0.000 OA
ATOM      7  C   UNL     1       6.077   4.965  18.788  0.00  0.00    +0.000 A 
ATOM      8  N   UNL     1       5.539   3.855  19.359  0.00  0.00    +0.000 NA
ATOM      9  C   UNL     1       4.470   3.304  18.748  0.00  0.00    +0.000 A 
ATOM     10  C   UNL     1       3.907   3.815  17.589  0.00  0.00    +0.000 A 
ATOM     11  C   UNL     1       4.476   4.955  17.022  0.00  0.00    +0.000 A 
ATOM     12  C   UNL     1       5.587   5.542  17.631  0.00  0.00    +0.000 A 
ATOM     13  C   UNL     1       6.231   6.731  17.041  0.00  0.00    +0.000 C 
ATOM     14  O   UNL     1       5.810   7.220  16.000  0.00  0.00    +0.000 OA
ENDBRANCH   1   3
BRANCH   1  15
ATOM     15  C   UNL     1       8.083   9.727  17.733  0.00  0.00    +0.000 C 
BRANCH  15  16
ATOM     16  C   UNL     1       9.287   9.893  18.663  0.00  0.00    +0.000 C 
BRANCH  16  20
ATOM     17  C   UNL     1      10.587  14.009  18.301  0.00  0.00    +0.000 A 
ATOM     18  C   UNL     1      11.518  12.957  18.286  0.00  0.00    +0.000 A 
ATOM     19  C   UNL     1      11.111  11.628  18.430  0.00  0.00    +0.000 A 
ATOM     20  C   UNL     1       9.765  11.325  18.633  0.00  0.00    +0.000 A 
ATOM     21  C   UNL     1       8.846  12.380  18.716  0.00  0.00    +0.000 A 
ATOM     22  C   UNL     1       9.238  13.720  18.555  0.00  0.00    +0.000 A 
BRANCH  17  24
ATOM     23  C   UNL     1      11.207  15.672  16.737  0.00  0.00    +0.000 C 
ATOM     24  O   UNL     1      10.978  15.306  18.098  0.00  0.00    +0.000 OA
ENDBRANCH  17  24
BRANCH  22  25
ATOM     25  O   UNL     1       8.171  14.573  18.643  0.00  0.00    +0.000 OA
ATOM     26  C   UNL     1       7.086  14.425  17.741  0.00  0.00    +0.000 C 
ENDBRANCH  22  25
ENDBRANCH  16  20
ENDBRANCH  15  16
ENDBRANCH   1  15
TORSDOF 6
ENDMDL
MODEL 5
REMARK VINA RESULT:      -7.6      1.668      2.540
REMARK  Name = 
REMARK  8 active torsions:
REMARK  status: ('A' for Active; 'I' for Inactive)
REMARK    1  A    between atoms: C_1  and  O_2
REMARK    2  A    between atoms: O_2  and  C_3
REMARK    3  A    between atoms: C_6  and  C_7
REMARK    4  A    between atoms: C_7  and  C_8
REMARK    5  A    between atoms: C_8  and  N_9
REMARK    6  A    between atoms: N_9  and  C_10
REMARK    7  A    between atoms: C_23  and  O_24
REMARK    8  A    between atoms: O_24  and  C_25
REMARK                            x       y       z     vdW  Elec       q    Type
REMARK                         _______ _______ _______ _____ _____    ______ ____
ROOT
ATOM      1  N   UNL     1       7.990   8.290  17.049  0.00  0.00    +0.000 N 
ATOM      2  H   UNL     1       8.839   7.973  16.564  0.00  0.00    +0.000 HD
ENDROOT
BRANCH   1   3
ATOM      3  C   UNL     1       7.386   7.211  17.696  0.00  0.00    +0.000 C 
ATOM      4  C   UNL     1       7.826   6.656  18.833  0.00  0.00    +0.000 C 
ATOM      5  C   UNL     1       7.200   5.487  19.476  0.00  0.00    +0.000 C 
ATOM      6  O   UNL     1       7.689   5.039  20.506  0.00  0.00    +0.000 OA
ATOM      7  C   UNL     1       6.006   4.909  18.822  0.00  0.00    +0.000 A 
ATOM      8  N   UNL     1       5.461   3.818  19.423  0.00  0.00    +0.000 NA
ATOM      9  C   UNL     1       4.379   3.268  18.836  0.00  0.00    +0.000 A 
ATOM     10  C   UNL     1       3.808   3.762  17.674  0.00  0.00    +0.000 A 
ATOM     11  C   UNL     1       4.384   4.883  17.076  0.00  0.00    +0.000 A 
ATOM     12  C   UNL     1       5.509   5.468  17.660  0.00  0.00    +0.000 A 
ATOM     13  C   UNL     1       6.160   6.636  17.037  0.00  0.00    +0.000 C 
ATOM     14  O   UNL     1       5.733   7.108  15.991  0.00  0.00    +0.000 OA
ENDBRANCH   1   3
BRANCH   1  15
ATOM     15  C   UNL     1       8.106   9.609  17.665  0.00  0.00    +0.000 C 
BRANCH  15  16
ATOM     16  C   UNL     1       9.046   9.608  18.873  0.00  0.00    +0.000 C 
BRANCH  16  20
ATOM     17  C   UNL     1      10.854  13.538  19.100  0.00  0.00    +0.000 A 
ATOM     18  C   UNL     1      10.912  12.787  17.914  0.00  0.00    +0.000 A 
ATOM     19  C   UNL     1      10.357  11.508  17.839  0.00  0.00    +0.000 A 
ATOM     20  C   UNL     1       9.764  10.934  18.964  0.00  0.00    +0.000 A 
ATOM     21  C   UNL     1       9.767  11.656  20.165  0.00  0.00    +0.000 A 
ATOM     22  C   UNL     1      10.305  12.951  20.250  0.00  0.00    +0.000 A 
BRANCH  17  24
ATOM     23  C   UNL     1      10.475  15.829  18.648  0.00  0.00    +0.000 C 
ATOM     24  O   UNL     1      11.343  14.816  19.157  0.00  0.00    +0.000 OA
ENDBRANCH  17  24
BRANCH  22  25
ATOM     25  O   UNL     1      10.168  13.474  21.509  0.00  0.00    +0.000 OA
ATOM     26  C   UNL     1       8.930  14.051  21.891  0.00  0.00    +0.000 C 
ENDBRANCH  22  25
ENDBRANCH  16  20
ENDBRANCH  15  16
ENDBRANCH   1  15
TORSDOF 6
ENDMDL
MODEL 6
REMARK VINA RESULT:      -7.6      6.114      7.735
REMARK  Name = 
REMARK  8 active torsions:
REMARK  status: ('A' for Active; 'I' for Inactive)
REMARK    1  A    between atoms: C_1  and  O_2
REMARK    2  A    between atoms: O_2  and  C_3
REMARK    3  A    between atoms: C_6  and  C_7
REMARK    4  A    between atoms: C_7  and  C_8
REMARK    5  A    between atoms: C_8  and  N_9
REMARK    6  A    between atoms: N_9  and  C_10
REMARK    7  A    between atoms: C_23  and  O_24
REMARK    8  A    between atoms: O_24  and  C_25
REMARK                            x       y       z     vdW  Elec       q    Type
REMARK                         _______ _______ _______ _____ _____    ______ ____
ROOT
ATOM      1  N   UNL     1       2.543   3.595  19.413  0.00  0.00    +0.000 N 
ATOM      2  H   UNL     1       2.150   2.784  18.918  0.00  0.00    +0.000 HD
ENDROOT
BRANCH   1   3
ATOM      3  C   UNL     1       3.769   3.946  18.846  0.00  0.00    +0.000 C 
ATOM      4  C   UNL     1       4.824   4.407  19.530  0.00  0.00    +0.000 C 
ATOM      5  C   UNL     1       6.096   4.816  18.908  0.00  0.00    +0.000 C 
ATOM      6  O   UNL     1       6.998   5.244  19.618  0.00  0.00    +0.000 OA
ATOM      7  C   UNL     1       6.204   4.693  17.439  0.00  0.00    +0.000 A 
ATOM      8  N   UNL     1       7.379   5.097  16.886  0.00  0.00    +0.000 NA
ATOM      9  C   UNL     1       7.494   5.005  15.546  0.00  0.00    +0.000 A 
ATOM     10  C   UNL     1       6.488   4.519  14.726  0.00  0.00    +0.000 A 
ATOM     11  C   UNL     1       5.292   4.109  15.315  0.00  0.00    +0.000 A 
ATOM     12  C   UNL     1       5.144   4.200  16.701  0.00  0.00    +0.000 A 
ATOM     13  C   UNL     1       3.882   3.803  17.352  0.00  0.00    +0.000 C 
ATOM     14  O   UNL     1       2.935   3.396  16.690  0.00  0.00    +0.000 OA
ENDBRANCH   1   3
BRANCH   1  15
ATOM     15  C   UNL     1       1.552   4.590  19.817  0.00  0.00    +0.000 C 
BRANCH  15  16
ATOM     16  C   UNL     1       2.123   5.614  20.801  0.00  0.00    +0.000 C 
BRANCH  16  20
ATOM     17  C   UNL     1       1.167   9.545  19.252  0.00  0.00    +0.000 A 
ATOM     18  C   UNL     1       1.876   8.617  18.471  0.00  0.00    +0.000 A 
ATOM     19  C   UNL     1       2.213   7.357  18.971  0.00  0.00    +0.000 A 
ATOM     20  C   UNL     1       1.882   7.012  20.282  0.00  0.00    +0.000 A 
ATOM     21  C   UNL     1       1.236   7.963  21.083  0.00  0.00    +0.000 A 
ATOM     22  C   UNL     1       0.874   9.227  20.587  0.00  0.00    +0.000 A 
BRANCH  17  24
ATOM     23  C   UNL     1      -0.596  10.861  18.383  0.00  0.00    +0.000 C 
ATOM     24  O   UNL     1       0.782  10.756  18.742  0.00  0.00    +0.000 OA
ENDBRANCH  17  24
BRANCH  22  25
ATOM     25  O   UNL     1       0.225   9.974  21.533  0.00  0.00    +0.000 OA
ATOM     26  C   UNL     1      -0.434   9.319  22.604  0.00  0.00    +0.000 C 
ENDBRANCH  22  25
ENDBRANCH  16  20
ENDBRANCH  15  16
ENDBRANCH   1  15
TORSDOF 6
ENDMDL
MODEL 7
REMARK VINA RESULT:      -7.6      4.733      7.962
REMARK  Name = 
REMARK  8 active torsions:
REMARK  status: ('A' for Active; 'I' for Inactive)
REMARK    1  A    between atoms: C_1  and  O_2
REMARK    2  A    between atoms: O_2  and  C_3
REMARK    3  A    between atoms: C_6  and  C_7
REMARK    4  A    between atoms: C_7  and  C_8
REMARK    5  A    between atoms: C_8  and  N_9
REMARK    6  A    between atoms: N_9  and  C_10
REMARK    7  A    between atoms: C_23  and  O_24
REMARK    8  A    between atoms: O_24  and  C_25
REMARK                            x       y       z     vdW  Elec       q    Type
REMARK                         _______ _______ _______ _____ _____    ______ ____
ROOT
ATOM      1  N   UNL     1       4.097   2.288  17.606  0.00  0.00    +0.000 N 
ATOM      2  H   UNL     1       4.254   1.590  16.867  0.00  0.00    +0.000 HD
ENDROOT
BRANCH   1   3
ATOM      3  C   UNL     1       4.801   3.456  17.308  0.00  0.00    +0.000 C 
ATOM      4  C   UNL     1       4.809   4.063  16.114  0.00  0.00    +0.000 C 
ATOM      5  C   UNL     1       5.595   5.270  15.807  0.00  0.00    +0.000 C 
ATOM      6  O   UNL     1       5.551   5.740  14.677  0.00  0.00    +0.000 OA
ATOM      7  C   UNL     1       6.414   5.844  16.897  0.00  0.00    +0.000 A 
ATOM      8  N   UNL     1       7.148   6.944  16.582  0.00  0.00    +0.000 NA
ATOM      9  C   UNL     1       7.911   7.476  17.558  0.00  0.00    +0.000 A 
ATOM     10  C   UNL     1       7.972   6.962  18.844  0.00  0.00    +0.000 A 
ATOM     11  C   UNL     1       7.209   5.833  19.144  0.00  0.00    +0.000 A 
ATOM     12  C   UNL     1       6.415   5.258  18.149  0.00  0.00    +0.000 A 
ATOM     13  C   UNL     1       5.620   4.047  18.425  0.00  0.00    +0.000 C 
ATOM     14  O   UNL     1       5.649   3.516  19.528  0.00  0.00    +0.000 OA
ENDBRANCH   1   3
BRANCH   1  15
ATOM     15  C   UNL     1       2.737   2.306  18.138  0.00  0.00    +0.000 C 
BRANCH  15  16
ATOM     16  C   UNL     1       1.888   3.425  17.530  0.00  0.00    +0.000 C 
BRANCH  16  20
ATOM     17  C   UNL     1       1.814   6.664  20.406  0.00  0.00    +0.000 A 
ATOM     18  C   UNL     1       1.326   5.390  20.744  0.00  0.00    +0.000 A 
ATOM     19  C   UNL     1       1.321   4.347  19.815  0.00  0.00    +0.000 A 
ATOM     20  C   UNL     1       1.767   4.566  18.512  0.00  0.00    +0.000 A 
ATOM     21  C   UNL     1       2.188   5.855  18.156  0.00  0.00    +0.000 A 
ATOM     22  C   UNL     1       2.217   6.909  19.085  0.00  0.00    +0.000 A 
BRANCH  17  24
ATOM     23  C   UNL     1       0.736   8.525  21.391  0.00  0.00    +0.000 C 
ATOM     24  O   UNL     1       1.877   7.669  21.334  0.00  0.00    +0.000 OA
ENDBRANCH  17  24
BRANCH  22  25
ATOM     25  O   UNL     1       2.694   8.063  18.524  0.00  0.00    +0.000 OA
ATOM     26  C   UNL     1       3.487   7.991  17.351  0.00  0.00    +0.000 C 
ENDBRANCH  22  25
ENDBRANCH  16  20
ENDBRANCH  15  16
ENDBRANCH   1  15
TORSDOF 6
ENDMDL
MODEL 8
REMARK VINA RESULT:      -7.6      5.473      7.644
REMARK  Name = 
REMARK  8 active torsions:
REMARK  status: ('A' for Active; 'I' for Inactive)
REMARK    1  A    between atoms: C_1  and  O_2
REMARK    2  A    between atoms: O_2  and  C_3
REMARK    3  A    between atoms: C_6  and  C_7
REMARK    4  A    between atoms: C_7  and  C_8
REMARK    5  A    between atoms: C_8  and  N_9
REMARK    6  A    between atoms: N_9  and  C_10
REMARK    7  A    between atoms: C_23  and  O_24
REMARK    8  A    between atoms: O_24  and  C_25
REMARK                            x       y       z     vdW  Elec       q    Type
REMARK                         _______ _______ _______ _____ _____    ______ ____
ROOT
ATOM      1  N   UNL     1       3.719   5.411  18.936  0.00  0.00    +0.000 N 
ATOM      2  H   UNL     1       3.528   4.432  19.188  0.00  0.00    +0.000 HD
ENDROOT
BRANCH   1   3
ATOM      3  C   UNL     1       4.706   5.461  17.951  0.00  0.00    +0.000 C 
ATOM      4  C   UNL     1       5.774   6.269  17.978  0.00  0.00    +0.000 C 
ATOM      5  C   UNL     1       6.782   6.339  16.905  0.00  0.00    +0.000 C 
ATOM      6  O   UNL     1       7.715   7.126  17.014  0.00  0.00    +0.000 OA
ATOM      7  C   UNL     1       6.597   5.450  15.739  0.00  0.00    +0.000 A 
ATOM      8  N   UNL     1       7.528   5.550  14.753  0.00  0.00    +0.000 NA
ATOM      9  C   UNL     1       7.372   4.756  13.674  0.00  0.00    +0.000 A 
ATOM     10  C   UNL     1       6.326   3.857  13.535  0.00  0.00    +0.000 A 
ATOM     11  C   UNL     1       5.384   3.771  14.559  0.00  0.00    +0.000 A 
ATOM     12  C   UNL     1       5.519   4.587  15.685  0.00  0.00    +0.000 A 
ATOM     13  C   UNL     1       4.524   4.541  16.773  0.00  0.00    +0.000 C 
ATOM     14  O   UNL     1       3.555   3.796  16.705  0.00  0.00    +0.000 OA
ENDBRANCH   1   3
BRANCH   1  15
ATOM     15  C   UNL     1       2.534   6.265  18.903  0.00  0.00    +0.000 C 
BRANCH  15  16
ATOM     16  C   UNL     1       2.093   6.702  20.302  0.00  0.00    +0.000 C 
BRANCH  16  20
ATOM     17  C   UNL     1       0.592  10.765  20.225  0.00  0.00    +0.000 A 
ATOM     18  C   UNL     1       1.048  10.144  19.049  0.00  0.00    +0.000 A 
ATOM     19  C   UNL     1       1.559   8.845  19.069  0.00  0.00    +0.000 A 
ATOM     20  C   UNL     1       1.663   8.150  20.274  0.00  0.00    +0.000 A 
ATOM     21  C   UNL     1       1.272   8.795  21.455  0.00  0.00    +0.000 A 
ATOM     22  C   UNL     1       0.739  10.096  21.448  0.00  0.00    +0.000 A 
BRANCH  17  24
ATOM     23  C   UNL     1      -1.359  12.059  19.888  0.00  0.00    +0.000 C 
ATOM     24  O   UNL     1       0.034  12.015  20.197  0.00  0.00    +0.000 OA
ENDBRANCH  17  24
BRANCH  22  25
ATOM     25  O   UNL     1       0.398  10.508  22.709  0.00  0.00    +0.000 OA
ATOM     26  C   UNL     1      -0.933  10.326  23.163  0.00  0.00    +0.000 C 
ENDBRANCH  22  25
ENDBRANCH  16  20
ENDBRANCH  15  16
ENDBRANCH   1  15
TORSDOF 6
ENDMDL
MODEL 9
REMARK VINA RESULT:      -7.5      5.963      9.450
REMARK  Name = 
REMARK  8 active torsions:
REMARK  status: ('A' for Active; 'I' for Inactive)
REMARK    1  A    between atoms: C_1  and  O_2
REMARK    2  A    between atoms: O_2  and  C_3
REMARK    3  A    between atoms: C_6  and  C_7
REMARK    4  A    between atoms: C_7  and  C_8
REMARK    5  A    between atoms: C_8  and  N_9
REMARK    6  A    between atoms: N_9  and  C_10
REMARK    7  A    between atoms: C_23  and  O_24
REMARK    8  A    between atoms: O_24  and  C_25
REMARK                            x       y       z     vdW  Elec       q    Type
REMARK                         _______ _______ _______ _____ _____    ______ ____
ROOT
ATOM      1  N   UNL     1       2.261   7.233  20.424  0.00  0.00    +0.000 N 
ATOM      2  H   UNL     1       2.982   7.473  19.731  0.00  0.00    +0.000 HD
ENDROOT
BRANCH   1   3
ATOM      3  C   UNL     1       1.499   8.363  20.724  0.00  0.00    +0.000 C 
ATOM      4  C   UNL     1       1.114   8.722  21.955  0.00  0.00    +0.000 C 
ATOM      5  C   UNL     1       0.271   9.895  22.247  0.00  0.00    +0.000 C 
ATOM      6  O   UNL     1      -0.045  10.129  23.407  0.00  0.00    +0.000 OA
ATOM      7  C   UNL     1      -0.159  10.724  21.101  0.00  0.00    +0.000 A 
ATOM      8  N   UNL     1      -0.955  11.788  21.394  0.00  0.00    +0.000 NA
ATOM      9  C   UNL     1      -1.368  12.551  20.362  0.00  0.00    +0.000 A 
ATOM     10  C   UNL     1      -1.019  12.305  19.043  0.00  0.00    +0.000 A 
ATOM     11  C   UNL     1      -0.201  11.209  18.767  0.00  0.00    +0.000 A 
ATOM     12  C   UNL     1       0.236  10.399  19.817  0.00  0.00    +0.000 A 
ATOM     13  C   UNL     1       1.077   9.215  19.556  0.00  0.00    +0.000 C 
ATOM     14  O   UNL     1       1.400   8.915  18.414  0.00  0.00    +0.000 OA
ENDBRANCH   1   3
BRANCH   1  15
ATOM     15  C   UNL     1       1.665   5.912  20.239  0.00  0.00    +0.000 C 
BRANCH  15  16
ATOM     16  C   UNL     1       2.638   4.781  20.580  0.00  0.00    +0.000 C 
BRANCH  16  20
ATOM     17  C   UNL     1       5.109   4.139  17.080  0.00  0.00    +0.000 A 
ATOM     18  C   UNL     1       3.713   3.988  17.013  0.00  0.00    +0.000 A 
ATOM     19  C   UNL     1       2.911   4.165  18.142  0.00  0.00    +0.000 A 
ATOM     20  C   UNL     1       3.492   4.460  19.376  0.00  0.00    +0.000 A 
ATOM     21  C   UNL     1       4.888   4.544  19.456  0.00  0.00    +0.000 A 
ATOM     22  C   UNL     1       5.707   4.386  18.324  0.00  0.00    +0.000 A 
BRANCH  17  24
ATOM     23  C   UNL     1       5.622   4.973  14.927  0.00  0.00    +0.000 C 
ATOM     24  O   UNL     1       5.890   4.027  15.961  0.00  0.00    +0.000 OA
ENDBRANCH  17  24
BRANCH  22  25
ATOM     25  O   UNL     1       7.032   4.541  18.634  0.00  0.00    +0.000 OA
ATOM     26  C   UNL     1       7.624   5.826  18.533  0.00  0.00    +0.000 C 
ENDBRANCH  22  25
ENDBRANCH  16  20
ENDBRANCH  15  16
ENDBRANCH   1  15
TORSDOF 6
ENDMDL
