MODEL 1
REMARK VINA RESULT:      -8.6      0.000      0.000
REMARK  Name = 
REMARK  6 active torsions:
REMARK  status: ('A' for Active; 'I' for Inactive)
REMARK    1  A    between atoms: C_2  and  C_3
REMARK    2  A    between atoms: C_3  and  C_4
REMARK    3  A    between atoms: N_10  and  C_11
REMARK    4  A    between atoms: C_11  and  N_13
REMARK    5  A    between atoms: N_13  and  C_14
REMARK    6  A    between atoms: N_20  and  C_21
REMARK                            x       y       z     vdW  Elec       q    Type
REMARK                         _______ _______ _______ _____ _____    ______ ____
ROOT
ATOM      1  C   UNL     1       2.285   4.856  18.810  0.00  0.00    +0.000 C 
ATOM      2  C   UNL     1       1.379   3.906  19.666  0.00  0.00    +0.000 C 
ATOM      3  O   UNL     1       0.751   4.307  20.647  0.00  0.00    +0.000 OA
ATOM      4  N   UNL     1       1.191   2.617  19.231  0.00  0.00    +0.000 N 
ATOM      5  C   UNL     1       2.035   2.026  18.216  0.00  0.00    +0.000 C 
ATOM      6  C   UNL     1       2.364   3.042  17.128  0.00  0.00    +0.000 C 
ATOM      7  N   UNL     1       3.079   4.168  17.743  0.00  0.00    +0.000 N 
ATOM      8  H   UNL     1       0.732   2.022  19.908  0.00  0.00    +0.000 HD
ENDROOT
BRANCH   7   9
ATOM      9  C   UNL     1       4.259   4.611  17.150  0.00  0.00    +0.000 C 
ATOM     10  S   UNL     1       5.106   3.792  15.966  0.00  0.00    +0.000 S 
BRANCH   9  11
ATOM     11  N   UNL     1       4.624   5.913  17.411  0.00  0.00    +0.000 N 
ATOM     12  H   UNL     1       3.955   6.633  17.163  0.00  0.00    +0.000 HD
BRANCH  11  13
ATOM     13  C   UNL     1       5.922   6.323  17.758  0.00  0.00    +0.000 A 
ATOM     14  C   UNL     1       6.648   5.623  18.724  0.00  0.00    +0.000 A 
ATOM     15  C   UNL     1       7.868   6.103  19.179  0.00  0.00    +0.000 A 
ATOM     16  C   UNL     1       8.385   7.274  18.640  0.00  0.00    +0.000 A 
ATOM     17  C   UNL     1       7.701   7.936  17.616  0.00  0.00    +0.000 A 
ATOM     18  C   UNL     1       6.477   7.448  17.152  0.00  0.00    +0.000 A 
ENDBRANCH  11  13
ENDBRANCH   9  11
ENDBRANCH   7   9
BRANCH   1  19
ATOM     19  C   UNL     1       3.011   5.815  19.761  0.00  0.00    +0.000 C 
BRANCH  19  21
ATOM     20  O   UNL     1       2.326   7.868  18.752  0.00  0.00    +0.000 OA
ATOM     21  C   UNL     1       2.334   7.160  19.757  0.00  0.00    +0.000 C 
ATOM     22  N   UNL     1       1.721   7.472  20.961  0.00  0.00    +0.000 N 
ATOM     23  H   UNL     1       1.606   6.717  21.630  0.00  0.00    +0.000 HD
BRANCH  22  24
ATOM     24  C   UNL     1       0.895   8.606  21.138  0.00  0.00    +0.000 A 
ATOM     25  C   UNL     1       0.102   8.781  22.281  0.00  0.00    +0.000 A 
ATOM     26  C   UNL     1      -0.390  10.040  22.613  0.00  0.00    +0.000 A 
ATOM     27  C   UNL     1      -0.099  11.110  21.785  0.00  0.00    +0.000 A 
ATOM     28  C   UNL     1       0.512  10.884  20.551  0.00  0.00    +0.000 A 
ATOM     29  C   UNL     1       0.983   9.624  20.200  0.00  0.00    +0.000 A 
ATOM     30  O   UNL     1       0.798  11.929  19.710  0.00  0.00    +0.000 OA
ATOM     31  C   UNL     1       1.361  12.948  20.534  0.00  0.00    +0.000 C 
ATOM     32  C   UNL     1       0.384  13.398  21.619  0.00  0.00    +0.000 C 
ATOM     33  O   UNL     1      -0.363  12.359  22.267  0.00  0.00    +0.000 OA
ENDBRANCH  22  24
ENDBRANCH  19  21
ENDBRANCH   1  19
TORSDOF 6
ENDMDL
MODEL 2
REMARK VINA RESULT:      -8.5      1.027      1.773
REMARK  Name = 
REMARK  6 active torsions:
REMARK  status: ('A' for Active; 'I' for Inactive)
REMARK    1  A    between atoms: C_2  and  C_3
REMARK    2  A    between atoms: C_3  and  C_4
REMARK    3  A    between atoms: N_10  and  C_11
REMARK    4  A    between atoms: C_11  and  N_13
REMARK    5  A    between atoms: N_13  and  C_14
REMARK    6  A    between atoms: N_20  and  C_21
REMARK                            x       y       z     vdW  Elec       q    Type
REMARK                         _______ _______ _______ _____ _____    ______ ____
ROOT
ATOM      1  C   UNL     1       2.239   4.931  18.751  0.00  0.00    +0.000 C 
ATOM      2  C   UNL     1       1.289   4.036  19.618  0.00  0.00    +0.000 C 
ATOM      3  O   UNL     1       0.659   4.485  20.577  0.00  0.00    +0.000 OA
ATOM      4  N   UNL     1       1.066   2.742  19.217  0.00  0.00    +0.000 N 
ATOM      5  C   UNL     1       1.907   2.094  18.234  0.00  0.00    +0.000 C 
ATOM      6  C   UNL     1       2.285   3.066  17.124  0.00  0.00    +0.000 C 
ATOM      7  N   UNL     1       3.027   4.187  17.718  0.00  0.00    +0.000 N 
ATOM      8  H   UNL     1       0.577   2.182  19.904  0.00  0.00    +0.000 HD
ENDROOT
BRANCH   7   9
ATOM      9  C   UNL     1       4.230   4.573  17.133  0.00  0.00    +0.000 C 
ATOM     10  S   UNL     1       5.124   3.646  16.069  0.00  0.00    +0.000 S 
BRANCH   9  11
ATOM     11  N   UNL     1       4.585   5.897  17.279  0.00  0.00    +0.000 N 
ATOM     12  H   UNL     1       3.991   6.581  16.826  0.00  0.00    +0.000 HD
BRANCH  11  13
ATOM     13  C   UNL     1       5.816   6.340  17.790  0.00  0.00    +0.000 A 
ATOM     14  C   UNL     1       6.426   7.482  17.267  0.00  0.00    +0.000 A 
ATOM     15  C   UNL     1       7.706   7.846  17.661  0.00  0.00    +0.000 A 
ATOM     16  C   UNL     1       8.371   7.080  18.612  0.00  0.00    +0.000 A 
ATOM     17  C   UNL     1       7.734   5.982  19.198  0.00  0.00    +0.000 A 
ATOM     18  C   UNL     1       6.442   5.622  18.807  0.00  0.00    +0.000 A 
ENDBRANCH  11  13
ENDBRANCH   9  11
ENDBRANCH   7   9
BRANCH   1  19
ATOM     19  C   UNL     1       2.981   5.893  19.686  0.00  0.00    +0.000 C 
BRANCH  19  21
ATOM     20  O   UNL     1       2.800   7.902  18.407  0.00  0.00    +0.000 OA
ATOM     21  C   UNL     1       2.520   7.307  19.445  0.00  0.00    +0.000 C 
ATOM     22  N   UNL     1       1.750   7.818  20.479  0.00  0.00    +0.000 N 
ATOM     23  H   UNL     1       1.406   7.158  21.169  0.00  0.00    +0.000 HD
BRANCH  22  24
ATOM     24  C   UNL     1       1.081   9.061  20.403  0.00  0.00    +0.000 A 
ATOM     25  C   UNL     1       0.387   9.467  19.254  0.00  0.00    +0.000 A 
ATOM     26  C   UNL     1      -0.561  10.484  19.324  0.00  0.00    +0.000 A 
ATOM     27  C   UNL     1      -0.794  11.098  20.543  0.00  0.00    +0.000 A 
ATOM     28  C   UNL     1       0.045  10.828  21.625  0.00  0.00    +0.000 A 
ATOM     29  C   UNL     1       1.014   9.832  21.555  0.00  0.00    +0.000 A 
ATOM     30  O   UNL     1      -0.158  11.434  22.838  0.00  0.00    +0.000 OA
ATOM     31  C   UNL     1      -1.563  11.366  23.074  0.00  0.00    +0.000 C 
ATOM     32  C   UNL     1      -2.354  12.088  21.985  0.00  0.00    +0.000 C 
ATOM     33  O   UNL     1      -1.898  11.892  20.638  0.00  0.00    +0.000 OA
ENDBRANCH  22  24
ENDBRANCH  19  21
ENDBRANCH   1  19
TORSDOF 6
ENDMDL
MODEL 3
REMARK VINA RESULT:      -8.4      4.744      7.335
REMARK  Name = 
REMARK  6 active torsions:
REMARK  status: ('A' for Active; 'I' for Inactive)
REMARK    1  A    between atoms: C_2  and  C_3
REMARK    2  A    between atoms: C_3  and  C_4
REMARK    3  A    between atoms: N_10  and  C_11
REMARK    4  A    between atoms: C_11  and  N_13
REMARK    5  A    between atoms: N_13  and  C_14
REMARK    6  A    between atoms: N_20  and  C_21
REMARK                            x       y       z     vdW  Elec       q    Type
REMARK                         _______ _______ _______ _____ _____    ______ ____
ROOT
ATOM      1  C   UNL     1       6.202   5.786  17.516  0.00  0.00    +0.000 C 
ATOM      2  C   UNL     1       6.750   4.820  16.410  0.00  0.00    +0.000 C 
ATOM      3  O   UNL     1       7.816   5.027  15.828  0.00  0.00    +0.000 OA
ATOM      4  N   UNL     1       6.074   3.648  16.175  0.00  0.00    +0.000 N 
ATOM      5  C   UNL     1       4.732   3.431  16.670  0.00  0.00    +0.000 C 
ATOM      6  C   UNL     1       4.574   4.007  18.072  0.00  0.00    +0.000 C 
ATOM      7  N   UNL     1       4.830   5.453  18.013  0.00  0.00    +0.000 N 
ATOM      8  H   UNL     1       6.389   3.156  15.348  0.00  0.00    +0.000 HD
ENDROOT
BRANCH   7   9
ATOM      9  C   UNL     1       3.916   6.315  18.613  0.00  0.00    +0.000 C 
ATOM     10  S   UNL     1       3.108   7.553  17.833  0.00  0.00    +0.000 S 
BRANCH   9  11
ATOM     11  N   UNL     1       3.495   5.977  19.880  0.00  0.00    +0.000 N 
ATOM     12  H   UNL     1       3.999   6.393  20.655  0.00  0.00    +0.000 HD
BRANCH  11  13
ATOM     13  C   UNL     1       2.601   4.933  20.172  0.00  0.00    +0.000 A 
ATOM     14  C   UNL     1       2.733   4.203  21.354  0.00  0.00    +0.000 A 
ATOM     15  C   UNL     1       1.952   3.079  21.584  0.00  0.00    +0.000 A 
ATOM     16  C   UNL     1       1.006   2.701  20.639  0.00  0.00    +0.000 A 
ATOM     17  C   UNL     1       0.814   3.474  19.490  0.00  0.00    +0.000 A 
ATOM     18  C   UNL     1       1.596   4.610  19.264  0.00  0.00    +0.000 A 
ENDBRANCH  11  13
ENDBRANCH   9  11
ENDBRANCH   7   9
BRANCH   1  19
ATOM     19  C   UNL     1       6.494   7.228  17.084  0.00  0.00    +0.000 C 
BRANCH  19  21
ATOM     20  O   UNL     1       8.316   7.086  18.622  0.00  0.00    +0.000 OA
ATOM     21  C   UNL     1       7.605   7.804  17.922  0.00  0.00    +0.000 C 
ATOM     22  N   UNL     1       7.741   9.178  17.788  0.00  0.00    +0.000 N 
ATOM     23  H   UNL     1       7.248   9.618  17.018  0.00  0.00    +0.000 HD
BRANCH  22  24
ATOM     24  C   UNL     1       8.811   9.909  18.355  0.00  0.00    +0.000 A 
ATOM     25  C   UNL     1       9.778  10.549  17.566  0.00  0.00    +0.000 A 
ATOM     26  C   UNL     1      10.575  11.554  18.105  0.00  0.00    +0.000 A 
ATOM     27  C   UNL     1      10.408  11.899  19.436  0.00  0.00    +0.000 A 
ATOM     28  C   UNL     1       9.593  11.117  20.255  0.00  0.00    +0.000 A 
ATOM     29  C   UNL     1       8.813  10.093  19.730  0.00  0.00    +0.000 A 
ATOM     30  O   UNL     1       9.423  11.432  21.579  0.00  0.00    +0.000 OA
ATOM     31  C   UNL     1       9.221  12.844  21.619  0.00  0.00    +0.000 C 
ATOM     32  C   UNL     1      10.417  13.601  21.046  0.00  0.00    +0.000 C 
ATOM     33  O   UNL     1      11.005  13.049  19.860  0.00  0.00    +0.000 OA
ENDBRANCH  22  24
ENDBRANCH  19  21
ENDBRANCH   1  19
TORSDOF 6
ENDMDL
MODEL 4
REMARK VINA RESULT:      -8.3      1.866      2.669
REMARK  Name = 
REMARK  6 active torsions:
REMARK  status: ('A' for Active; 'I' for Inactive)
REMARK    1  A    between atoms: C_2  and  C_3
REMARK    2  A    between atoms: C_3  and  C_4
REMARK    3  A    between atoms: N_10  and  C_11
REMARK    4  A    between atoms: C_11  and  N_13
REMARK    5  A    between atoms: N_13  and  C_14
REMARK    6  A    between atoms: N_20  and  C_21
REMARK                            x       y       z     vdW  Elec       q    Type
REMARK                         _______ _______ _______ _____ _____    ______ ____
ROOT
ATOM      1  C   UNL     1       2.248   4.668  19.114  0.00  0.00    +0.000 C 
ATOM      2  C   UNL     1       1.358   3.479  19.613  0.00  0.00    +0.000 C 
ATOM      3  O   UNL     1       0.452   3.638  20.432  0.00  0.00    +0.000 OA
ATOM      4  N   UNL     1       1.522   2.249  19.025  0.00  0.00    +0.000 N 
ATOM      5  C   UNL     1       2.678   1.943  18.210  0.00  0.00    +0.000 C 
ATOM      6  C   UNL     1       3.060   3.138  17.346  0.00  0.00    +0.000 C 
ATOM      7  N   UNL     1       3.386   4.267  18.228  0.00  0.00    +0.000 N 
ATOM      8  H   UNL     1       1.033   1.502  19.501  0.00  0.00    +0.000 HD
ENDROOT
BRANCH   7   9
ATOM      9  C   UNL     1       4.570   4.966  18.004  0.00  0.00    +0.000 C 
ATOM     10  S   UNL     1       5.929   4.890  18.972  0.00  0.00    +0.000 S 
BRANCH   9  11
ATOM     11  N   UNL     1       4.691   5.589  16.781  0.00  0.00    +0.000 N 
ATOM     12  H   UNL     1       4.026   6.326  16.576  0.00  0.00    +0.000 HD
BRANCH  11  13
ATOM     13  C   UNL     1       5.491   5.123  15.725  0.00  0.00    +0.000 A 
ATOM     14  C   UNL     1       6.824   5.526  15.620  0.00  0.00    +0.000 A 
ATOM     15  C   UNL     1       7.580   5.192  14.505  0.00  0.00    +0.000 A 
ATOM     16  C   UNL     1       7.010   4.419  13.501  0.00  0.00    +0.000 A 
ATOM     17  C   UNL     1       5.702   3.945  13.638  0.00  0.00    +0.000 A 
ATOM     18  C   UNL     1       4.944   4.275  14.765  0.00  0.00    +0.000 A 
ENDBRANCH  11  13
ENDBRANCH   9  11
ENDBRANCH   7   9
BRANCH   1  19
ATOM     19  C   UNL     1       2.537   5.588  20.306  0.00  0.00    +0.000 C 
BRANCH  19  21
ATOM     20  O   UNL     1       2.501   7.485  18.854  0.00  0.00    +0.000 OA
ATOM     21  C   UNL     1       2.205   7.014  19.951  0.00  0.00    +0.000 C 
ATOM     22  N   UNL     1       1.530   7.689  20.956  0.00  0.00    +0.000 N 
ATOM     23  H   UNL     1       1.150   7.130  21.714  0.00  0.00    +0.000 HD
BRANCH  22  24
ATOM     24  C   UNL     1       0.981   8.981  20.787  0.00  0.00    +0.000 A 
ATOM     25  C   UNL     1       0.479   9.424  19.555  0.00  0.00    +0.000 A 
ATOM     26  C   UNL     1      -0.383  10.515  19.495  0.00  0.00    +0.000 A 
ATOM     27  C   UNL     1      -0.720  11.166  20.670  0.00  0.00    +0.000 A 
ATOM     28  C   UNL     1      -0.055  10.845  21.854  0.00  0.00    +0.000 A 
ATOM     29  C   UNL     1       0.829   9.773  21.916  0.00  0.00    +0.000 A 
ATOM     30  O   UNL     1      -0.364  11.486  23.026  0.00  0.00    +0.000 OA
ATOM     31  C   UNL     1      -1.788  11.536  23.077  0.00  0.00    +0.000 C 
ATOM     32  C   UNL     1      -2.368  12.302  21.889  0.00  0.00    +0.000 C 
ATOM     33  O   UNL     1      -1.758  12.048  20.615  0.00  0.00    +0.000 OA
ENDBRANCH  22  24
ENDBRANCH  19  21
ENDBRANCH   1  19
TORSDOF 6
ENDMDL
MODEL 5
REMARK VINA RESULT:      -8.3      3.462      8.622
REMARK  Name = 
REMARK  6 active torsions:
REMARK  status: ('A' for Active; 'I' for Inactive)
REMARK    1  A    between atoms: C_2  and  C_3
REMARK    2  A    between atoms: C_3  and  C_4
REMARK    3  A    between atoms: N_10  and  C_11
REMARK    4  A    between atoms: C_11  and  N_13
REMARK    5  A    between atoms: N_13  and  C_14
REMARK    6  A    between atoms: N_20  and  C_21
REMARK                            x       y       z     vdW  Elec       q    Type
REMARK                         _______ _______ _______ _____ _____    ______ ____
ROOT
ATOM      1  C   UNL     1       0.193  11.197  21.358  0.00  0.00    +0.000 C 
ATOM      2  C   UNL     1      -0.694  11.508  22.612  0.00  0.00    +0.000 C 
ATOM      3  O   UNL     1      -0.981  10.644  23.442  0.00  0.00    +0.000 OA
ATOM      4  N   UNL     1      -1.056  12.811  22.847  0.00  0.00    +0.000 N 
ATOM      5  C   UNL     1      -0.926  13.832  21.831  0.00  0.00    +0.000 C 
ATOM      6  C   UNL     1       0.363  13.645  21.040  0.00  0.00    +0.000 C 
ATOM      7  N   UNL     1       0.322  12.330  20.388  0.00  0.00    +0.000 N 
ATOM      8  H   UNL     1      -1.753  12.914  23.574  0.00  0.00    +0.000 HD
ENDROOT
BRANCH   7   9
ATOM      9  C   UNL     1       0.628  12.250  19.031  0.00  0.00    +0.000 C 
ATOM     10  S   UNL     1       2.060  11.665  18.401  0.00  0.00    +0.000 S 
BRANCH   9  11
ATOM     11  N   UNL     1      -0.413  12.468  18.155  0.00  0.00    +0.000 N 
ATOM     12  H   UNL     1      -0.414  13.351  17.658  0.00  0.00    +0.000 HD
BRANCH  11  13
ATOM     13  C   UNL     1      -1.575  11.682  18.086  0.00  0.00    +0.000 A 
ATOM     14  C   UNL     1      -1.560  10.460  17.411  0.00  0.00    +0.000 A 
ATOM     15  C   UNL     1      -2.734   9.747  17.210  0.00  0.00    +0.000 A 
ATOM     16  C   UNL     1      -3.928  10.242  17.719  0.00  0.00    +0.000 A 
ATOM     17  C   UNL     1      -3.937  11.424  18.466  0.00  0.00    +0.000 A 
ATOM     18  C   UNL     1      -2.753  12.137  18.674  0.00  0.00    +0.000 A 
ENDBRANCH  11  13
ENDBRANCH   9  11
ENDBRANCH   7   9
BRANCH   1  19
ATOM     19  C   UNL     1      -0.198   9.814  20.822  0.00  0.00    +0.000 C 
BRANCH  19  21
ATOM     20  O   UNL     1       1.590   8.826  22.059  0.00  0.00    +0.000 OA
ATOM     21  C   UNL     1       0.937   8.844  21.017  0.00  0.00    +0.000 C 
ATOM     22  N   UNL     1       1.125   7.991  19.940  0.00  0.00    +0.000 N 
ATOM     23  H   UNL     1       0.387   7.956  19.245  0.00  0.00    +0.000 HD
BRANCH  22  24
ATOM     24  C   UNL     1       2.025   6.901  19.964  0.00  0.00    +0.000 A 
ATOM     25  C   UNL     1       1.776   5.744  20.716  0.00  0.00    +0.000 A 
ATOM     26  C   UNL     1       2.453   4.560  20.437  0.00  0.00    +0.000 A 
ATOM     27  C   UNL     1       3.388   4.551  19.415  0.00  0.00    +0.000 A 
ATOM     28  C   UNL     1       3.771   5.752  18.817  0.00  0.00    +0.000 A 
ATOM     29  C   UNL     1       3.118   6.944  19.110  0.00  0.00    +0.000 A 
ATOM     30  O   UNL     1       4.704   5.767  17.812  0.00  0.00    +0.000 OA
ATOM     31  C   UNL     1       4.355   4.692  16.942  0.00  0.00    +0.000 C 
ATOM     32  C   UNL     1       4.384   3.348  17.667  0.00  0.00    +0.000 C 
ATOM     33  O   UNL     1       3.834   3.334  18.992  0.00  0.00    +0.000 OA
ENDBRANCH  22  24
ENDBRANCH  19  21
ENDBRANCH   1  19
TORSDOF 6
ENDMDL
MODEL 6
REMARK VINA RESULT:      -8.2      1.904      2.472
REMARK  Name = 
REMARK  6 active torsions:
REMARK  status: ('A' for Active; 'I' for Inactive)
REMARK    1  A    between atoms: C_2  and  C_3
REMARK    2  A    between atoms: C_3  and  C_4
REMARK    3  A    between atoms: N_10  and  C_11
REMARK    4  A    between atoms: C_11  and  N_13
REMARK    5  A    between atoms: N_13  and  C_14
REMARK    6  A    between atoms: N_20  and  C_21
REMARK                            x       y       z     vdW  Elec       q    Type
REMARK                         _______ _______ _______ _____ _____    ______ ____
ROOT
ATOM      1  C   UNL     1       2.402   5.125  18.752  0.00  0.00    +0.000 C 
ATOM      2  C   UNL     1       1.650   4.061  19.622  0.00  0.00    +0.000 C 
ATOM      3  O   UNL     1       0.991   4.373  20.615  0.00  0.00    +0.000 OA
ATOM      4  N   UNL     1       1.632   2.758  19.187  0.00  0.00    +0.000 N 
ATOM      5  C   UNL     1       2.530   2.287  18.156  0.00  0.00    +0.000 C 
ATOM      6  C   UNL     1       2.697   3.338  17.065  0.00  0.00    +0.000 C 
ATOM      7  N   UNL     1       3.263   4.552  17.669  0.00  0.00    +0.000 N 
ATOM      8  H   UNL     1       1.270   2.106  19.872  0.00  0.00    +0.000 HD
ENDROOT
BRANCH   7   9
ATOM      9  C   UNL     1       4.360   5.151  17.056  0.00  0.00    +0.000 C 
ATOM     10  S   UNL     1       4.645   6.796  16.989  0.00  0.00    +0.000 S 
BRANCH   9  11
ATOM     11  N   UNL     1       5.382   4.310  16.672  0.00  0.00    +0.000 N 
ATOM     12  H   UNL     1       5.874   3.823  17.412  0.00  0.00    +0.000 HD
BRANCH  11  13
ATOM     13  C   UNL     1       5.940   4.269  15.383  0.00  0.00    +0.000 A 
ATOM     14  C   UNL     1       7.134   4.939  15.111  0.00  0.00    +0.000 A 
ATOM     15  C   UNL     1       7.616   5.028  13.812  0.00  0.00    +0.000 A 
ATOM     16  C   UNL     1       6.916   4.412  12.781  0.00  0.00    +0.000 A 
ATOM     17  C   UNL     1       5.764   3.672  13.060  0.00  0.00    +0.000 A 
ATOM     18  C   UNL     1       5.283   3.576  14.369  0.00  0.00    +0.000 A 
ENDBRANCH  11  13
ENDBRANCH   9  11
ENDBRANCH   7   9
BRANCH   1  19
ATOM     19  C   UNL     1       3.008   6.175  19.691  0.00  0.00    +0.000 C 
BRANCH  19  21
ATOM     20  O   UNL     1       1.824   7.971  18.654  0.00  0.00    +0.000 OA
ATOM     21  C   UNL     1       2.154   7.416  19.700  0.00  0.00    +0.000 C 
ATOM     22  N   UNL     1       1.778   7.817  20.973  0.00  0.00    +0.000 N 
ATOM     23  H   UNL     1       1.924   7.154  21.727  0.00  0.00    +0.000 HD
BRANCH  22  24
ATOM     24  C   UNL     1       0.852   8.858  21.214  0.00  0.00    +0.000 A 
ATOM     25  C   UNL     1       0.029   8.876  22.349  0.00  0.00    +0.000 A 
ATOM     26  C   UNL     1      -0.579  10.059  22.761  0.00  0.00    +0.000 A 
ATOM     27  C   UNL     1      -0.370  11.210  22.022  0.00  0.00    +0.000 A 
ATOM     28  C   UNL     1       0.278  11.132  20.788  0.00  0.00    +0.000 A 
ATOM     29  C   UNL     1       0.865   9.948  20.356  0.00  0.00    +0.000 A 
ATOM     30  O   UNL     1       0.484  12.258  20.033  0.00  0.00    +0.000 OA
ATOM     31  C   UNL     1       0.941  13.257  20.943  0.00  0.00    +0.000 C 
ATOM     32  C   UNL     1      -0.089  13.537  22.036  0.00  0.00    +0.000 C 
ATOM     33  O   UNL     1      -0.752  12.390  22.588  0.00  0.00    +0.000 OA
ENDBRANCH  22  24
ENDBRANCH  19  21
ENDBRANCH   1  19
TORSDOF 6
ENDMDL
MODEL 7
REMARK VINA RESULT:      -8.2      2.201      2.751
REMARK  Name = 
REMARK  6 active torsions:
REMARK  status: ('A' for Active; 'I' for Inactive)
REMARK    1  A    between atoms: C_2  and  C_3
REMARK    2  A    between atoms: C_3  and  C_4
REMARK    3  A    between atoms: N_10  and  C_11
REMARK    4  A    between atoms: C_11  and  N_13
REMARK    5  A    between atoms: N_13  and  C_14
REMARK    6  A    between atoms: N_20  and  C_21
REMARK                            x       y       z     vdW  Elec       q    Type
REMARK                         _______ _______ _______ _____ _____    ______ ____
ROOT
ATOM      1  C   UNL     1       3.175   4.583  18.563  0.00  0.00    +0.000 C 
ATOM      2  C   UNL     1       2.415   3.535  19.446  0.00  0.00    +0.000 C 
ATOM      3  O   UNL     1       1.616   3.872  20.322  0.00  0.00    +0.000 OA
ATOM      4  N   UNL     1       2.560   2.202  19.148  0.00  0.00    +0.000 N 
ATOM      5  C   UNL     1       3.613   1.727  18.278  0.00  0.00    +0.000 C 
ATOM      6  C   UNL     1       3.822   2.685  17.111  0.00  0.00    +0.000 C 
ATOM      7  N   UNL     1       4.206   3.998  17.649  0.00  0.00    +0.000 N 
ATOM      8  H   UNL     1       2.174   1.584  19.851  0.00  0.00    +0.000 HD
ENDROOT
BRANCH   7   9
ATOM      9  C   UNL     1       5.316   4.641  17.105  0.00  0.00    +0.000 C 
ATOM     10  S   UNL     1       6.865   4.574  17.726  0.00  0.00    +0.000 S 
BRANCH   9  11
ATOM     11  N   UNL     1       5.153   5.186  15.851  0.00  0.00    +0.000 N 
ATOM     12  H   UNL     1       4.370   5.816  15.725  0.00  0.00    +0.000 HD
BRANCH  11  13
ATOM     13  C   UNL     1       5.831   4.752  14.698  0.00  0.00    +0.000 A 
ATOM     14  C   UNL     1       7.071   5.297  14.364  0.00  0.00    +0.000 A 
ATOM     15  C   UNL     1       7.680   4.985  13.156  0.00  0.00    +0.000 A 
ATOM     16  C   UNL     1       7.059   4.093  12.290  0.00  0.00    +0.000 A 
ATOM     17  C   UNL     1       5.855   3.483  12.655  0.00  0.00    +0.000 A 
ATOM     18  C   UNL     1       5.248   3.792  13.875  0.00  0.00    +0.000 A 
ENDBRANCH  11  13
ENDBRANCH   9  11
ENDBRANCH   7   9
BRANCH   1  19
ATOM     19  C   UNL     1       3.572   5.767  19.452  0.00  0.00    +0.000 C 
BRANCH  19  21
ATOM     20  O   UNL     1       2.235   7.234  18.124  0.00  0.00    +0.000 OA
ATOM     21  C   UNL     1       2.614   6.911  19.248  0.00  0.00    +0.000 C 
ATOM     22  N   UNL     1       2.207   7.508  20.432  0.00  0.00    +0.000 N 
ATOM     23  H   UNL     1       2.411   7.011  21.293  0.00  0.00    +0.000 HD
BRANCH  22  24
ATOM     24  C   UNL     1       1.195   8.493  20.494  0.00  0.00    +0.000 A 
ATOM     25  C   UNL     1       0.306   8.583  21.574  0.00  0.00    +0.000 A 
ATOM     26  C   UNL     1      -0.410   9.754  21.805  0.00  0.00    +0.000 A 
ATOM     27  C   UNL     1      -0.241  10.821  20.939  0.00  0.00    +0.000 A 
ATOM     28  C   UNL     1       0.485  10.647  19.759  0.00  0.00    +0.000 A 
ATOM     29  C   UNL     1       1.180   9.470  19.509  0.00  0.00    +0.000 A 
ATOM     30  O   UNL     1       0.654  11.686  18.881  0.00  0.00    +0.000 OA
ATOM     31  C   UNL     1       0.980  12.821  19.681  0.00  0.00    +0.000 C 
ATOM     32  C   UNL     1      -0.131  13.148  20.676  0.00  0.00    +0.000 C 
ATOM     33  O   UNL     1      -0.741  12.027  21.333  0.00  0.00    +0.000 OA
ENDBRANCH  22  24
ENDBRANCH  19  21
ENDBRANCH   1  19
TORSDOF 6
ENDMDL
MODEL 8
REMARK VINA RESULT:      -8.1      1.371      1.667
REMARK  Name = 
REMARK  6 active torsions:
REMARK  status: ('A' for Active; 'I' for Inactive)
REMARK    1  A    between atoms: C_2  and  C_3
REMARK    2  A    between atoms: C_3  and  C_4
REMARK    3  A    between atoms: N_10  and  C_11
REMARK    4  A    between atoms: C_11  and  N_13
REMARK    5  A    between atoms: N_13  and  C_14
REMARK    6  A    between atoms: N_20  and  C_21
REMARK                            x       y       z     vdW  Elec       q    Type
REMARK                         _______ _______ _______ _____ _____    ______ ____
ROOT
ATOM      1  C   UNL     1       2.282   4.510  19.882  0.00  0.00    +0.000 C 
ATOM      2  C   UNL     1       2.442   3.204  20.733  0.00  0.00    +0.000 C 
ATOM      3  O   UNL     1       2.079   3.139  21.908  0.00  0.00    +0.000 OA
ATOM      4  N   UNL     1       2.890   2.068  20.106  0.00  0.00    +0.000 N 
ATOM      5  C   UNL     1       3.512   2.114  18.800  0.00  0.00    +0.000 C 
ATOM      6  C   UNL     1       2.805   3.121  17.902  0.00  0.00    +0.000 C 
ATOM      7  N   UNL     1       2.904   4.449  18.521  0.00  0.00    +0.000 N 
ATOM      8  H   UNL     1       3.119   1.315  20.743  0.00  0.00    +0.000 HD
ENDROOT
BRANCH   7   9
ATOM      9  C   UNL     1       3.329   5.519  17.738  0.00  0.00    +0.000 C 
ATOM     10  S   UNL     1       2.566   7.002  17.640  0.00  0.00    +0.000 S 
BRANCH   9  11
ATOM     11  N   UNL     1       4.583   5.409  17.179  0.00  0.00    +0.000 N 
ATOM     12  H   UNL     1       4.686   4.752  16.414  0.00  0.00    +0.000 HD
BRANCH  11  13
ATOM     13  C   UNL     1       5.756   5.944  17.739  0.00  0.00    +0.000 A 
ATOM     14  C   UNL     1       6.374   7.050  17.153  0.00  0.00    +0.000 A 
ATOM     15  C   UNL     1       7.607   7.496  17.608  0.00  0.00    +0.000 A 
ATOM     16  C   UNL     1       8.212   6.852  18.680  0.00  0.00    +0.000 A 
ATOM     17  C   UNL     1       7.560   5.795  19.322  0.00  0.00    +0.000 A 
ATOM     18  C   UNL     1       6.315   5.352  18.868  0.00  0.00    +0.000 A 
ENDBRANCH  11  13
ENDBRANCH   9  11
ENDBRANCH   7   9
BRANCH   1  19
ATOM     19  C   UNL     1       2.601   5.712  20.779  0.00  0.00    +0.000 C 
BRANCH  19  21
ATOM     20  O   UNL     1       0.267   6.209  20.668  0.00  0.00    +0.000 OA
ATOM     21  C   UNL     1       1.407   6.628  20.860  0.00  0.00    +0.000 C 
ATOM     22  N   UNL     1       1.736   7.933  21.194  0.00  0.00    +0.000 N 
ATOM     23  H   UNL     1       2.674   8.098  21.544  0.00  0.00    +0.000 HD
BRANCH  22  24
ATOM     24  C   UNL     1       0.770   8.925  21.479  0.00  0.00    +0.000 A 
ATOM     25  C   UNL     1       0.019   8.918  22.663  0.00  0.00    +0.000 A 
ATOM     26  C   UNL     1      -0.627  10.073  23.097  0.00  0.00    +0.000 A 
ATOM     27  C   UNL     1      -0.530  11.221  22.329  0.00  0.00    +0.000 A 
ATOM     28  C   UNL     1       0.043  11.157  21.058  0.00  0.00    +0.000 A 
ATOM     29  C   UNL     1       0.667   9.999  20.606  0.00  0.00    +0.000 A 
ATOM     30  O   UNL     1       0.138  12.279  20.276  0.00  0.00    +0.000 OA
ATOM     31  C   UNL     1       0.593  13.318  21.141  0.00  0.00    +0.000 C 
ATOM     32  C   UNL     1      -0.380  13.560  22.292  0.00  0.00    +0.000 C 
ATOM     33  O   UNL     1      -0.941  12.388  22.902  0.00  0.00    +0.000 OA
ENDBRANCH  22  24
ENDBRANCH  19  21
ENDBRANCH   1  19
TORSDOF 6
ENDMDL
MODEL 9
REMARK VINA RESULT:      -8.1      0.989      1.079
REMARK  Name = 
REMARK  6 active torsions:
REMARK  status: ('A' for Active; 'I' for Inactive)
REMARK    1  A    between atoms: C_2  and  C_3
REMARK    2  A    between atoms: C_3  and  C_4
REMARK    3  A    between atoms: N_10  and  C_11
REMARK    4  A    between atoms: C_11  and  N_13
REMARK    5  A    between atoms: N_13  and  C_14
REMARK    6  A    between atoms: N_20  and  C_21
REMARK                            x       y       z     vdW  Elec       q    Type
REMARK                         _______ _______ _______ _____ _____    ______ ____
ROOT
ATOM      1  C   UNL     1       2.282   4.859  18.698  0.00  0.00    +0.000 C 
ATOM      2  C   UNL     1       1.460   3.992  19.712  0.00  0.00    +0.000 C 
ATOM      3  O   UNL     1       0.781   4.497  20.607  0.00  0.00    +0.000 OA
ATOM      4  N   UNL     1       1.405   2.634  19.515  0.00  0.00    +0.000 N 
ATOM      5  C   UNL     1       2.319   1.958  18.620  0.00  0.00    +0.000 C 
ATOM      6  C   UNL     1       2.563   2.791  17.368  0.00  0.00    +0.000 C 
ATOM      7  N   UNL     1       3.156   4.074  17.770  0.00  0.00    +0.000 N 
ATOM      8  H   UNL     1       0.996   2.127  20.289  0.00  0.00    +0.000 HD
ENDROOT
BRANCH   7   9
ATOM      9  C   UNL     1       4.296   4.518  17.105  0.00  0.00    +0.000 C 
ATOM     10  S   UNL     1       5.087   3.685  15.892  0.00  0.00    +0.000 S 
BRANCH   9  11
ATOM     11  N   UNL     1       4.658   5.830  17.319  0.00  0.00    +0.000 N 
ATOM     12  H   UNL     1       4.009   6.540  17.000  0.00  0.00    +0.000 HD
BRANCH  11  13
ATOM     13  C   UNL     1       5.940   6.249  17.713  0.00  0.00    +0.000 A 
ATOM     14  C   UNL     1       6.634   5.554  18.705  0.00  0.00    +0.000 A 
ATOM     15  C   UNL     1       7.833   6.042  19.206  0.00  0.00    +0.000 A 
ATOM     16  C   UNL     1       8.361   7.218  18.685  0.00  0.00    +0.000 A 
ATOM     17  C   UNL     1       7.711   7.875  17.636  0.00  0.00    +0.000 A 
ATOM     18  C   UNL     1       6.508   7.378  17.128  0.00  0.00    +0.000 A 
ENDBRANCH  11  13
ENDBRANCH   9  11
ENDBRANCH   7   9
BRANCH   1  19
ATOM     19  C   UNL     1       2.897   6.039  19.461  0.00  0.00    +0.000 C 
BRANCH  19  21
ATOM     20  O   UNL     1       2.177   7.617  17.819  0.00  0.00    +0.000 OA
ATOM     21  C   UNL     1       2.265   7.330  19.012  0.00  0.00    +0.000 C 
ATOM     22  N   UNL     1       1.791   8.105  20.059  0.00  0.00    +0.000 N 
ATOM     23  H   UNL     1       1.722   7.660  20.968  0.00  0.00    +0.000 HD
BRANCH  22  24
ATOM     24  C   UNL     1       1.024   9.278  19.869  0.00  0.00    +0.000 A 
ATOM     25  C   UNL     1      -0.129   9.546  20.621  0.00  0.00    +0.000 A 
ATOM     26  C   UNL     1      -0.638  10.840  20.695  0.00  0.00    +0.000 A 
ATOM     27  C   UNL     1       0.003  11.851  19.999  0.00  0.00    +0.000 A 
ATOM     28  C   UNL     1       1.019  11.533  19.097  0.00  0.00    +0.000 A 
ATOM     29  C   UNL     1       1.516  10.239  18.997  0.00  0.00    +0.000 A 
ATOM     30  O   UNL     1       1.659  12.518  18.388  0.00  0.00    +0.000 OA
ATOM     31  C   UNL     1       1.927  13.559  19.326  0.00  0.00    +0.000 C 
ATOM     32  C   UNL     1       0.641  14.106  19.943  0.00  0.00    +0.000 C 
ATOM     33  O   UNL     1      -0.352  13.133  20.299  0.00  0.00    +0.000 OA
ENDBRANCH  22  24
ENDBRANCH  19  21
ENDBRANCH   1  19
TORSDOF 6
ENDMDL
