MODEL 1
REMARK VINA RESULT:      -6.2      0.000      0.000
REMARK  Name = 
REMARK  3 active torsions:
REMARK  status: ('A' for Active; 'I' for Inactive)
REMARK    1  A    between atoms: C_1  and  C_2
REMARK    2  A    between atoms: C_8  and  N_9
REMARK    3  A    between atoms: N_12  and  C_13
REMARK                            x       y       z     vdW  Elec       q    Type
REMARK                         _______ _______ _______ _____ _____    ______ ____
ROOT
ATOM      1  C   UNL     1       6.541   4.520  14.448  0.00  0.00    +0.000 C 
ATOM      2  C   UNL     1       5.656   4.854  15.614  0.00  0.00    +0.000 A 
ATOM      3  C   UNL     1       5.240   6.181  15.851  0.00  0.00    +0.000 A 
ATOM      4  C   UNL     1       4.420   6.500  16.940  0.00  0.00    +0.000 A 
ATOM      5  C   UNL     1       4.035   5.474  17.782  0.00  0.00    +0.000 A 
ATOM      6  C   UNL     1       4.446   4.159  17.565  0.00  0.00    +0.000 A 
ATOM      7  C   UNL     1       5.246   3.831  16.481  0.00  0.00    +0.000 A 
ATOM      8  C   UNL     1       3.893   3.265  18.639  0.00  0.00    +0.000 C 
ATOM      9  C   UNL     1       3.087   4.272  19.517  0.00  0.00    +0.000 C 
ATOM     10  O   UNL     1       2.458   4.017  20.534  0.00  0.00    +0.000 OA
ATOM     11  N   UNL     1       3.237   5.536  18.930  0.00  0.00    +0.000 N 
ATOM     12  C   UNL     1       2.650   6.742  19.448  0.00  0.00    +0.000 C 
ENDROOT
BRANCH   8  13
ATOM     13  N   UNL     1       4.957   2.621  19.420  0.00  0.00    +0.000 NA
ATOM     14  H   UNL     1       5.331   3.301  20.081  0.00  0.00    +0.000 HD
ATOM     15  H   UNL     1       5.723   2.376  18.798  0.00  0.00    +0.000 HD
ENDBRANCH   8  13
TORSDOF 1
ENDMDL
MODEL 2
REMARK VINA RESULT:      -6.1      1.136      1.365
REMARK  Name = 
REMARK  3 active torsions:
REMARK  status: ('A' for Active; 'I' for Inactive)
REMARK    1  A    between atoms: C_1  and  C_2
REMARK    2  A    between atoms: C_8  and  N_9
REMARK    3  A    between atoms: N_12  and  C_13
REMARK                            x       y       z     vdW  Elec       q    Type
REMARK                         _______ _______ _______ _____ _____    ______ ____
ROOT
ATOM      1  C   UNL     1       5.773   5.379  15.324  0.00  0.00    +0.000 C 
ATOM      2  C   UNL     1       4.915   5.220  16.546  0.00  0.00    +0.000 A 
ATOM      3  C   UNL     1       4.200   6.316  17.076  0.00  0.00    +0.000 A 
ATOM      4  C   UNL     1       3.403   6.176  18.218  0.00  0.00    +0.000 A 
ATOM      5  C   UNL     1       3.343   4.933  18.817  0.00  0.00    +0.000 A 
ATOM      6  C   UNL     1       4.051   3.843  18.309  0.00  0.00    +0.000 A 
ATOM      7  C   UNL     1       4.831   3.967  17.169  0.00  0.00    +0.000 A 
ATOM      8  C   UNL     1       3.811   2.632  19.165  0.00  0.00    +0.000 C 
ATOM      9  C   UNL     1       2.842   3.190  20.254  0.00  0.00    +0.000 C 
ATOM     10  O   UNL     1       2.367   2.573  21.197  0.00  0.00    +0.000 OA
ATOM     11  N   UNL     1       2.634   4.544  19.959  0.00  0.00    +0.000 N 
ATOM     12  C   UNL     1       1.805   5.422  20.739  0.00  0.00    +0.000 C 
ENDROOT
BRANCH   8  13
ATOM     13  N   UNL     1       5.051   2.132  19.771  0.00  0.00    +0.000 NA
ATOM     14  H   UNL     1       4.902   1.168  20.068  0.00  0.00    +0.000 HD
ATOM     15  H   UNL     1       5.247   2.665  20.614  0.00  0.00    +0.000 HD
ENDBRANCH   8  13
TORSDOF 1
ENDMDL
MODEL 3
REMARK VINA RESULT:      -6.1      2.585      4.503
REMARK  Name = 
REMARK  3 active torsions:
REMARK  status: ('A' for Active; 'I' for Inactive)
REMARK    1  A    between atoms: C_1  and  C_2
REMARK    2  A    between atoms: C_8  and  N_9
REMARK    3  A    between atoms: N_12  and  C_13
REMARK                            x       y       z     vdW  Elec       q    Type
REMARK                         _______ _______ _______ _____ _____    ______ ____
ROOT
ATOM      1  C   UNL     1       1.373   4.550  20.492  0.00  0.00    +0.000 C 
ATOM      2  C   UNL     1       2.440   4.497  19.437  0.00  0.00    +0.000 A 
ATOM      3  C   UNL     1       2.244   3.767  18.245  0.00  0.00    +0.000 A 
ATOM      4  C   UNL     1       3.237   3.709  17.260  0.00  0.00    +0.000 A 
ATOM      5  C   UNL     1       4.421   4.382  17.494  0.00  0.00    +0.000 A 
ATOM      6  C   UNL     1       4.630   5.102  18.671  0.00  0.00    +0.000 A 
ATOM      7  C   UNL     1       3.647   5.178  19.645  0.00  0.00    +0.000 A 
ATOM      8  C   UNL     1       6.002   5.715  18.659  0.00  0.00    +0.000 C 
ATOM      9  C   UNL     1       6.558   5.242  17.279  0.00  0.00    +0.000 C 
ATOM     10  O   UNL     1       7.663   5.482  16.814  0.00  0.00    +0.000 OA
ATOM     11  N   UNL     1       5.555   4.469  16.679  0.00  0.00    +0.000 N 
ATOM     12  C   UNL     1       5.682   3.837  15.394  0.00  0.00    +0.000 C 
ENDROOT
BRANCH   8  13
ATOM     13  N   UNL     1       6.836   5.218  19.760  0.00  0.00    +0.000 NA
ATOM     14  H   UNL     1       7.670   5.801  19.824  0.00  0.00    +0.000 HD
ATOM     15  H   UNL     1       7.159   4.280  19.535  0.00  0.00    +0.000 HD
ENDBRANCH   8  13
TORSDOF 1
ENDMDL
MODEL 4
REMARK VINA RESULT:      -6.1      1.319      1.439
REMARK  Name = 
REMARK  3 active torsions:
REMARK  status: ('A' for Active; 'I' for Inactive)
REMARK    1  A    between atoms: C_1  and  C_2
REMARK    2  A    between atoms: C_8  and  N_9
REMARK    3  A    between atoms: N_12  and  C_13
REMARK                            x       y       z     vdW  Elec       q    Type
REMARK                         _______ _______ _______ _____ _____    ______ ____
ROOT
ATOM      1  C   UNL     1       6.064   5.173  15.068  0.00  0.00    +0.000 C 
ATOM      2  C   UNL     1       5.098   5.008  16.205  0.00  0.00    +0.000 A 
ATOM      3  C   UNL     1       4.739   6.106  17.016  0.00  0.00    +0.000 A 
ATOM      4  C   UNL     1       3.844   5.957  18.082  0.00  0.00    +0.000 A 
ATOM      5  C   UNL     1       3.327   4.698  18.322  0.00  0.00    +0.000 A 
ATOM      6  C   UNL     1       3.680   3.602  17.534  0.00  0.00    +0.000 A 
ATOM      7  C   UNL     1       4.554   3.742  16.467  0.00  0.00    +0.000 A 
ATOM      8  C   UNL     1       2.983   2.368  18.032  0.00  0.00    +0.000 C 
ATOM      9  C   UNL     1       2.160   2.921  19.236  0.00  0.00    +0.000 C 
ATOM     10  O   UNL     1       1.429   2.282  19.979  0.00  0.00    +0.000 OA
ATOM     11  N   UNL     1       2.434   4.293  19.320  0.00  0.00    +0.000 N 
ATOM     12  C   UNL     1       1.873   5.170  20.313  0.00  0.00    +0.000 C 
ENDROOT
BRANCH   8  13
ATOM     13  N   UNL     1       3.934   1.339  18.473  0.00  0.00    +0.000 NA
ATOM     14  H   UNL     1       4.874   1.734  18.445  0.00  0.00    +0.000 HD
ATOM     15  H   UNL     1       3.926   0.572  17.807  0.00  0.00    +0.000 HD
ENDBRANCH   8  13
TORSDOF 1
ENDMDL
MODEL 5
REMARK VINA RESULT:      -6.0      2.346      3.663
REMARK  Name = 
REMARK  3 active torsions:
REMARK  status: ('A' for Active; 'I' for Inactive)
REMARK    1  A    between atoms: C_1  and  C_2
REMARK    2  A    between atoms: C_8  and  N_9
REMARK    3  A    between atoms: N_12  and  C_13
REMARK                            x       y       z     vdW  Elec       q    Type
REMARK                         _______ _______ _______ _____ _____    ______ ____
ROOT
ATOM      1  C   UNL     1       2.593   8.352  17.832  0.00  0.00    +0.000 C 
ATOM      2  C   UNL     1       2.690   7.039  18.556  0.00  0.00    +0.000 A 
ATOM      3  C   UNL     1       1.911   6.787  19.705  0.00  0.00    +0.000 A 
ATOM      4  C   UNL     1       2.002   5.568  20.388  0.00  0.00    +0.000 A 
ATOM      5  C   UNL     1       2.885   4.621  19.906  0.00  0.00    +0.000 A 
ATOM      6  C   UNL     1       3.667   4.860  18.776  0.00  0.00    +0.000 A 
ATOM      7  C   UNL     1       3.574   6.058  18.084  0.00  0.00    +0.000 A 
ATOM      8  C   UNL     1       4.539   3.669  18.494  0.00  0.00    +0.000 C 
ATOM      9  C   UNL     1       4.134   2.691  19.641  0.00  0.00    +0.000 C 
ATOM     10  O   UNL     1       4.587   1.574  19.845  0.00  0.00    +0.000 OA
ATOM     11  N   UNL     1       3.162   3.345  20.410  0.00  0.00    +0.000 N 
ATOM     12  C   UNL     1       2.537   2.778  21.575  0.00  0.00    +0.000 C 
ENDROOT
BRANCH   8  13
ATOM     13  N   UNL     1       5.967   4.003  18.568  0.00  0.00    +0.000 NA
ATOM     14  H   UNL     1       6.380   3.490  19.346  0.00  0.00    +0.000 HD
ATOM     15  H   UNL     1       6.066   4.990  18.791  0.00  0.00    +0.000 HD
ENDBRANCH   8  13
TORSDOF 1
ENDMDL
MODEL 6
REMARK VINA RESULT:      -6.0      2.907      4.322
REMARK  Name = 
REMARK  3 active torsions:
REMARK  status: ('A' for Active; 'I' for Inactive)
REMARK    1  A    between atoms: C_1  and  C_2
REMARK    2  A    between atoms: C_8  and  N_9
REMARK    3  A    between atoms: N_12  and  C_13
REMARK                            x       y       z     vdW  Elec       q    Type
REMARK                         _______ _______ _______ _____ _____    ______ ____
ROOT
ATOM      1  C   UNL     1       1.068   3.491  18.474  0.00  0.00    +0.000 C 
ATOM      2  C   UNL     1       2.510   3.905  18.407  0.00  0.00    +0.000 A 
ATOM      3  C   UNL     1       3.112   4.607  19.473  0.00  0.00    +0.000 A 
ATOM      4  C   UNL     1       4.454   5.001  19.415  0.00  0.00    +0.000 A 
ATOM      5  C   UNL     1       5.171   4.689  18.275  0.00  0.00    +0.000 A 
ATOM      6  C   UNL     1       4.585   4.003  17.210  0.00  0.00    +0.000 A 
ATOM      7  C   UNL     1       3.262   3.595  17.265  0.00  0.00    +0.000 A 
ATOM      8  C   UNL     1       5.589   3.816  16.108  0.00  0.00    +0.000 C 
ATOM      9  C   UNL     1       6.859   4.500  16.705  0.00  0.00    +0.000 C 
ATOM     10  O   UNL     1       7.951   4.615  16.166  0.00  0.00    +0.000 OA
ATOM     11  N   UNL     1       6.506   4.978  17.974  0.00  0.00    +0.000 N 
ATOM     12  C   UNL     1       7.402   5.684  18.850  0.00  0.00    +0.000 C 
ENDROOT
BRANCH   8  13
ATOM     13  N   UNL     1       5.171   4.478  14.866  0.00  0.00    +0.000 NA
ATOM     14  H   UNL     1       4.153   4.464  14.818  0.00  0.00    +0.000 HD
ATOM     15  H   UNL     1       5.502   3.934  14.073  0.00  0.00    +0.000 HD
ENDBRANCH   8  13
TORSDOF 1
ENDMDL
MODEL 7
REMARK VINA RESULT:      -5.9      3.165      4.682
REMARK  Name = 
REMARK  3 active torsions:
REMARK  status: ('A' for Active; 'I' for Inactive)
REMARK    1  A    between atoms: C_1  and  C_2
REMARK    2  A    between atoms: C_8  and  N_9
REMARK    3  A    between atoms: N_12  and  C_13
REMARK                            x       y       z     vdW  Elec       q    Type
REMARK                         _______ _______ _______ _____ _____    ______ ____
ROOT
ATOM      1  C   UNL     1       3.396   3.020  20.414  0.00  0.00    +0.000 C 
ATOM      2  C   UNL     1       3.945   3.378  19.063  0.00  0.00    +0.000 A 
ATOM      3  C   UNL     1       3.218   3.090  17.888  0.00  0.00    +0.000 A 
ATOM      4  C   UNL     1       3.726   3.414  16.625  0.00  0.00    +0.000 A 
ATOM      5  C   UNL     1       4.968   4.019  16.562  0.00  0.00    +0.000 A 
ATOM      6  C   UNL     1       5.700   4.302  17.716  0.00  0.00    +0.000 A 
ATOM      7  C   UNL     1       5.198   3.998  18.972  0.00  0.00    +0.000 A 
ATOM      8  C   UNL     1       7.008   4.942  17.347  0.00  0.00    +0.000 C 
ATOM      9  C   UNL     1       6.919   4.993  15.790  0.00  0.00    +0.000 C 
ATOM     10  O   UNL     1       7.766   5.425  15.022  0.00  0.00    +0.000 OA
ATOM     11  N   UNL     1       5.687   4.427  15.434  0.00  0.00    +0.000 N 
ATOM     12  C   UNL     1       5.228   4.278  14.080  0.00  0.00    +0.000 C 
ENDROOT
BRANCH   8  13
ATOM     13  N   UNL     1       8.156   4.136  17.782  0.00  0.00    +0.000 NA
ATOM     14  H   UNL     1       8.752   4.713  18.375  0.00  0.00    +0.000 HD
ATOM     15  H   UNL     1       8.715   3.889  16.969  0.00  0.00    +0.000 HD
ENDBRANCH   8  13
TORSDOF 1
ENDMDL
MODEL 8
REMARK VINA RESULT:      -5.9      3.034      4.428
REMARK  Name = 
REMARK  3 active torsions:
REMARK  status: ('A' for Active; 'I' for Inactive)
REMARK    1  A    between atoms: C_1  and  C_2
REMARK    2  A    between atoms: C_8  and  N_9
REMARK    3  A    between atoms: N_12  and  C_13
REMARK                            x       y       z     vdW  Elec       q    Type
REMARK                         _______ _______ _______ _____ _____    ______ ____
ROOT
ATOM      1  C   UNL     1       2.361   2.309  17.691  0.00  0.00    +0.000 C 
ATOM      2  C   UNL     1       3.581   3.164  17.879  0.00  0.00    +0.000 A 
ATOM      3  C   UNL     1       4.218   3.251  19.135  0.00  0.00    +0.000 A 
ATOM      4  C   UNL     1       5.351   4.051  19.318  0.00  0.00    +0.000 A 
ATOM      5  C   UNL     1       5.824   4.763  18.232  0.00  0.00    +0.000 A 
ATOM      6  C   UNL     1       5.199   4.693  16.986  0.00  0.00    +0.000 A 
ATOM      7  C   UNL     1       4.085   3.891  16.791  0.00  0.00    +0.000 A 
ATOM      8  C   UNL     1       5.915   5.576  16.004  0.00  0.00    +0.000 C 
ATOM      9  C   UNL     1       7.065   6.168  16.876  0.00  0.00    +0.000 C 
ATOM     10  O   UNL     1       7.921   6.964  16.517  0.00  0.00    +0.000 OA
ATOM     11  N   UNL     1       6.920   5.630  18.162  0.00  0.00    +0.000 N 
ATOM     12  C   UNL     1       7.784   5.938  19.269  0.00  0.00    +0.000 C 
ENDROOT
BRANCH   8  13
ATOM     13  N   UNL     1       5.046   6.640  15.486  0.00  0.00    +0.000 NA
ATOM     14  H   UNL     1       4.113   6.255  15.340  0.00  0.00    +0.000 HD
ATOM     15  H   UNL     1       5.384   6.928  14.571  0.00  0.00    +0.000 HD
ENDBRANCH   8  13
TORSDOF 1
ENDMDL
MODEL 9
REMARK VINA RESULT:      -5.9      3.069      4.337
REMARK  Name = 
REMARK  3 active torsions:
REMARK  status: ('A' for Active; 'I' for Inactive)
REMARK    1  A    between atoms: C_1  and  C_2
REMARK    2  A    between atoms: C_8  and  N_9
REMARK    3  A    between atoms: N_12  and  C_13
REMARK                            x       y       z     vdW  Elec       q    Type
REMARK                         _______ _______ _______ _____ _____    ______ ____
ROOT
ATOM      1  C   UNL     1       1.434   3.406  18.254  0.00  0.00    +0.000 C 
ATOM      2  C   UNL     1       2.698   4.148  17.925  0.00  0.00    +0.000 A 
ATOM      3  C   UNL     1       3.053   5.320  18.626  0.00  0.00    +0.000 A 
ATOM      4  C   UNL     1       4.226   6.019  18.319  0.00  0.00    +0.000 A 
ATOM      5  C   UNL     1       5.024   5.531  17.301  0.00  0.00    +0.000 A 
ATOM      6  C   UNL     1       4.680   4.378  16.595  0.00  0.00    +0.000 A 
ATOM      7  C   UNL     1       3.528   3.670  16.901  0.00  0.00    +0.000 A 
ATOM      8  C   UNL     1       5.716   4.093  15.544  0.00  0.00    +0.000 C 
ATOM      9  C   UNL     1       6.725   5.265  15.756  0.00  0.00    +0.000 C 
ATOM     10  O   UNL     1       7.747   5.475  15.119  0.00  0.00    +0.000 OA
ATOM     11  N   UNL     1       6.226   6.048  16.806  0.00  0.00    +0.000 N 
ATOM     12  C   UNL     1       6.865   7.236  17.302  0.00  0.00    +0.000 C 
ENDROOT
BRANCH   8  13
ATOM     13  N   UNL     1       5.149   4.126  14.190  0.00  0.00    +0.000 NA
ATOM     14  H   UNL     1       5.213   3.190  13.789  0.00  0.00    +0.000 HD
ATOM     15  H   UNL     1       5.721   4.728  13.605  0.00  0.00    +0.000 HD
ENDBRANCH   8  13
TORSDOF 1
ENDMDL
