MODEL 1
REMARK VINA RESULT:      -8.2      0.000      0.000
REMARK  Name = 
REMARK  9 active torsions:
REMARK  status: ('A' for Active; 'I' for Inactive)
REMARK    1  A    between atoms: C_1  and  O_2
REMARK    2  A    between atoms: O_2  and  C_3
REMARK    3  A    between atoms: C_5  and  C_6
REMARK    4  A    between atoms: C_9  and  C_10
REMARK    5  A    between atoms: N_17  and  C_18
REMARK    6  A    between atoms: C_24  and  O_25
REMARK    7  A    between atoms: O_25  and  C_26
REMARK    8  A    between atoms: C_27  and  O_28
REMARK    9  A    between atoms: O_28  and  C_29
REMARK                            x       y       z     vdW  Elec       q    Type
REMARK                         _______ _______ _______ _____ _____    ______ ____
ROOT
ATOM      1  C   UNL     1       4.097   4.483  18.146  0.00  0.00    +0.000 C 
ATOM      2  C   UNL     1       2.758   4.154  17.478  0.00  0.00    +0.000 C 
ATOM      3  N   UNL     1       1.879   5.289  17.789  0.00  0.00    +0.000 NA
ATOM      4  C   UNL     1       2.640   6.100  18.462  0.00  0.00    +0.000 C 
ATOM      5  O   UNL     1       3.902   5.746  18.769  0.00  0.00    +0.000 OA
ENDROOT
BRANCH   4   6
ATOM      6  C   UNL     1       2.229   7.441  18.910  0.00  0.00    +0.000 A 
ATOM      7  C   UNL     1       1.934   8.474  18.018  0.00  0.00    +0.000 A 
ATOM      8  C   UNL     1       1.190   9.601  18.439  0.00  0.00    +0.000 A 
ATOM      9  C   UNL     1       0.744   9.637  19.779  0.00  0.00    +0.000 A 
ATOM     10  C   UNL     1       1.161   8.658  20.697  0.00  0.00    +0.000 A 
ATOM     11  C   UNL     1       0.645   8.986  21.970  0.00  0.00    +0.000 A 
ATOM     12  C   UNL     1      -0.322   9.937  21.754  0.00  0.00    +0.000 A 
ATOM     13  N   UNL     1      -0.110  10.458  20.506  0.00  0.00    +0.000 N 
ATOM     14  C   UNL     1       1.927   7.568  20.262  0.00  0.00    +0.000 A 
BRANCH  13  15
ATOM     15  C   UNL     1      -0.678  11.758  20.219  0.00  0.00    +0.000 C 
ATOM     16  C   UNL     1      -1.701  11.881  19.107  0.00  0.00    +0.000 C 
ATOM     17  C   UNL     1      -2.056  12.291  20.496  0.00  0.00    +0.000 C 
ENDBRANCH  13  15
ENDBRANCH   4   6
BRANCH   1  20
ATOM     18  C   UNL     1       6.276   4.058  15.055  0.00  0.00    +0.000 A 
ATOM     19  C   UNL     1       5.401   3.766  16.108  0.00  0.00    +0.000 A 
ATOM     20  C   UNL     1       5.261   4.629  17.196  0.00  0.00    +0.000 A 
ATOM     21  C   UNL     1       6.136   5.712  17.291  0.00  0.00    +0.000 A 
ATOM     22  C   UNL     1       7.102   5.966  16.301  0.00  0.00    +0.000 A 
ATOM     23  C   UNL     1       7.177   5.140  15.155  0.00  0.00    +0.000 A 
BRANCH  18  25
ATOM     24  C   UNL     1       5.159   3.567  13.030  0.00  0.00    +0.000 C 
ATOM     25  O   UNL     1       6.238   3.277  13.925  0.00  0.00    +0.000 OA
ENDBRANCH  18  25
BRANCH  22  26
ATOM     26  O   UNL     1       7.840   7.083  16.609  0.00  0.00    +0.000 OA
ATOM     27  C   UNL     1       7.864   7.558  17.945  0.00  0.00    +0.000 C 
ENDBRANCH  22  26
BRANCH  23  28
ATOM     28  O   UNL     1       8.123   5.482  14.228  0.00  0.00    +0.000 OA
ATOM     29  C   UNL     1       7.813   5.499  12.845  0.00  0.00    +0.000 C 
ENDBRANCH  23  28
ENDBRANCH   1  20
TORSDOF 6
ENDMDL
MODEL 2
REMARK VINA RESULT:      -7.9      4.402      9.912
REMARK  Name = 
REMARK  9 active torsions:
REMARK  status: ('A' for Active; 'I' for Inactive)
REMARK    1  A    between atoms: C_1  and  O_2
REMARK    2  A    between atoms: O_2  and  C_3
REMARK    3  A    between atoms: C_5  and  C_6
REMARK    4  A    between atoms: C_9  and  C_10
REMARK    5  A    between atoms: N_17  and  C_18
REMARK    6  A    between atoms: C_24  and  O_25
REMARK    7  A    between atoms: O_25  and  C_26
REMARK    8  A    between atoms: C_27  and  O_28
REMARK    9  A    between atoms: O_28  and  C_29
REMARK                            x       y       z     vdW  Elec       q    Type
REMARK                         _______ _______ _______ _____ _____    ______ ____
ROOT
ATOM      1  C   UNL     1      -0.211  11.553  19.704  0.00  0.00    +0.000 C 
ATOM      2  C   UNL     1       0.756  11.908  18.569  0.00  0.00    +0.000 C 
ATOM      3  N   UNL     1       1.683  10.774  18.478  0.00  0.00    +0.000 NA
ATOM      4  C   UNL     1       1.249   9.940  19.377  0.00  0.00    +0.000 C 
ATOM      5  O   UNL     1       0.212  10.276  20.167  0.00  0.00    +0.000 OA
ENDROOT
BRANCH   4   6
ATOM      6  C   UNL     1       1.801   8.592  19.591  0.00  0.00    +0.000 A 
ATOM      7  C   UNL     1       1.454   7.803  20.689  0.00  0.00    +0.000 A 
ATOM      8  C   UNL     1       1.683   6.407  20.677  0.00  0.00    +0.000 A 
ATOM      9  C   UNL     1       2.254   5.840  19.516  0.00  0.00    +0.000 A 
ATOM     10  C   UNL     1       2.721   6.662  18.476  0.00  0.00    +0.000 A 
ATOM     11  C   UNL     1       3.322   5.845  17.492  0.00  0.00    +0.000 A 
ATOM     12  C   UNL     1       2.927   4.560  17.774  0.00  0.00    +0.000 A 
ATOM     13  N   UNL     1       2.484   4.545  19.069  0.00  0.00    +0.000 N 
ATOM     14  C   UNL     1       2.512   8.047  18.526  0.00  0.00    +0.000 A 
BRANCH  13  15
ATOM     15  C   UNL     1       2.448   3.267  19.748  0.00  0.00    +0.000 C 
ATOM     16  C   UNL     1       1.148   2.810  20.381  0.00  0.00    +0.000 C 
ATOM     17  C   UNL     1       1.804   1.973  19.336  0.00  0.00    +0.000 C 
ENDBRANCH  13  15
ENDBRANCH   4   6
BRANCH   1  20
ATOM     18  C   UNL     1      -3.936  12.273  19.409  0.00  0.00    +0.000 A 
ATOM     19  C   UNL     1      -2.653  12.136  19.952  0.00  0.00    +0.000 A 
ATOM     20  C   UNL     1      -1.655  11.420  19.288  0.00  0.00    +0.000 A 
ATOM     21  C   UNL     1      -2.014  10.704  18.146  0.00  0.00    +0.000 A 
ATOM     22  C   UNL     1      -3.326  10.733  17.640  0.00  0.00    +0.000 A 
ATOM     23  C   UNL     1      -4.309  11.535  18.266  0.00  0.00    +0.000 A 
BRANCH  18  25
ATOM     24  C   UNL     1      -4.835  13.092  21.436  0.00  0.00    +0.000 C 
ATOM     25  O   UNL     1      -4.820  13.140  20.005  0.00  0.00    +0.000 OA
ENDBRANCH  18  25
BRANCH  22  26
ATOM     26  O   UNL     1      -3.435   9.957  16.511  0.00  0.00    +0.000 OA
ATOM     27  C   UNL     1      -3.100  10.509  15.249  0.00  0.00    +0.000 C 
ENDBRANCH  22  26
BRANCH  23  28
ATOM     28  O   UNL     1      -5.547  11.530  17.685  0.00  0.00    +0.000 OA
ATOM     29  C   UNL     1      -6.637  10.869  18.304  0.00  0.00    +0.000 C 
ENDBRANCH  23  28
ENDBRANCH   1  20
TORSDOF 6
ENDMDL
MODEL 3
REMARK VINA RESULT:      -7.7      4.921     10.254
REMARK  Name = 
REMARK  9 active torsions:
REMARK  status: ('A' for Active; 'I' for Inactive)
REMARK    1  A    between atoms: C_1  and  O_2
REMARK    2  A    between atoms: O_2  and  C_3
REMARK    3  A    between atoms: C_5  and  C_6
REMARK    4  A    between atoms: C_9  and  C_10
REMARK    5  A    between atoms: N_17  and  C_18
REMARK    6  A    between atoms: C_24  and  O_25
REMARK    7  A    between atoms: O_25  and  C_26
REMARK    8  A    between atoms: C_27  and  O_28
REMARK    9  A    between atoms: O_28  and  C_29
REMARK                            x       y       z     vdW  Elec       q    Type
REMARK                         _______ _______ _______ _____ _____    ______ ____
ROOT
ATOM      1  C   UNL     1      -1.031  12.379  19.652  0.00  0.00    +0.000 C 
ATOM      2  C   UNL     1      -0.044  12.754  18.542  0.00  0.00    +0.000 C 
ATOM      3  N   UNL     1       0.988  11.710  18.570  0.00  0.00    +0.000 NA
ATOM      4  C   UNL     1       0.587  10.897  19.501  0.00  0.00    +0.000 C 
ATOM      5  O   UNL     1      -0.516  11.180  20.219  0.00  0.00    +0.000 OA
ENDROOT
BRANCH   4   6
ATOM      6  C   UNL     1       1.250   9.624  19.830  0.00  0.00    +0.000 A 
ATOM      7  C   UNL     1       1.026   8.948  21.031  0.00  0.00    +0.000 A 
ATOM      8  C   UNL     1       1.358   7.579  21.162  0.00  0.00    +0.000 A 
ATOM      9  C   UNL     1       1.903   6.920  20.038  0.00  0.00    +0.000 A 
ATOM     10  C   UNL     1       2.246   7.643  18.883  0.00  0.00    +0.000 A 
ATOM     11  C   UNL     1       2.849   6.758  17.961  0.00  0.00    +0.000 A 
ATOM     12  C   UNL     1       2.569   5.492  18.412  0.00  0.00    +0.000 A 
ATOM     13  N   UNL     1       2.203   5.599  19.727  0.00  0.00    +0.000 N 
ATOM     14  C   UNL     1       1.938   9.007  18.790  0.00  0.00    +0.000 A 
BRANCH  13  15
ATOM     15  C   UNL     1       2.303   4.410  20.547  0.00  0.00    +0.000 C 
ATOM     16  C   UNL     1       1.151   3.424  20.551  0.00  0.00    +0.000 C 
ATOM     17  C   UNL     1       2.514   2.977  20.147  0.00  0.00    +0.000 C 
ENDBRANCH  13  15
ENDBRANCH   4   6
BRANCH   1  20
ATOM     18  C   UNL     1      -4.831  12.436  19.450  0.00  0.00    +0.000 A 
ATOM     19  C   UNL     1      -3.533  12.414  19.975  0.00  0.00    +0.000 A 
ATOM     20  C   UNL     1      -2.434  12.083  19.181  0.00  0.00    +0.000 A 
ATOM     21  C   UNL     1      -2.676  11.612  17.890  0.00  0.00    +0.000 A 
ATOM     22  C   UNL     1      -3.981  11.517  17.374  0.00  0.00    +0.000 A 
ATOM     23  C   UNL     1      -5.084  11.942  18.152  0.00  0.00    +0.000 A 
BRANCH  18  25
ATOM     24  C   UNL     1      -6.613  11.971  20.932  0.00  0.00    +0.000 C 
ATOM     25  O   UNL     1      -5.849  12.948  20.217  0.00  0.00    +0.000 OA
ENDBRANCH  18  25
BRANCH  22  26
ATOM     26  O   UNL     1      -3.967  11.034  16.087  0.00  0.00    +0.000 OA
ATOM     27  C   UNL     1      -2.932  10.153  15.684  0.00  0.00    +0.000 C 
ENDBRANCH  22  26
BRANCH  23  28
ATOM     28  O   UNL     1      -6.311  11.846  17.557  0.00  0.00    +0.000 OA
ATOM     29  C   UNL     1      -6.930  12.983  16.980  0.00  0.00    +0.000 C 
ENDBRANCH  23  28
ENDBRANCH   1  20
TORSDOF 6
ENDMDL
MODEL 4
REMARK VINA RESULT:      -7.7      0.584      2.517
REMARK  Name = 
REMARK  9 active torsions:
REMARK  status: ('A' for Active; 'I' for Inactive)
REMARK    1  A    between atoms: C_1  and  O_2
REMARK    2  A    between atoms: O_2  and  C_3
REMARK    3  A    between atoms: C_5  and  C_6
REMARK    4  A    between atoms: C_9  and  C_10
REMARK    5  A    between atoms: N_17  and  C_18
REMARK    6  A    between atoms: C_24  and  O_25
REMARK    7  A    between atoms: O_25  and  C_26
REMARK    8  A    between atoms: C_27  and  O_28
REMARK    9  A    between atoms: O_28  and  C_29
REMARK                            x       y       z     vdW  Elec       q    Type
REMARK                         _______ _______ _______ _____ _____    ______ ____
ROOT
ATOM      1  C   UNL     1       3.937   4.795  18.058  0.00  0.00    +0.000 C 
ATOM      2  C   UNL     1       2.528   4.437  17.572  0.00  0.00    +0.000 C 
ATOM      3  N   UNL     1       1.665   5.527  18.044  0.00  0.00    +0.000 NA
ATOM      4  C   UNL     1       2.485   6.345  18.634  0.00  0.00    +0.000 C 
ATOM      5  O   UNL     1       3.789   6.030  18.749  0.00  0.00    +0.000 OA
ENDROOT
BRANCH   4   6
ATOM      6  C   UNL     1       2.097   7.654  19.184  0.00  0.00    +0.000 A 
ATOM      7  C   UNL     1       1.825   8.759  18.375  0.00  0.00    +0.000 A 
ATOM      8  C   UNL     1       1.101   9.863  18.880  0.00  0.00    +0.000 A 
ATOM      9  C   UNL     1       0.648   9.802  20.218  0.00  0.00    +0.000 A 
ATOM     10  C   UNL     1       1.044   8.747  21.057  0.00  0.00    +0.000 A 
ATOM     11  C   UNL     1       0.527   8.984  22.351  0.00  0.00    +0.000 A 
ATOM     12  C   UNL     1      -0.421   9.967  22.206  0.00  0.00    +0.000 A 
ATOM     13  N   UNL     1      -0.193  10.580  21.004  0.00  0.00    +0.000 N 
ATOM     14  C   UNL     1       1.791   7.680  20.542  0.00  0.00    +0.000 A 
BRANCH  13  15
ATOM     15  C   UNL     1      -0.736  11.909  20.818  0.00  0.00    +0.000 C 
ATOM     16  C   UNL     1       0.092  13.105  21.247  0.00  0.00    +0.000 C 
ATOM     17  C   UNL     1      -0.357  12.977  19.831  0.00  0.00    +0.000 C 
ENDBRANCH  13  15
ENDBRANCH   4   6
BRANCH   1  20
ATOM     18  C   UNL     1       7.006   6.098  16.224  0.00  0.00    +0.000 A 
ATOM     19  C   UNL     1       5.879   6.053  17.054  0.00  0.00    +0.000 A 
ATOM     20  C   UNL     1       4.950   5.016  16.962  0.00  0.00    +0.000 A 
ATOM     21  C   UNL     1       5.082   4.108  15.910  0.00  0.00    +0.000 A 
ATOM     22  C   UNL     1       6.145   4.196  14.992  0.00  0.00    +0.000 A 
ATOM     23  C   UNL     1       7.135   5.195  15.147  0.00  0.00    +0.000 A 
BRANCH  18  25
ATOM     24  C   UNL     1       7.692   7.922  17.562  0.00  0.00    +0.000 C 
ATOM     25  O   UNL     1       7.982   7.030  16.480  0.00  0.00    +0.000 OA
ENDBRANCH  18  25
BRANCH  22  26
ATOM     26  O   UNL     1       6.067   3.196  14.053  0.00  0.00    +0.000 OA
ATOM     27  C   UNL     1       5.414   3.446  12.819  0.00  0.00    +0.000 C 
ENDBRANCH  22  26
BRANCH  23  28
ATOM     28  O   UNL     1       8.149   5.183  14.229  0.00  0.00    +0.000 OA
ATOM     29  C   UNL     1       7.966   5.734  12.937  0.00  0.00    +0.000 C 
ENDBRANCH  23  28
ENDBRANCH   1  20
TORSDOF 6
ENDMDL
MODEL 5
REMARK VINA RESULT:      -7.7      2.700      5.432
REMARK  Name = 
REMARK  9 active torsions:
REMARK  status: ('A' for Active; 'I' for Inactive)
REMARK    1  A    between atoms: C_1  and  O_2
REMARK    2  A    between atoms: O_2  and  C_3
REMARK    3  A    between atoms: C_5  and  C_6
REMARK    4  A    between atoms: C_9  and  C_10
REMARK    5  A    between atoms: N_17  and  C_18
REMARK    6  A    between atoms: C_24  and  O_25
REMARK    7  A    between atoms: O_25  and  C_26
REMARK    8  A    between atoms: C_27  and  O_28
REMARK    9  A    between atoms: O_28  and  C_29
REMARK                            x       y       z     vdW  Elec       q    Type
REMARK                         _______ _______ _______ _____ _____    ______ ____
ROOT
ATOM      1  C   UNL     1       2.200   7.962  19.935  0.00  0.00    +0.000 C 
ATOM      2  C   UNL     1       1.616   8.127  21.342  0.00  0.00    +0.000 C 
ATOM      3  N   UNL     1       0.500   9.069  21.192  0.00  0.00    +0.000 NA
ATOM      4  C   UNL     1       0.469   9.319  19.916  0.00  0.00    +0.000 C 
ATOM      5  O   UNL     1       1.400   8.790  19.100  0.00  0.00    +0.000 OA
ENDROOT
BRANCH   4   6
ATOM      6  C   UNL     1      -0.559  10.141  19.258  0.00  0.00    +0.000 A 
ATOM      7  C   UNL     1      -1.171   9.765  18.061  0.00  0.00    +0.000 A 
ATOM      8  C   UNL     1      -2.393  10.353  17.657  0.00  0.00    +0.000 A 
ATOM      9  C   UNL     1      -2.978  11.314  18.512  0.00  0.00    +0.000 A 
ATOM     10  C   UNL     1      -2.287  11.779  19.643  0.00  0.00    +0.000 A 
ATOM     11  C   UNL     1      -3.058  12.792  20.257  0.00  0.00    +0.000 A 
ATOM     12  C   UNL     1      -4.313  12.698  19.707  0.00  0.00    +0.000 A 
ATOM     13  N   UNL     1      -4.198  11.979  18.548  0.00  0.00    +0.000 N 
ATOM     14  C   UNL     1      -1.061  11.205  20.004  0.00  0.00    +0.000 A 
BRANCH  13  15
ATOM     15  C   UNL     1      -5.251  12.124  17.565  0.00  0.00    +0.000 C 
ATOM     16  C   UNL     1      -6.606  11.505  17.847  0.00  0.00    +0.000 C 
ATOM     17  C   UNL     1      -6.492  12.970  17.598  0.00  0.00    +0.000 C 
ENDBRANCH  13  15
ENDBRANCH   4   6
BRANCH   1  20
ATOM     18  C   UNL     1       3.016   4.888  17.844  0.00  0.00    +0.000 A 
ATOM     19  C   UNL     1       2.818   6.224  18.213  0.00  0.00    +0.000 A 
ATOM     20  C   UNL     1       2.125   6.562  19.377  0.00  0.00    +0.000 A 
ATOM     21  C   UNL     1       1.491   5.538  20.082  0.00  0.00    +0.000 A 
ATOM     22  C   UNL     1       1.581   4.196  19.670  0.00  0.00    +0.000 A 
ATOM     23  C   UNL     1       2.361   3.851  18.542  0.00  0.00    +0.000 A 
BRANCH  18  25
ATOM     24  C   UNL     1       5.256   4.688  17.113  0.00  0.00    +0.000 C 
ATOM     25  O   UNL     1       3.861   4.607  16.798  0.00  0.00    +0.000 OA
ENDBRANCH  18  25
BRANCH  22  26
ATOM     26  O   UNL     1       0.881   3.373  20.521  0.00  0.00    +0.000 OA
ATOM     27  C   UNL     1       1.545   2.783  21.625  0.00  0.00    +0.000 C 
ENDBRANCH  22  26
BRANCH  23  28
ATOM     28  O   UNL     1       2.419   2.519  18.236  0.00  0.00    +0.000 OA
ATOM     29  C   UNL     1       3.524   1.729  18.638  0.00  0.00    +0.000 C 
ENDBRANCH  23  28
ENDBRANCH   1  20
TORSDOF 6
ENDMDL
MODEL 6
REMARK VINA RESULT:      -7.6      3.840      9.712
REMARK  Name = 
REMARK  9 active torsions:
REMARK  status: ('A' for Active; 'I' for Inactive)
REMARK    1  A    between atoms: C_1  and  O_2
REMARK    2  A    between atoms: O_2  and  C_3
REMARK    3  A    between atoms: C_5  and  C_6
REMARK    4  A    between atoms: C_9  and  C_10
REMARK    5  A    between atoms: N_17  and  C_18
REMARK    6  A    between atoms: C_24  and  O_25
REMARK    7  A    between atoms: O_25  and  C_26
REMARK    8  A    between atoms: C_27  and  O_28
REMARK    9  A    between atoms: O_28  and  C_29
REMARK                            x       y       z     vdW  Elec       q    Type
REMARK                         _______ _______ _______ _____ _____    ______ ____
ROOT
ATOM      1  C   UNL     1       0.351  10.742  19.546  0.00  0.00    +0.000 C 
ATOM      2  C   UNL     1       1.306  11.665  18.782  0.00  0.00    +0.000 C 
ATOM      3  N   UNL     1       2.256  10.770  18.110  0.00  0.00    +0.000 NA
ATOM      4  C   UNL     1       1.842   9.578  18.423  0.00  0.00    +0.000 C 
ATOM      5  O   UNL     1       0.801   9.423  19.262  0.00  0.00    +0.000 OA
ENDROOT
BRANCH   4   6
ATOM      6  C   UNL     1       2.421   8.334  17.892  0.00  0.00    +0.000 A 
ATOM      7  C   UNL     1       3.666   8.292  17.261  0.00  0.00    +0.000 A 
ATOM      8  C   UNL     1       4.359   7.069  17.109  0.00  0.00    +0.000 A 
ATOM      9  C   UNL     1       3.760   5.900  17.631  0.00  0.00    +0.000 A 
ATOM     10  C   UNL     1       2.452   5.935  18.141  0.00  0.00    +0.000 A 
ATOM     11  C   UNL     1       2.075   4.623  18.505  0.00  0.00    +0.000 A 
ATOM     12  C   UNL     1       3.235   3.888  18.527  0.00  0.00    +0.000 A 
ATOM     13  N   UNL     1       4.173   4.586  17.814  0.00  0.00    +0.000 N 
ATOM     14  C   UNL     1       1.772   7.156  18.250  0.00  0.00    +0.000 A 
BRANCH  13  15
ATOM     15  C   UNL     1       5.308   3.847  17.302  0.00  0.00    +0.000 C 
ATOM     16  C   UNL     1       5.606   3.902  15.816  0.00  0.00    +0.000 C 
ATOM     17  C   UNL     1       6.635   4.343  16.801  0.00  0.00    +0.000 C 
ENDBRANCH  13  15
ENDBRANCH   4   6
BRANCH   1  20
ATOM     18  C   UNL     1      -3.229  11.994  19.218  0.00  0.00    +0.000 A 
ATOM     19  C   UNL     1      -1.986  11.667  19.775  0.00  0.00    +0.000 A 
ATOM     20  C   UNL     1      -1.092  10.823  19.112  0.00  0.00    +0.000 A 
ATOM     21  C   UNL     1      -1.534  10.180  17.955  0.00  0.00    +0.000 A 
ATOM     22  C   UNL     1      -2.821  10.404  17.435  0.00  0.00    +0.000 A 
ATOM     23  C   UNL     1      -3.688  11.331  18.060  0.00  0.00    +0.000 A 
BRANCH  18  25
ATOM     24  C   UNL     1      -3.378  13.591  20.955  0.00  0.00    +0.000 C 
ATOM     25  O   UNL     1      -3.987  12.970  19.817  0.00  0.00    +0.000 OA
ENDBRANCH  18  25
BRANCH  22  26
ATOM     26  O   UNL     1      -3.025   9.666  16.293  0.00  0.00    +0.000 OA
ATOM     27  C   UNL     1      -2.945  10.300  15.027  0.00  0.00    +0.000 C 
ENDBRANCH  22  26
BRANCH  23  28
ATOM     28  O   UNL     1      -4.906  11.511  17.465  0.00  0.00    +0.000 OA
ATOM     29  C   UNL     1      -6.094  11.061  18.092  0.00  0.00    +0.000 C 
ENDBRANCH  23  28
ENDBRANCH   1  20
TORSDOF 6
ENDMDL
MODEL 7
REMARK VINA RESULT:      -7.5      5.010     11.306
REMARK  Name = 
REMARK  9 active torsions:
REMARK  status: ('A' for Active; 'I' for Inactive)
REMARK    1  A    between atoms: C_1  and  O_2
REMARK    2  A    between atoms: O_2  and  C_3
REMARK    3  A    between atoms: C_5  and  C_6
REMARK    4  A    between atoms: C_9  and  C_10
REMARK    5  A    between atoms: N_17  and  C_18
REMARK    6  A    between atoms: C_24  and  O_25
REMARK    7  A    between atoms: O_25  and  C_26
REMARK    8  A    between atoms: C_27  and  O_28
REMARK    9  A    between atoms: O_28  and  C_29
REMARK                            x       y       z     vdW  Elec       q    Type
REMARK                         _______ _______ _______ _____ _____    ______ ____
ROOT
ATOM      1  C   UNL     1      -1.476  12.671  19.776  0.00  0.00    +0.000 C 
ATOM      2  C   UNL     1      -1.712  12.192  18.340  0.00  0.00    +0.000 C 
ATOM      3  N   UNL     1      -0.806  11.051  18.157  0.00  0.00    +0.000 NA
ATOM      4  C   UNL     1      -0.229  10.919  19.314  0.00  0.00    +0.000 C 
ATOM      5  O   UNL     1      -0.487  11.796  20.303  0.00  0.00    +0.000 OA
ENDROOT
BRANCH   4   6
ATOM      6  C   UNL     1       0.700   9.830  19.657  0.00  0.00    +0.000 A 
ATOM      7  C   UNL     1       0.619   9.122  20.858  0.00  0.00    +0.000 A 
ATOM      8  C   UNL     1       1.250   7.864  20.999  0.00  0.00    +0.000 A 
ATOM      9  C   UNL     1       1.945   7.344  19.885  0.00  0.00    +0.000 A 
ATOM     10  C   UNL     1       2.131   8.124  18.731  0.00  0.00    +0.000 A 
ATOM     11  C   UNL     1       2.931   7.398  17.820  0.00  0.00    +0.000 A 
ATOM     12  C   UNL     1       2.938   6.101  18.274  0.00  0.00    +0.000 A 
ATOM     13  N   UNL     1       2.540   6.124  19.583  0.00  0.00    +0.000 N 
ATOM     14  C   UNL     1       1.524   9.383  18.628  0.00  0.00    +0.000 A 
BRANCH  13  15
ATOM     15  C   UNL     1       2.894   4.990  20.409  0.00  0.00    +0.000 C 
ATOM     16  C   UNL     1       1.790   4.095  20.938  0.00  0.00    +0.000 C 
ATOM     17  C   UNL     1       2.875   3.521  20.092  0.00  0.00    +0.000 C 
ENDBRANCH  13  15
ENDBRANCH   4   6
BRANCH   1  20
ATOM     18  C   UNL     1      -3.620  12.834  22.917  0.00  0.00    +0.000 A 
ATOM     19  C   UNL     1      -2.528  12.611  22.069  0.00  0.00    +0.000 A 
ATOM     20  C   UNL     1      -2.680  12.579  20.682  0.00  0.00    +0.000 A 
ATOM     21  C   UNL     1      -3.976  12.612  20.164  0.00  0.00    +0.000 A 
ATOM     22  C   UNL     1      -5.100  12.723  21.002  0.00  0.00    +0.000 A 
ATOM     23  C   UNL     1      -4.933  12.847  22.400  0.00  0.00    +0.000 A 
BRANCH  18  25
ATOM     24  C   UNL     1      -3.148  14.407  24.618  0.00  0.00    +0.000 C 
ATOM     25  O   UNL     1      -3.388  13.043  24.255  0.00  0.00    +0.000 OA
ENDBRANCH  18  25
BRANCH  22  26
ATOM     26  O   UNL     1      -6.261  12.739  20.266  0.00  0.00    +0.000 OA
ATOM     27  C   UNL     1      -6.962  11.527  20.041  0.00  0.00    +0.000 C 
ENDBRANCH  22  26
BRANCH  23  28
ATOM     28  O   UNL     1      -6.080  12.985  23.133  0.00  0.00    +0.000 OA
ATOM     29  C   UNL     1      -6.658  14.261  23.345  0.00  0.00    +0.000 C 
ENDBRANCH  23  28
ENDBRANCH   1  20
TORSDOF 6
ENDMDL
MODEL 8
REMARK VINA RESULT:      -7.5      4.372      8.963
REMARK  Name = 
REMARK  9 active torsions:
REMARK  status: ('A' for Active; 'I' for Inactive)
REMARK    1  A    between atoms: C_1  and  O_2
REMARK    2  A    between atoms: O_2  and  C_3
REMARK    3  A    between atoms: C_5  and  C_6
REMARK    4  A    between atoms: C_9  and  C_10
REMARK    5  A    between atoms: N_17  and  C_18
REMARK    6  A    between atoms: C_24  and  O_25
REMARK    7  A    between atoms: O_25  and  C_26
REMARK    8  A    between atoms: C_27  and  O_28
REMARK    9  A    between atoms: O_28  and  C_29
REMARK                            x       y       z     vdW  Elec       q    Type
REMARK                         _______ _______ _______ _____ _____    ______ ____
ROOT
ATOM      1  C   UNL     1       0.914  11.434  18.733  0.00  0.00    +0.000 C 
ATOM      2  C   UNL     1      -0.215  11.016  19.681  0.00  0.00    +0.000 C 
ATOM      3  N   UNL     1       0.055   9.612  20.014  0.00  0.00    +0.000 NA
ATOM      4  C   UNL     1       1.165   9.349  19.389  0.00  0.00    +0.000 C 
ATOM      5  O   UNL     1       1.732  10.278  18.596  0.00  0.00    +0.000 OA
ENDROOT
BRANCH   4   6
ATOM      6  C   UNL     1       1.898   8.078  19.504  0.00  0.00    +0.000 A 
ATOM      7  C   UNL     1       1.596   7.120  20.473  0.00  0.00    +0.000 A 
ATOM      8  C   UNL     1       2.036   5.783  20.330  0.00  0.00    +0.000 A 
ATOM      9  C   UNL     1       2.772   5.449  19.171  0.00  0.00    +0.000 A 
ATOM     10  C   UNL     1       3.182   6.449  18.273  0.00  0.00    +0.000 A 
ATOM     11  C   UNL     1       3.971   5.853  17.265  0.00  0.00    +0.000 A 
ATOM     12  C   UNL     1       3.759   4.499  17.368  0.00  0.00    +0.000 A 
ATOM     13  N   UNL     1       3.228   4.263  18.608  0.00  0.00    +0.000 N 
ATOM     14  C   UNL     1       2.761   7.774  18.455  0.00  0.00    +0.000 A 
BRANCH  13  15
ATOM     15  C   UNL     1       3.339   2.921  19.137  0.00  0.00    +0.000 C 
ATOM     16  C   UNL     1       2.107   2.037  19.154  0.00  0.00    +0.000 C 
ATOM     17  C   UNL     1       3.330   1.599  18.423  0.00  0.00    +0.000 C 
ENDBRANCH  13  15
ENDBRANCH   4   6
BRANCH   1  20
ATOM     18  C   UNL     1       3.355  14.354  18.754  0.00  0.00    +0.000 A 
ATOM     19  C   UNL     1       2.746  13.139  18.414  0.00  0.00    +0.000 A 
ATOM     20  C   UNL     1       1.796  12.545  19.247  0.00  0.00    +0.000 A 
ATOM     21  C   UNL     1       1.587  13.107  20.507  0.00  0.00    +0.000 A 
ATOM     22  C   UNL     1       2.270  14.265  20.919  0.00  0.00    +0.000 A 
ATOM     23  C   UNL     1       3.163  14.914  20.034  0.00  0.00    +0.000 A 
BRANCH  18  25
ATOM     24  C   UNL     1       5.515  14.599  17.823  0.00  0.00    +0.000 C 
ATOM     25  O   UNL     1       4.137  14.988  17.819  0.00  0.00    +0.000 OA
ENDBRANCH  18  25
BRANCH  22  26
ATOM     26  O   UNL     1       1.898  14.629  22.191  0.00  0.00    +0.000 OA
ATOM     27  C   UNL     1       0.689  15.343  22.387  0.00  0.00    +0.000 C 
ENDBRANCH  22  26
BRANCH  23  28
ATOM     28  O   UNL     1       3.755  16.053  20.507  0.00  0.00    +0.000 OA
ATOM     29  C   UNL     1       4.901  15.985  21.338  0.00  0.00    +0.000 C 
ENDBRANCH  23  28
ENDBRANCH   1  20
TORSDOF 6
ENDMDL
MODEL 9
REMARK VINA RESULT:      -7.5      4.166      9.901
REMARK  Name = 
REMARK  9 active torsions:
REMARK  status: ('A' for Active; 'I' for Inactive)
REMARK    1  A    between atoms: C_1  and  O_2
REMARK    2  A    between atoms: O_2  and  C_3
REMARK    3  A    between atoms: C_5  and  C_6
REMARK    4  A    between atoms: C_9  and  C_10
REMARK    5  A    between atoms: N_17  and  C_18
REMARK    6  A    between atoms: C_24  and  O_25
REMARK    7  A    between atoms: O_25  and  C_26
REMARK    8  A    between atoms: C_27  and  O_28
REMARK    9  A    between atoms: O_28  and  C_29
REMARK                            x       y       z     vdW  Elec       q    Type
REMARK                         _______ _______ _______ _____ _____    ______ ____
ROOT
ATOM      1  C   UNL     1      -0.689  11.420  20.448  0.00  0.00    +0.000 C 
ATOM      2  C   UNL     1       0.509  12.299  20.075  0.00  0.00    +0.000 C 
ATOM      3  N   UNL     1       1.511  11.378  19.524  0.00  0.00    +0.000 NA
ATOM      4  C   UNL     1       0.923  10.219  19.554  0.00  0.00    +0.000 C 
ATOM      5  O   UNL     1      -0.306  10.097  20.091  0.00  0.00    +0.000 OA
ENDROOT
BRANCH   4   6
ATOM      6  C   UNL     1       1.500   8.983  19.000  0.00  0.00    +0.000 A 
ATOM      7  C   UNL     1       2.218   8.959  17.804  0.00  0.00    +0.000 A 
ATOM      8  C   UNL     1       3.069   7.872  17.494  0.00  0.00    +0.000 A 
ATOM      9  C   UNL     1       3.181   6.828  18.440  0.00  0.00    +0.000 A 
ATOM     10  C   UNL     1       2.352   6.802  19.574  0.00  0.00    +0.000 A 
ATOM     11  C   UNL     1       2.610   5.612  20.292  0.00  0.00    +0.000 A 
ATOM     12  C   UNL     1       3.785   5.112  19.787  0.00  0.00    +0.000 A 
ATOM     13  N   UNL     1       3.996   5.711  18.574  0.00  0.00    +0.000 N 
ATOM     14  C   UNL     1       1.491   7.875  19.842  0.00  0.00    +0.000 A 
BRANCH  13  15
ATOM     15  C   UNL     1       4.887   5.046  17.647  0.00  0.00    +0.000 C 
ATOM     16  C   UNL     1       4.306   4.068  16.645  0.00  0.00    +0.000 C 
ATOM     17  C   UNL     1       5.074   5.255  16.171  0.00  0.00    +0.000 C 
ENDBRANCH  13  15
ENDBRANCH   4   6
BRANCH   1  20
ATOM     18  C   UNL     1      -3.478  11.195  17.868  0.00  0.00    +0.000 A 
ATOM     19  C   UNL     1      -2.201  11.176  18.443  0.00  0.00    +0.000 A 
ATOM     20  C   UNL     1      -1.963  11.732  19.701  0.00  0.00    +0.000 A 
ATOM     21  C   UNL     1      -2.993  12.456  20.303  0.00  0.00    +0.000 A 
ATOM     22  C   UNL     1      -4.254  12.586  19.694  0.00  0.00    +0.000 A 
ATOM     23  C   UNL     1      -4.517  11.942  18.463  0.00  0.00    +0.000 A 
BRANCH  18  25
ATOM     24  C   UNL     1      -2.828  10.793  15.630  0.00  0.00    +0.000 C 
ATOM     25  O   UNL     1      -3.699  10.473  16.721  0.00  0.00    +0.000 OA
ENDBRANCH  18  25
BRANCH  22  26
ATOM     26  O   UNL     1      -5.101  13.336  20.475  0.00  0.00    +0.000 OA
ATOM     27  C   UNL     1      -4.799  14.699  20.723  0.00  0.00    +0.000 C 
ENDBRANCH  22  26
BRANCH  23  28
ATOM     28  O   UNL     1      -5.780  12.095  17.962  0.00  0.00    +0.000 OA
ATOM     29  C   UNL     1      -6.807  11.174  18.286  0.00  0.00    +0.000 C 
ENDBRANCH  23  28
ENDBRANCH   1  20
TORSDOF 6
ENDMDL
