MODEL 1
REMARK VINA RESULT:      -6.4      0.000      0.000
REMARK  Name = 
REMARK  8 active torsions:
REMARK  status: ('A' for Active; 'I' for Inactive)
REMARK    1  A    between atoms: C_1  and  C_2
REMARK    2  A    between atoms: C_5  and  C_6
REMARK    3  A    between atoms: C_6  and  C_7
REMARK    4  A    between atoms: C_7  and  C_8
REMARK    5  A    between atoms: C_8  and  C_9
REMARK    6  A    between atoms: C_9  and  N_10
REMARK    7  A    between atoms: C_13  and  C_14
REMARK    8  A    between atoms: C_14  and  O_15
REMARK                            x       y       z     vdW  Elec       q    Type
REMARK                         _______ _______ _______ _____ _____    ______ ____
ROOT
ATOM      1  C   UNL     1       2.304   2.749  19.767  0.00  0.00    +0.000 C 
ENDROOT
BRANCH   1   2
ATOM      2  C   UNL     1       1.459   4.028  19.747  0.00  0.00    +0.000 C 
BRANCH   2   3
ATOM      3  C   UNL     1       1.981   5.095  20.710  0.00  0.00    +0.000 C 
BRANCH   3   8
ATOM      4  C   UNL     1       1.495  10.412  18.419  0.00  0.00    +0.000 C 
ATOM      5  C   UNL     1       1.657   9.048  19.016  0.00  0.00    +0.000 A 
ATOM      6  C   UNL     1       2.277   8.020  18.299  0.00  0.00    +0.000 A 
ATOM      7  C   UNL     1       2.396   6.747  18.855  0.00  0.00    +0.000 A 
ATOM      8  C   UNL     1       1.889   6.481  20.133  0.00  0.00    +0.000 A 
ATOM      9  C   UNL     1       1.289   7.514  20.860  0.00  0.00    +0.000 A 
ATOM     10  C   UNL     1       1.171   8.786  20.302  0.00  0.00    +0.000 A 
ENDBRANCH   3   8
ENDBRANCH   2   3
ENDBRANCH   1   2
BRANCH   1  11
ATOM     11  C   UNL     1       3.296   2.688  18.596  0.00  0.00    +0.000 C 
BRANCH  11  12
ATOM     12  N   UNL     1       3.963   3.960  18.274  0.00  0.00    +0.000 NA
ATOM     13  C   UNL     1       5.111   4.127  19.185  0.00  0.00    +0.000 C 
ATOM     14  C   UNL     1       5.881   5.420  18.922  0.00  0.00    +0.000 C 
ATOM     15  C   UNL     1       6.332   5.528  17.460  0.00  0.00    +0.000 C 
ATOM     16  C   UNL     1       5.111   5.341  16.557  0.00  0.00    +0.000 C 
ATOM     17  C   UNL     1       4.357   4.044  16.863  0.00  0.00    +0.000 C 
BRANCH  15  18
ATOM     18  C   UNL     1       7.442   4.526  17.109  0.00  0.00    +0.000 C 
BRANCH  18  19
ATOM     19  O   UNL     1       7.806   4.636  15.739  0.00  0.00    +0.000 OA
ATOM     20  H   UNL     1       8.349   5.435  15.643  0.00  0.00    +0.000 HD
ENDBRANCH  18  19
ENDBRANCH  15  18
ENDBRANCH  11  12
ENDBRANCH   1  11
TORSDOF 7
ENDMDL
MODEL 2
REMARK VINA RESULT:      -6.4      3.044      5.829
REMARK  Name = 
REMARK  8 active torsions:
REMARK  status: ('A' for Active; 'I' for Inactive)
REMARK    1  A    between atoms: C_1  and  C_2
REMARK    2  A    between atoms: C_5  and  C_6
REMARK    3  A    between atoms: C_6  and  C_7
REMARK    4  A    between atoms: C_7  and  C_8
REMARK    5  A    between atoms: C_8  and  C_9
REMARK    6  A    between atoms: C_9  and  N_10
REMARK    7  A    between atoms: C_13  and  C_14
REMARK    8  A    between atoms: C_14  and  O_15
REMARK                            x       y       z     vdW  Elec       q    Type
REMARK                         _______ _______ _______ _____ _____    ______ ____
ROOT
ATOM      1  C   UNL     1       4.250   4.133  16.655  0.00  0.00    +0.000 C 
ENDROOT
BRANCH   1   2
ATOM      2  C   UNL     1       5.629   4.400  16.041  0.00  0.00    +0.000 C 
BRANCH   2   3
ATOM      3  C   UNL     1       6.761   4.297  17.063  0.00  0.00    +0.000 C 
BRANCH   3   8
ATOM      4  C   UNL     1       8.773   9.482  18.744  0.00  0.00    +0.000 C 
ATOM      5  C   UNL     1       8.227   8.147  18.337  0.00  0.00    +0.000 A 
ATOM      6  C   UNL     1       8.452   7.011  19.120  0.00  0.00    +0.000 A 
ATOM      7  C   UNL     1       7.963   5.770  18.715  0.00  0.00    +0.000 A 
ATOM      8  C   UNL     1       7.248   5.646  17.517  0.00  0.00    +0.000 A 
ATOM      9  C   UNL     1       7.002   6.786  16.745  0.00  0.00    +0.000 A 
ATOM     10  C   UNL     1       7.493   8.026  17.151  0.00  0.00    +0.000 A 
ENDBRANCH   3   8
ENDBRANCH   2   3
ENDBRANCH   1   2
BRANCH   1  11
ATOM     11  C   UNL     1       3.675   5.373  17.357  0.00  0.00    +0.000 C 
BRANCH  11  12
ATOM     12  N   UNL     1       2.511   5.119  18.222  0.00  0.00    +0.000 NA
ATOM     13  C   UNL     1       2.074   3.725  18.018  0.00  0.00    +0.000 C 
ATOM     14  C   UNL     1       0.872   3.358  18.885  0.00  0.00    +0.000 C 
ATOM     15  C   UNL     1       1.137   3.629  20.372  0.00  0.00    +0.000 C 
ATOM     16  C   UNL     1       1.592   5.081  20.529  0.00  0.00    +0.000 C 
ATOM     17  C   UNL     1       2.787   5.414  19.633  0.00  0.00    +0.000 C 
BRANCH  15  18
ATOM     18  C   UNL     1       2.160   2.656  20.977  0.00  0.00    +0.000 C 
BRANCH  18  19
ATOM     19  O   UNL     1       2.325   2.898  22.368  0.00  0.00    +0.000 OA
ATOM     20  H   UNL     1       3.237   2.665  22.601  0.00  0.00    +0.000 HD
ENDBRANCH  18  19
ENDBRANCH  15  18
ENDBRANCH  11  12
ENDBRANCH   1  11
TORSDOF 7
ENDMDL
MODEL 3
REMARK VINA RESULT:      -6.3      3.114      5.612
REMARK  Name = 
REMARK  8 active torsions:
REMARK  status: ('A' for Active; 'I' for Inactive)
REMARK    1  A    between atoms: C_1  and  C_2
REMARK    2  A    between atoms: C_5  and  C_6
REMARK    3  A    between atoms: C_6  and  C_7
REMARK    4  A    between atoms: C_7  and  C_8
REMARK    5  A    between atoms: C_8  and  C_9
REMARK    6  A    between atoms: C_9  and  N_10
REMARK    7  A    between atoms: C_13  and  C_14
REMARK    8  A    between atoms: C_14  and  O_15
REMARK                            x       y       z     vdW  Elec       q    Type
REMARK                         _______ _______ _______ _____ _____    ______ ____
ROOT
ATOM      1  C   UNL     1       4.101   3.655  16.710  0.00  0.00    +0.000 C 
ENDROOT
BRANCH   1   2
ATOM      2  C   UNL     1       5.601   3.958  16.797  0.00  0.00    +0.000 C 
BRANCH   2   3
ATOM      3  C   UNL     1       6.025   4.446  18.182  0.00  0.00    +0.000 C 
BRANCH   3   8
ATOM      4  C   UNL     1       8.670   9.620  18.078  0.00  0.00    +0.000 C 
ATOM      5  C   UNL     1       8.006   8.276  18.073  0.00  0.00    +0.000 A 
ATOM      6  C   UNL     1       6.956   7.998  17.192  0.00  0.00    +0.000 A 
ATOM      7  C   UNL     1       6.329   6.753  17.217  0.00  0.00    +0.000 A 
ATOM      8  C   UNL     1       6.736   5.772  18.129  0.00  0.00    +0.000 A 
ATOM      9  C   UNL     1       7.801   6.041  18.995  0.00  0.00    +0.000 A 
ATOM     10  C   UNL     1       8.427   7.286  18.969  0.00  0.00    +0.000 A 
ENDBRANCH   3   8
ENDBRANCH   2   3
ENDBRANCH   1   2
BRANCH   1  11
ATOM     11  C   UNL     1       3.240   4.830  17.200  0.00  0.00    +0.000 C 
BRANCH  11  12
ATOM     12  N   UNL     1       2.115   4.460  18.074  0.00  0.00    +0.000 NA
ATOM     13  C   UNL     1       2.014   2.988  18.106  0.00  0.00    +0.000 C 
ATOM     14  C   UNL     1       0.877   2.501  19.002  0.00  0.00    +0.000 C 
ATOM     15  C   UNL     1       0.988   3.066  20.423  0.00  0.00    +0.000 C 
ATOM     16  C   UNL     1       1.096   4.590  20.336  0.00  0.00    +0.000 C 
ATOM     17  C   UNL     1       2.236   5.038  19.417  0.00  0.00    +0.000 C 
BRANCH  15  18
ATOM     18  C   UNL     1       2.167   2.469  21.206  0.00  0.00    +0.000 C 
BRANCH  18  19
ATOM     19  O   UNL     1       2.354   3.155  22.437  0.00  0.00    +0.000 OA
ATOM     20  H   UNL     1       1.635   2.891  23.033  0.00  0.00    +0.000 HD
ENDBRANCH  18  19
ENDBRANCH  15  18
ENDBRANCH  11  12
ENDBRANCH   1  11
TORSDOF 7
ENDMDL
MODEL 4
REMARK VINA RESULT:      -6.3      2.794      4.761
REMARK  Name = 
REMARK  8 active torsions:
REMARK  status: ('A' for Active; 'I' for Inactive)
REMARK    1  A    between atoms: C_1  and  C_2
REMARK    2  A    between atoms: C_5  and  C_6
REMARK    3  A    between atoms: C_6  and  C_7
REMARK    4  A    between atoms: C_7  and  C_8
REMARK    5  A    between atoms: C_8  and  C_9
REMARK    6  A    between atoms: C_9  and  N_10
REMARK    7  A    between atoms: C_13  and  C_14
REMARK    8  A    between atoms: C_14  and  O_15
REMARK                            x       y       z     vdW  Elec       q    Type
REMARK                         _______ _______ _______ _____ _____    ______ ____
ROOT
ATOM      1  C   UNL     1       3.280   7.499  17.963  0.00  0.00    +0.000 C 
ENDROOT
BRANCH   1   2
ATOM      2  C   UNL     1       1.912   8.142  17.706  0.00  0.00    +0.000 C 
BRANCH   2   3
ATOM      3  C   UNL     1       1.855   9.603  18.149  0.00  0.00    +0.000 C 
BRANCH   3   8
ATOM      4  C   UNL     1      -0.954  10.358  23.180  0.00  0.00    +0.000 C 
ATOM      5  C   UNL     1      -0.256  10.139  21.872  0.00  0.00    +0.000 A 
ATOM      6  C   UNL     1       0.467   8.967  21.631  0.00  0.00    +0.000 A 
ATOM      7  C   UNL     1       1.134   8.788  20.420  0.00  0.00    +0.000 A 
ATOM      8  C   UNL     1       1.095   9.783  19.436  0.00  0.00    +0.000 A 
ATOM      9  C   UNL     1       0.354  10.946  19.666  0.00  0.00    +0.000 A 
ATOM     10  C   UNL     1      -0.312  11.123  20.878  0.00  0.00    +0.000 A 
ENDBRANCH   3   8
ENDBRANCH   2   3
ENDBRANCH   1   2
BRANCH   1  11
ATOM     11  C   UNL     1       3.265   5.981  17.723  0.00  0.00    +0.000 C 
BRANCH  11  12
ATOM     12  N   UNL     1       2.184   5.251  18.405  0.00  0.00    +0.000 NA
ATOM     13  C   UNL     1       2.219   3.845  17.960  0.00  0.00    +0.000 C 
ATOM     14  C   UNL     1       1.136   2.996  18.624  0.00  0.00    +0.000 C 
ATOM     15  C   UNL     1       1.204   3.080  20.154  0.00  0.00    +0.000 C 
ATOM     16  C   UNL     1       1.171   4.554  20.563  0.00  0.00    +0.000 C 
ATOM     17  C   UNL     1       2.259   5.374  19.865  0.00  0.00    +0.000 C 
BRANCH  15  18
ATOM     18  C   UNL     1       2.437   2.370  20.731  0.00  0.00    +0.000 C 
BRANCH  18  19
ATOM     19  O   UNL     1       2.588   2.666  22.113  0.00  0.00    +0.000 OA
ATOM     20  H   UNL     1       2.582   3.631  22.210  0.00  0.00    +0.000 HD
ENDBRANCH  18  19
ENDBRANCH  15  18
ENDBRANCH  11  12
ENDBRANCH   1  11
TORSDOF 7
ENDMDL
MODEL 5
REMARK VINA RESULT:      -6.3      2.212      5.639
REMARK  Name = 
REMARK  8 active torsions:
REMARK  status: ('A' for Active; 'I' for Inactive)
REMARK    1  A    between atoms: C_1  and  C_2
REMARK    2  A    between atoms: C_5  and  C_6
REMARK    3  A    between atoms: C_6  and  C_7
REMARK    4  A    between atoms: C_7  and  C_8
REMARK    5  A    between atoms: C_8  and  C_9
REMARK    6  A    between atoms: C_9  and  N_10
REMARK    7  A    between atoms: C_13  and  C_14
REMARK    8  A    between atoms: C_14  and  O_15
REMARK                            x       y       z     vdW  Elec       q    Type
REMARK                         _______ _______ _______ _____ _____    ______ ____
ROOT
ATOM      1  C   UNL     1       2.255   6.852  18.189  0.00  0.00    +0.000 C 
ENDROOT
BRANCH   1   2
ATOM      2  C   UNL     1       3.659   7.381  17.873  0.00  0.00    +0.000 C 
BRANCH   2   3
ATOM      3  C   UNL     1       4.750   6.338  18.113  0.00  0.00    +0.000 C 
BRANCH   3   8
ATOM      4  C   UNL     1       6.164   3.573  13.202  0.00  0.00    +0.000 C 
ATOM      5  C   UNL     1       5.836   4.284  14.479  0.00  0.00    +0.000 A 
ATOM      6  C   UNL     1       5.755   3.587  15.688  0.00  0.00    +0.000 A 
ATOM      7  C   UNL     1       5.420   4.256  16.865  0.00  0.00    +0.000 A 
ATOM      8  C   UNL     1       5.154   5.630  16.848  0.00  0.00    +0.000 A 
ATOM      9  C   UNL     1       5.257   6.333  15.643  0.00  0.00    +0.000 A 
ATOM     10  C   UNL     1       5.591   5.662  14.468  0.00  0.00    +0.000 A 
ENDBRANCH   3   8
ENDBRANCH   2   3
ENDBRANCH   1   2
BRANCH   1  11
ATOM     11  C   UNL     1       2.147   6.304  19.621  0.00  0.00    +0.000 C 
BRANCH  11  12
ATOM     12  N   UNL     1       1.726   4.897  19.723  0.00  0.00    +0.000 NA
ATOM     13  C   UNL     1       1.920   4.256  18.408  0.00  0.00    +0.000 C 
ATOM     14  C   UNL     1       1.520   2.783  18.413  0.00  0.00    +0.000 C 
ATOM     15  C   UNL     1       2.250   1.997  19.510  0.00  0.00    +0.000 C 
ATOM     16  C   UNL     1       2.025   2.703  20.848  0.00  0.00    +0.000 C 
ATOM     17  C   UNL     1       2.422   4.181  20.798  0.00  0.00    +0.000 C 
BRANCH  15  18
ATOM     18  C   UNL     1       3.748   1.826  19.216  0.00  0.00    +0.000 C 
BRANCH  18  19
ATOM     19  O   UNL     1       3.947   1.196  17.958  0.00  0.00    +0.000 OA
ATOM     20  H   UNL     1       4.571   1.740  17.452  0.00  0.00    +0.000 HD
ENDBRANCH  18  19
ENDBRANCH  15  18
ENDBRANCH  11  12
ENDBRANCH   1  11
TORSDOF 7
ENDMDL
MODEL 6
REMARK VINA RESULT:      -6.3      2.374      4.160
REMARK  Name = 
REMARK  8 active torsions:
REMARK  status: ('A' for Active; 'I' for Inactive)
REMARK    1  A    between atoms: C_1  and  C_2
REMARK    2  A    between atoms: C_5  and  C_6
REMARK    3  A    between atoms: C_6  and  C_7
REMARK    4  A    between atoms: C_7  and  C_8
REMARK    5  A    between atoms: C_8  and  C_9
REMARK    6  A    between atoms: C_9  and  N_10
REMARK    7  A    between atoms: C_13  and  C_14
REMARK    8  A    between atoms: C_14  and  O_15
REMARK                            x       y       z     vdW  Elec       q    Type
REMARK                         _______ _______ _______ _____ _____    ______ ____
ROOT
ATOM      1  C   UNL     1       5.226   4.603  17.408  0.00  0.00    +0.000 C 
ENDROOT
BRANCH   1   2
ATOM      2  C   UNL     1       5.167   6.067  17.862  0.00  0.00    +0.000 C 
BRANCH   2   3
ATOM      3  C   UNL     1       4.087   6.867  17.136  0.00  0.00    +0.000 C 
BRANCH   3   8
ATOM      4  C   UNL     1       0.328   9.273  20.856  0.00  0.00    +0.000 C 
ATOM      5  C   UNL     1       1.272   8.625  19.890  0.00  0.00    +0.000 A 
ATOM      6  C   UNL     1       1.966   7.462  20.235  0.00  0.00    +0.000 A 
ATOM      7  C   UNL     1       2.863   6.885  19.336  0.00  0.00    +0.000 A 
ATOM      8  C   UNL     1       3.085   7.468  18.083  0.00  0.00    +0.000 A 
ATOM      9  C   UNL     1       2.374   8.620  17.728  0.00  0.00    +0.000 A 
ATOM     10  C   UNL     1       1.478   9.195  18.628  0.00  0.00    +0.000 A 
ENDBRANCH   3   8
ENDBRANCH   2   3
ENDBRANCH   1   2
BRANCH   1  11
ATOM     11  C   UNL     1       3.971   4.185  16.627  0.00  0.00    +0.000 C 
BRANCH  11  12
ATOM     12  N   UNL     1       3.064   3.273  17.343  0.00  0.00    +0.000 NA
ATOM     13  C   UNL     1       3.812   2.643  18.447  0.00  0.00    +0.000 C 
ATOM     14  C   UNL     1       2.949   1.682  19.262  0.00  0.00    +0.000 C 
ATOM     15  C   UNL     1       1.679   2.363  19.789  0.00  0.00    +0.000 C 
ATOM     16  C   UNL     1       0.944   3.005  18.611  0.00  0.00    +0.000 C 
ATOM     17  C   UNL     1       1.847   3.947  17.810  0.00  0.00    +0.000 C 
BRANCH  15  18
ATOM     18  C   UNL     1       1.975   3.394  20.889  0.00  0.00    +0.000 C 
BRANCH  18  19
ATOM     19  O   UNL     1       1.825   2.813  22.178  0.00  0.00    +0.000 OA
ATOM     20  H   UNL     1       2.712   2.698  22.553  0.00  0.00    +0.000 HD
ENDBRANCH  18  19
ENDBRANCH  15  18
ENDBRANCH  11  12
ENDBRANCH   1  11
TORSDOF 7
ENDMDL
MODEL 7
REMARK VINA RESULT:      -6.2      3.178      6.629
REMARK  Name = 
REMARK  8 active torsions:
REMARK  status: ('A' for Active; 'I' for Inactive)
REMARK    1  A    between atoms: C_1  and  C_2
REMARK    2  A    between atoms: C_5  and  C_6
REMARK    3  A    between atoms: C_6  and  C_7
REMARK    4  A    between atoms: C_7  and  C_8
REMARK    5  A    between atoms: C_8  and  C_9
REMARK    6  A    between atoms: C_9  and  N_10
REMARK    7  A    between atoms: C_13  and  C_14
REMARK    8  A    between atoms: C_14  and  O_15
REMARK                            x       y       z     vdW  Elec       q    Type
REMARK                         _______ _______ _______ _____ _____    ______ ____
ROOT
ATOM      1  C   UNL     1       5.259   6.764  17.581  0.00  0.00    +0.000 C 
ENDROOT
BRANCH   1   2
ATOM      2  C   UNL     1       6.751   6.790  17.229  0.00  0.00    +0.000 C 
BRANCH   2   3
ATOM      3  C   UNL     1       7.328   5.393  17.002  0.00  0.00    +0.000 C 
BRANCH   3   8
ATOM      4  C   UNL     1       5.543   3.208  11.922  0.00  0.00    +0.000 C 
ATOM      5  C   UNL     1       6.022   3.739  13.239  0.00  0.00    +0.000 A 
ATOM      6  C   UNL     1       5.448   3.307  14.439  0.00  0.00    +0.000 A 
ATOM      7  C   UNL     1       5.884   3.830  15.655  0.00  0.00    +0.000 A 
ATOM      8  C   UNL     1       6.893   4.799  15.690  0.00  0.00    +0.000 A 
ATOM      9  C   UNL     1       7.484   5.217  14.492  0.00  0.00    +0.000 A 
ATOM     10  C   UNL     1       7.047   4.692  13.276  0.00  0.00    +0.000 A 
ENDBRANCH   3   8
ENDBRANCH   2   3
ENDBRANCH   1   2
BRANCH   1  11
ATOM     11  C   UNL     1       4.938   5.746  18.686  0.00  0.00    +0.000 C 
BRANCH  11  12
ATOM     12  N   UNL     1       3.932   4.732  18.330  0.00  0.00    +0.000 NA
ATOM     13  C   UNL     1       3.903   3.711  19.395  0.00  0.00    +0.000 C 
ATOM     14  C   UNL     1       2.875   2.615  19.123  0.00  0.00    +0.000 C 
ATOM     15  C   UNL     1       1.473   3.191  18.888  0.00  0.00    +0.000 C 
ATOM     16  C   UNL     1       1.558   4.246  17.783  0.00  0.00    +0.000 C 
ATOM     17  C   UNL     1       2.609   5.318  18.084  0.00  0.00    +0.000 C 
BRANCH  15  18
ATOM     18  C   UNL     1       0.852   3.774  20.167  0.00  0.00    +0.000 C 
BRANCH  18  19
ATOM     19  O   UNL     1       0.816   2.798  21.200  0.00  0.00    +0.000 OA
ATOM     20  H   UNL     1      -0.041   2.346  21.147  0.00  0.00    +0.000 HD
ENDBRANCH  18  19
ENDBRANCH  15  18
ENDBRANCH  11  12
ENDBRANCH   1  11
TORSDOF 7
ENDMDL
MODEL 8
REMARK VINA RESULT:      -6.2      3.147      6.639
REMARK  Name = 
REMARK  8 active torsions:
REMARK  status: ('A' for Active; 'I' for Inactive)
REMARK    1  A    between atoms: C_1  and  C_2
REMARK    2  A    between atoms: C_5  and  C_6
REMARK    3  A    between atoms: C_6  and  C_7
REMARK    4  A    between atoms: C_7  and  C_8
REMARK    5  A    between atoms: C_8  and  C_9
REMARK    6  A    between atoms: C_9  and  N_10
REMARK    7  A    between atoms: C_13  and  C_14
REMARK    8  A    between atoms: C_14  and  O_15
REMARK                            x       y       z     vdW  Elec       q    Type
REMARK                         _______ _______ _______ _____ _____    ______ ____
ROOT
ATOM      1  C   UNL     1       6.669   5.223  18.638  0.00  0.00    +0.000 C 
ENDROOT
BRANCH   1   2
ATOM      2  C   UNL     1       6.183   6.055  17.445  0.00  0.00    +0.000 C 
BRANCH   2   3
ATOM      3  C   UNL     1       7.182   6.068  16.288  0.00  0.00    +0.000 C 
BRANCH   3   8
ATOM      4  C   UNL     1       5.366   2.909  11.761  0.00  0.00    +0.000 C 
ATOM      5  C   UNL     1       5.842   3.692  12.948  0.00  0.00    +0.000 A 
ATOM      6  C   UNL     1       5.046   3.817  14.091  0.00  0.00    +0.000 A 
ATOM      7  C   UNL     1       5.489   4.571  15.176  0.00  0.00    +0.000 A 
ATOM      8  C   UNL     1       6.729   5.218  15.131  0.00  0.00    +0.000 A 
ATOM      9  C   UNL     1       7.536   5.076  13.998  0.00  0.00    +0.000 A 
ATOM     10  C   UNL     1       7.092   4.321  12.913  0.00  0.00    +0.000 A 
ENDBRANCH   3   8
ENDBRANCH   2   3
ENDBRANCH   1   2
BRANCH   1  11
ATOM     11  C   UNL     1       5.546   4.374  19.252  0.00  0.00    +0.000 C 
BRANCH  11  12
ATOM     12  N   UNL     1       4.251   4.450  18.556  0.00  0.00    +0.000 NA
ATOM     13  C   UNL     1       3.932   3.114  18.016  0.00  0.00    +0.000 C 
ATOM     14  C   UNL     1       2.594   3.086  17.282  0.00  0.00    +0.000 C 
ATOM     15  C   UNL     1       1.448   3.600  18.163  0.00  0.00    +0.000 C 
ATOM     16  C   UNL     1       1.829   4.981  18.701  0.00  0.00    +0.000 C 
ATOM     17  C   UNL     1       3.183   4.972  19.416  0.00  0.00    +0.000 C 
BRANCH  15  18
ATOM     18  C   UNL     1       1.102   2.634  19.305  0.00  0.00    +0.000 C 
BRANCH  18  19
ATOM     19  O   UNL     1       0.366   3.299  20.323  0.00  0.00    +0.000 OA
ATOM     20  H   UNL     1      -0.298   2.677  20.660  0.00  0.00    +0.000 HD
ENDBRANCH  18  19
ENDBRANCH  15  18
ENDBRANCH  11  12
ENDBRANCH   1  11
TORSDOF 7
ENDMDL
MODEL 9
REMARK VINA RESULT:      -6.2      2.382      3.852
REMARK  Name = 
REMARK  8 active torsions:
REMARK  status: ('A' for Active; 'I' for Inactive)
REMARK    1  A    between atoms: C_1  and  C_2
REMARK    2  A    between atoms: C_5  and  C_6
REMARK    3  A    between atoms: C_6  and  C_7
REMARK    4  A    between atoms: C_7  and  C_8
REMARK    5  A    between atoms: C_8  and  C_9
REMARK    6  A    between atoms: C_9  and  N_10
REMARK    7  A    between atoms: C_13  and  C_14
REMARK    8  A    between atoms: C_14  and  O_15
REMARK                            x       y       z     vdW  Elec       q    Type
REMARK                         _______ _______ _______ _____ _____    ______ ____
ROOT
ATOM      1  C   UNL     1       4.477   5.805  16.854  0.00  0.00    +0.000 C 
ENDROOT
BRANCH   1   2
ATOM      2  C   UNL     1       3.954   7.061  17.561  0.00  0.00    +0.000 C 
BRANCH   2   3
ATOM      3  C   UNL     1       2.869   6.749  18.591  0.00  0.00    +0.000 C 
BRANCH   3   8
ATOM      4  C   UNL     1      -0.421  11.348  19.926  0.00  0.00    +0.000 C 
ATOM      5  C   UNL     1       0.457  10.185  19.579  0.00  0.00    +0.000 A 
ATOM      6  C   UNL     1       0.880   9.973  18.263  0.00  0.00    +0.000 A 
ATOM      7  C   UNL     1       1.674   8.871  17.949  0.00  0.00    +0.000 A 
ATOM      8  C   UNL     1       2.050   7.961  18.944  0.00  0.00    +0.000 A 
ATOM      9  C   UNL     1       1.646   8.184  20.265  0.00  0.00    +0.000 A 
ATOM     10  C   UNL     1       0.852   9.286  20.577  0.00  0.00    +0.000 A 
ENDBRANCH   3   8
ENDBRANCH   2   3
ENDBRANCH   1   2
BRANCH   1  11
ATOM     11  C   UNL     1       5.214   4.859  17.815  0.00  0.00    +0.000 C 
BRANCH  11  12
ATOM     12  N   UNL     1       4.502   3.611  18.134  0.00  0.00    +0.000 NA
ATOM     13  C   UNL     1       4.161   3.623  19.570  0.00  0.00    +0.000 C 
ATOM     14  C   UNL     1       3.405   2.368  20.000  0.00  0.00    +0.000 C 
ATOM     15  C   UNL     1       2.149   2.139  19.149  0.00  0.00    +0.000 C 
ATOM     16  C   UNL     1       2.553   2.141  17.673  0.00  0.00    +0.000 C 
ATOM     17  C   UNL     1       3.322   3.407  17.285  0.00  0.00    +0.000 C 
BRANCH  15  18
ATOM     18  C   UNL     1       1.050   3.175  19.427  0.00  0.00    +0.000 C 
BRANCH  18  19
ATOM     19  O   UNL     1       0.730   3.212  20.811  0.00  0.00    +0.000 OA
ATOM     20  H   UNL     1       0.425   2.326  21.066  0.00  0.00    +0.000 HD
ENDBRANCH  18  19
ENDBRANCH  15  18
ENDBRANCH  11  12
ENDBRANCH   1  11
TORSDOF 7
ENDMDL
