MODEL 1
REMARK VINA RESULT:      -8.1      0.000      0.000
REMARK  Name = 
REMARK  7 active torsions:
REMARK  status: ('A' for Active; 'I' for Inactive)
REMARK    1  A    between atoms: C_1  and  C_2
REMARK    2  A    between atoms: C_7  and  C_8
REMARK    3  A    between atoms: C_8  and  C_9
REMARK    4  A    between atoms: C_9  and  C_10
REMARK    5  A    between atoms: C_16  and  C_17
REMARK    6  A    between atoms: C_17  and  O_19
REMARK    7  A    between atoms: C_20  and  O_21
REMARK                            x       y       z     vdW  Elec       q    Type
REMARK                         _______ _______ _______ _____ _____    ______ ____
ROOT
ATOM      1  C   UNL     1       0.685   2.985  20.563  0.00  0.00    +0.000 C 
ATOM      2  C   UNL     1       1.758   3.670  19.765  0.00  0.00    +0.000 C 
ATOM      3  C   UNL     1       1.345   4.042  18.354  0.00  0.00    +0.000 C 
ATOM      4  O   UNL     1       2.080   3.270  17.377  0.00  0.00    +0.000 OA
ATOM      5  C   UNL     1       3.410   3.620  17.419  0.00  0.00    +0.000 A 
ATOM      6  C   UNL     1       4.006   3.983  16.223  0.00  0.00    +0.000 A 
ATOM      7  C   UNL     1       5.269   4.598  16.200  0.00  0.00    +0.000 A 
ATOM      8  C   UNL     1       5.997   4.672  17.419  0.00  0.00    +0.000 A 
ATOM      9  C   UNL     1       5.381   4.219  18.625  0.00  0.00    +0.000 A 
ATOM     10  C   UNL     1       4.071   3.714  18.648  0.00  0.00    +0.000 A 
ATOM     11  C   UNL     1       3.267   3.409  19.902  0.00  0.00    +0.000 C 
ATOM     12  C   UNL     1       2.641   4.581  20.600  0.00  0.00    +0.000 C 
ENDROOT
BRANCH   8  13
ATOM     13  C   UNL     1       7.397   5.168  17.435  0.00  0.00    +0.000 C 
ATOM     14  O   UNL     1       7.786   6.304  17.253  0.00  0.00    +0.000 OA
BRANCH  13  15
ATOM     15  O   UNL     1       8.300   4.189  17.680  0.00  0.00    +0.000 OA
ATOM     16  H   UNL     1       9.138   4.564  17.322  0.00  0.00    +0.000 HD
ENDBRANCH  13  15
ENDBRANCH   8  13
BRANCH   9  17
ATOM     17  O   UNL     1       6.001   4.307  19.852  0.00  0.00    +0.000 OA
ATOM     18  H   UNL     1       6.214   5.249  20.014  0.00  0.00    +0.000 HD
ENDBRANCH   9  17
BRANCH   7  19
ATOM     19  C   UNL     1       5.682   5.220  14.867  0.00  0.00    +0.000 C 
BRANCH  19  20
ATOM     20  C   UNL     1       6.590   4.266  14.048  0.00  0.00    +0.000 C 
BRANCH  20  21
ATOM     21  C   UNL     1       5.962   3.491  12.909  0.00  0.00    +0.000 A 
ATOM     22  C   UNL     1       4.683   3.866  12.458  0.00  0.00    +0.000 A 
ATOM     23  C   UNL     1       4.090   3.244  11.357  0.00  0.00    +0.000 A 
ATOM     24  C   UNL     1       4.773   2.238  10.682  0.00  0.00    +0.000 A 
ATOM     25  C   UNL     1       6.041   1.854  11.115  0.00  0.00    +0.000 A 
ATOM     26  C   UNL     1       6.636   2.478  12.218  0.00  0.00    +0.000 A 
ENDBRANCH  20  21
ENDBRANCH  19  20
ENDBRANCH   7  19
TORSDOF 6
ENDMDL
MODEL 2
REMARK VINA RESULT:      -8.0      0.318      1.017
REMARK  Name = 
REMARK  7 active torsions:
REMARK  status: ('A' for Active; 'I' for Inactive)
REMARK    1  A    between atoms: C_1  and  C_2
REMARK    2  A    between atoms: C_7  and  C_8
REMARK    3  A    between atoms: C_8  and  C_9
REMARK    4  A    between atoms: C_9  and  C_10
REMARK    5  A    between atoms: C_16  and  C_17
REMARK    6  A    between atoms: C_17  and  O_19
REMARK    7  A    between atoms: C_20  and  O_21
REMARK                            x       y       z     vdW  Elec       q    Type
REMARK                         _______ _______ _______ _____ _____    ______ ____
ROOT
ATOM      1  C   UNL     1       0.787   2.872  20.414  0.00  0.00    +0.000 C 
ATOM      2  C   UNL     1       1.821   3.607  19.609  0.00  0.00    +0.000 C 
ATOM      3  C   UNL     1       1.379   3.964  18.202  0.00  0.00    +0.000 C 
ATOM      4  O   UNL     1       2.141   3.229  17.217  0.00  0.00    +0.000 OA
ATOM      5  C   UNL     1       3.454   3.639  17.249  0.00  0.00    +0.000 A 
ATOM      6  C   UNL     1       4.022   4.032  16.049  0.00  0.00    +0.000 A 
ATOM      7  C   UNL     1       5.256   4.704  16.018  0.00  0.00    +0.000 A 
ATOM      8  C   UNL     1       5.989   4.808  17.230  0.00  0.00    +0.000 A 
ATOM      9  C   UNL     1       5.405   4.324  18.440  0.00  0.00    +0.000 A 
ATOM     10  C   UNL     1       4.119   3.760  18.473  0.00  0.00    +0.000 A 
ATOM     11  C   UNL     1       3.341   3.415  19.733  0.00  0.00    +0.000 C 
ATOM     12  C   UNL     1       2.669   4.555  20.439  0.00  0.00    +0.000 C 
ENDROOT
BRANCH   8  13
ATOM     13  C   UNL     1       7.366   5.367  17.237  0.00  0.00    +0.000 C 
ATOM     14  O   UNL     1       7.710   6.500  16.967  0.00  0.00    +0.000 OA
BRANCH  13  15
ATOM     15  O   UNL     1       8.303   4.455  17.586  0.00  0.00    +0.000 OA
ATOM     16  H   UNL     1       9.028   5.011  17.955  0.00  0.00    +0.000 HD
ENDBRANCH  13  15
ENDBRANCH   8  13
BRANCH   9  17
ATOM     17  O   UNL     1       6.031   4.437  19.663  0.00  0.00    +0.000 OA
ATOM     18  H   UNL     1       6.043   3.551  20.078  0.00  0.00    +0.000 HD
ENDBRANCH   9  17
BRANCH   7  19
ATOM     19  C   UNL     1       5.628   5.348  14.683  0.00  0.00    +0.000 C 
BRANCH  19  20
ATOM     20  C   UNL     1       6.658   4.490  13.903  0.00  0.00    +0.000 C 
BRANCH  20  21
ATOM     21  C   UNL     1       6.150   3.630  12.764  0.00  0.00    +0.000 A 
ATOM     22  C   UNL     1       7.047   2.759  12.119  0.00  0.00    +0.000 A 
ATOM     23  C   UNL     1       6.616   1.882  11.121  0.00  0.00    +0.000 A 
ATOM     24  C   UNL     1       5.275   1.858  10.755  0.00  0.00    +0.000 A 
ATOM     25  C   UNL     1       4.372   2.715  11.384  0.00  0.00    +0.000 A 
ATOM     26  C   UNL     1       4.803   3.592  12.386  0.00  0.00    +0.000 A 
ENDBRANCH  20  21
ENDBRANCH  19  20
ENDBRANCH   7  19
TORSDOF 6
ENDMDL
MODEL 3
REMARK VINA RESULT:      -7.6      0.740      1.115
REMARK  Name = 
REMARK  7 active torsions:
REMARK  status: ('A' for Active; 'I' for Inactive)
REMARK    1  A    between atoms: C_1  and  C_2
REMARK    2  A    between atoms: C_7  and  C_8
REMARK    3  A    between atoms: C_8  and  C_9
REMARK    4  A    between atoms: C_9  and  C_10
REMARK    5  A    between atoms: C_16  and  C_17
REMARK    6  A    between atoms: C_17  and  O_19
REMARK    7  A    between atoms: C_20  and  O_21
REMARK                            x       y       z     vdW  Elec       q    Type
REMARK                         _______ _______ _______ _____ _____    ______ ____
ROOT
ATOM      1  C   UNL     1       0.351   3.380  19.884  0.00  0.00    +0.000 C 
ATOM      2  C   UNL     1       1.600   3.928  19.252  0.00  0.00    +0.000 C 
ATOM      3  C   UNL     1       1.468   4.234  17.772  0.00  0.00    +0.000 C 
ATOM      4  O   UNL     1       2.292   3.346  16.983  0.00  0.00    +0.000 OA
ATOM      5  C   UNL     1       3.620   3.598  17.241  0.00  0.00    +0.000 A 
ATOM      6  C   UNL     1       4.441   3.834  16.151  0.00  0.00    +0.000 A 
ATOM      7  C   UNL     1       5.737   4.351  16.319  0.00  0.00    +0.000 A 
ATOM      8  C   UNL     1       6.248   4.452  17.641  0.00  0.00    +0.000 A 
ATOM      9  C   UNL     1       5.398   4.128  18.742  0.00  0.00    +0.000 A 
ATOM     10  C   UNL     1       4.065   3.725  18.560  0.00  0.00    +0.000 A 
ATOM     11  C   UNL     1       3.036   3.566  19.667  0.00  0.00    +0.000 C 
ATOM     12  C   UNL     1       2.401   4.825  20.180  0.00  0.00    +0.000 C 
ENDROOT
BRANCH   8  13
ATOM     13  C   UNL     1       7.662   4.843  17.878  0.00  0.00    +0.000 C 
ATOM     14  O   UNL     1       8.653   4.149  17.773  0.00  0.00    +0.000 OA
BRANCH  13  15
ATOM     15  O   UNL     1       7.794   6.135  18.261  0.00  0.00    +0.000 OA
ATOM     16  H   UNL     1       6.962   6.305  18.761  0.00  0.00    +0.000 HD
ENDBRANCH  13  15
ENDBRANCH   8  13
BRANCH   9  17
ATOM     17  O   UNL     1       5.803   4.253  20.053  0.00  0.00    +0.000 OA
ATOM     18  H   UNL     1       6.708   4.627  20.054  0.00  0.00    +0.000 HD
ENDBRANCH   9  17
BRANCH   7  19
ATOM     19  C   UNL     1       6.424   4.849  15.049  0.00  0.00    +0.000 C 
BRANCH  19  20
ATOM     20  C   UNL     1       5.545   4.610  13.792  0.00  0.00    +0.000 C 
BRANCH  20  21
ATOM     21  C   UNL     1       6.009   3.576  12.788  0.00  0.00    +0.000 A 
ATOM     22  C   UNL     1       5.063   2.685  12.246  0.00  0.00    +0.000 A 
ATOM     23  C   UNL     1       5.416   1.767  11.254  0.00  0.00    +0.000 A 
ATOM     24  C   UNL     1       6.723   1.730  10.782  0.00  0.00    +0.000 A 
ATOM     25  C   UNL     1       7.673   2.605  11.307  0.00  0.00    +0.000 A 
ATOM     26  C   UNL     1       7.319   3.526  12.300  0.00  0.00    +0.000 A 
ENDBRANCH  20  21
ENDBRANCH  19  20
ENDBRANCH   7  19
TORSDOF 6
ENDMDL
MODEL 4
REMARK VINA RESULT:      -7.4      3.382      8.276
REMARK  Name = 
REMARK  7 active torsions:
REMARK  status: ('A' for Active; 'I' for Inactive)
REMARK    1  A    between atoms: C_1  and  C_2
REMARK    2  A    between atoms: C_7  and  C_8
REMARK    3  A    between atoms: C_8  and  C_9
REMARK    4  A    between atoms: C_9  and  C_10
REMARK    5  A    between atoms: C_16  and  C_17
REMARK    6  A    between atoms: C_17  and  O_19
REMARK    7  A    between atoms: C_20  and  O_21
REMARK                            x       y       z     vdW  Elec       q    Type
REMARK                         _______ _______ _______ _____ _____    ______ ____
ROOT
ATOM      1  C   UNL     1       7.138   4.916  14.938  0.00  0.00    +0.000 C 
ATOM      2  C   UNL     1       5.871   4.943  15.746  0.00  0.00    +0.000 C 
ATOM      3  C   UNL     1       5.482   6.319  16.251  0.00  0.00    +0.000 C 
ATOM      4  O   UNL     1       5.582   6.390  17.692  0.00  0.00    +0.000 OA
ATOM      5  C   UNL     1       4.638   5.566  18.261  0.00  0.00    +0.000 A 
ATOM      6  C   UNL     1       3.802   6.126  19.212  0.00  0.00    +0.000 A 
ATOM      7  C   UNL     1       2.653   5.449  19.656  0.00  0.00    +0.000 A 
ATOM      8  C   UNL     1       2.472   4.102  19.241  0.00  0.00    +0.000 A 
ATOM      9  C   UNL     1       3.397   3.529  18.316  0.00  0.00    +0.000 A 
ATOM     10  C   UNL     1       4.474   4.260  17.791  0.00  0.00    +0.000 A 
ATOM     11  C   UNL     1       5.375   3.805  16.654  0.00  0.00    +0.000 C 
ATOM     12  C   UNL     1       4.828   3.950  15.265  0.00  0.00    +0.000 C 
ENDROOT
BRANCH   8  13
ATOM     13  C   UNL     1       1.364   3.282  19.796  0.00  0.00    +0.000 C 
ATOM     14  O   UNL     1       1.104   3.077  20.964  0.00  0.00    +0.000 OA
BRANCH  13  15
ATOM     15  O   UNL     1       0.596   2.716  18.836  0.00  0.00    +0.000 OA
ATOM     16  H   UNL     1       1.253   2.455  18.150  0.00  0.00    +0.000 HD
ENDBRANCH  13  15
ENDBRANCH   8  13
BRANCH   9  17
ATOM     17  O   UNL     1       3.257   2.249  17.826  0.00  0.00    +0.000 OA
ATOM     18  H   UNL     1       2.409   2.203  17.340  0.00  0.00    +0.000 HD
ENDBRANCH   9  17
BRANCH   7  19
ATOM     19  C   UNL     1       1.661   6.283  20.464  0.00  0.00    +0.000 C 
BRANCH  19  20
ATOM     20  C   UNL     1       1.801   7.797  20.155  0.00  0.00    +0.000 C 
BRANCH  20  21
ATOM     21  C   UNL     1       0.889   8.758  20.888  0.00  0.00    +0.000 A 
ATOM     22  C   UNL     1       0.839   8.708  22.294  0.00  0.00    +0.000 A 
ATOM     23  C   UNL     1       0.083   9.625  23.027  0.00  0.00    +0.000 A 
ATOM     24  C   UNL     1      -0.635  10.615  22.363  0.00  0.00    +0.000 A 
ATOM     25  C   UNL     1      -0.597  10.679  20.971  0.00  0.00    +0.000 A 
ATOM     26  C   UNL     1       0.163   9.761  20.237  0.00  0.00    +0.000 A 
ENDBRANCH  20  21
ENDBRANCH  19  20
ENDBRANCH   7  19
TORSDOF 6
ENDMDL
MODEL 5
REMARK VINA RESULT:      -7.4      3.492      8.196
REMARK  Name = 
REMARK  7 active torsions:
REMARK  status: ('A' for Active; 'I' for Inactive)
REMARK    1  A    between atoms: C_1  and  C_2
REMARK    2  A    between atoms: C_7  and  C_8
REMARK    3  A    between atoms: C_8  and  C_9
REMARK    4  A    between atoms: C_9  and  C_10
REMARK    5  A    between atoms: C_16  and  C_17
REMARK    6  A    between atoms: C_17  and  O_19
REMARK    7  A    between atoms: C_20  and  O_21
REMARK                            x       y       z     vdW  Elec       q    Type
REMARK                         _______ _______ _______ _____ _____    ______ ____
ROOT
ATOM      1  C   UNL     1       7.059   4.982  14.767  0.00  0.00    +0.000 C 
ATOM      2  C   UNL     1       5.873   4.927  15.688  0.00  0.00    +0.000 C 
ATOM      3  C   UNL     1       5.193   6.265  15.911  0.00  0.00    +0.000 C 
ATOM      4  O   UNL     1       5.356   6.708  17.278  0.00  0.00    +0.000 OA
ATOM      5  C   UNL     1       4.675   5.862  18.123  0.00  0.00    +0.000 A 
ATOM      6  C   UNL     1       3.785   6.440  19.012  0.00  0.00    +0.000 A 
ATOM      7  C   UNL     1       2.862   5.657  19.725  0.00  0.00    +0.000 A 
ATOM      8  C   UNL     1       2.987   4.243  19.648  0.00  0.00    +0.000 A 
ATOM      9  C   UNL     1       3.968   3.679  18.776  0.00  0.00    +0.000 A 
ATOM     10  C   UNL     1       4.804   4.477  17.980  0.00  0.00    +0.000 A 
ATOM     11  C   UNL     1       5.721   3.967  16.880  0.00  0.00    +0.000 C 
ATOM     12  C   UNL     1       5.075   3.641  15.566  0.00  0.00    +0.000 C 
ENDROOT
BRANCH   8  13
ATOM     13  C   UNL     1       2.145   3.361  20.497  0.00  0.00    +0.000 C 
ATOM     14  O   UNL     1       0.945   3.186  20.427  0.00  0.00    +0.000 OA
BRANCH  13  15
ATOM     15  O   UNL     1       2.857   2.708  21.446  0.00  0.00    +0.000 OA
ATOM     16  H   UNL     1       2.653   1.761  21.265  0.00  0.00    +0.000 HD
ENDBRANCH  13  15
ENDBRANCH   8  13
BRANCH   9  17
ATOM     17  O   UNL     1       4.114   2.319  18.607  0.00  0.00    +0.000 OA
ATOM     18  H   UNL     1       5.060   2.101  18.725  0.00  0.00    +0.000 HD
ENDBRANCH   9  17
BRANCH   7  19
ATOM     19  C   UNL     1       1.746   6.423  20.433  0.00  0.00    +0.000 C 
BRANCH  19  20
ATOM     20  C   UNL     1       1.778   7.934  20.081  0.00  0.00    +0.000 C 
BRANCH  20  21
ATOM     21  C   UNL     1       0.982   8.883  20.952  0.00  0.00    +0.000 A 
ATOM     22  C   UNL     1       0.214   9.888  20.335  0.00  0.00    +0.000 A 
ATOM     23  C   UNL     1      -0.605  10.737  21.082  0.00  0.00    +0.000 A 
ATOM     24  C   UNL     1      -0.675  10.590  22.463  0.00  0.00    +0.000 A 
ATOM     25  C   UNL     1       0.080   9.600  23.091  0.00  0.00    +0.000 A 
ATOM     26  C   UNL     1       0.899   8.748  22.342  0.00  0.00    +0.000 A 
ENDBRANCH  20  21
ENDBRANCH  19  20
ENDBRANCH   7  19
TORSDOF 6
ENDMDL
MODEL 6
REMARK VINA RESULT:      -7.4      3.322      5.850
REMARK  Name = 
REMARK  7 active torsions:
REMARK  status: ('A' for Active; 'I' for Inactive)
REMARK    1  A    between atoms: C_1  and  C_2
REMARK    2  A    between atoms: C_7  and  C_8
REMARK    3  A    between atoms: C_8  and  C_9
REMARK    4  A    between atoms: C_9  and  C_10
REMARK    5  A    between atoms: C_16  and  C_17
REMARK    6  A    between atoms: C_17  and  O_19
REMARK    7  A    between atoms: C_20  and  O_21
REMARK                            x       y       z     vdW  Elec       q    Type
REMARK                         _______ _______ _______ _____ _____    ______ ____
ROOT
ATOM      1  C   UNL     1       1.076   3.054  20.325  0.00  0.00    +0.000 C 
ATOM      2  C   UNL     1       2.320   3.676  19.757  0.00  0.00    +0.000 C 
ATOM      3  C   UNL     1       2.526   5.128  20.145  0.00  0.00    +0.000 C 
ATOM      4  O   UNL     1       2.403   5.995  18.994  0.00  0.00    +0.000 OA
ATOM      5  C   UNL     1       3.438   5.752  18.121  0.00  0.00    +0.000 A 
ATOM      6  C   UNL     1       4.186   6.843  17.709  0.00  0.00    +0.000 A 
ATOM      7  C   UNL     1       5.407   6.671  17.035  0.00  0.00    +0.000 A 
ATOM      8  C   UNL     1       5.763   5.357  16.626  0.00  0.00    +0.000 A 
ATOM      9  C   UNL     1       4.928   4.261  17.003  0.00  0.00    +0.000 A 
ATOM     10  C   UNL     1       3.772   4.439  17.779  0.00  0.00    +0.000 A 
ATOM     11  C   UNL     1       2.948   3.321  18.398  0.00  0.00    +0.000 C 
ATOM     12  C   UNL     1       3.486   2.708  19.657  0.00  0.00    +0.000 C 
ENDROOT
BRANCH   8  13
ATOM     13  C   UNL     1       6.961   5.127  15.777  0.00  0.00    +0.000 C 
ATOM     14  O   UNL     1       7.130   5.468  14.624  0.00  0.00    +0.000 OA
BRANCH  13  15
ATOM     15  O   UNL     1       7.939   4.447  16.419  0.00  0.00    +0.000 OA
ATOM     16  H   UNL     1       8.760   4.902  16.120  0.00  0.00    +0.000 HD
ENDBRANCH  13  15
ENDBRANCH   8  13
BRANCH   9  17
ATOM     17  O   UNL     1       5.235   2.955  16.690  0.00  0.00    +0.000 OA
ATOM     18  H   UNL     1       5.992   2.963  16.070  0.00  0.00    +0.000 HD
ENDBRANCH   9  17
BRANCH   7  19
ATOM     19  C   UNL     1       6.277   7.920  16.906  0.00  0.00    +0.000 C 
BRANCH  19  20
ATOM     20  C   UNL     1       7.552   7.821  17.784  0.00  0.00    +0.000 C 
BRANCH  20  21
ATOM     21  C   UNL     1       8.255   9.108  18.162  0.00  0.00    +0.000 A 
ATOM     22  C   UNL     1       8.011  10.264  17.397  0.00  0.00    +0.000 A 
ATOM     23  C   UNL     1       8.564  11.498  17.748  0.00  0.00    +0.000 A 
ATOM     24  C   UNL     1       9.369  11.596  18.879  0.00  0.00    +0.000 A 
ATOM     25  C   UNL     1       9.621  10.461  19.648  0.00  0.00    +0.000 A 
ATOM     26  C   UNL     1       9.065   9.225  19.296  0.00  0.00    +0.000 A 
ENDBRANCH  20  21
ENDBRANCH  19  20
ENDBRANCH   7  19
TORSDOF 6
ENDMDL
MODEL 7
REMARK VINA RESULT:      -7.4      3.100      7.686
REMARK  Name = 
REMARK  7 active torsions:
REMARK  status: ('A' for Active; 'I' for Inactive)
REMARK    1  A    between atoms: C_1  and  C_2
REMARK    2  A    between atoms: C_7  and  C_8
REMARK    3  A    between atoms: C_8  and  C_9
REMARK    4  A    between atoms: C_9  and  C_10
REMARK    5  A    between atoms: C_16  and  C_17
REMARK    6  A    between atoms: C_17  and  O_19
REMARK    7  A    between atoms: C_20  and  O_21
REMARK                            x       y       z     vdW  Elec       q    Type
REMARK                         _______ _______ _______ _____ _____    ______ ____
ROOT
ATOM      1  C   UNL     1       7.245   5.253  14.524  0.00  0.00    +0.000 C 
ATOM      2  C   UNL     1       6.006   5.024  15.343  0.00  0.00    +0.000 C 
ATOM      3  C   UNL     1       5.293   6.295  15.767  0.00  0.00    +0.000 C 
ATOM      4  O   UNL     1       5.367   6.478  17.199  0.00  0.00    +0.000 OA
ATOM      5  C   UNL     1       4.648   5.488  17.829  0.00  0.00    +0.000 A 
ATOM      6  C   UNL     1       3.697   5.888  18.752  0.00  0.00    +0.000 A 
ATOM      7  C   UNL     1       2.744   4.983  19.250  0.00  0.00    +0.000 A 
ATOM      8  C   UNL     1       2.895   3.609  18.921  0.00  0.00    +0.000 A 
ATOM      9  C   UNL     1       3.935   3.219  18.023  0.00  0.00    +0.000 A 
ATOM     10  C   UNL     1       4.806   4.154  17.442  0.00  0.00    +0.000 A 
ATOM     11  C   UNL     1       5.796   3.859  16.326  0.00  0.00    +0.000 C 
ATOM     12  C   UNL     1       5.236   3.780  14.936  0.00  0.00    +0.000 C 
ENDROOT
BRANCH   8  13
ATOM     13  C   UNL     1       2.016   2.582  19.538  0.00  0.00    +0.000 C 
ATOM     14  O   UNL     1       1.861   2.349  20.720  0.00  0.00    +0.000 OA
BRANCH  13  15
ATOM     15  O   UNL     1       1.342   1.847  18.623  0.00  0.00    +0.000 OA
ATOM     16  H   UNL     1       1.510   0.921  18.913  0.00  0.00    +0.000 HD
ENDBRANCH  13  15
ENDBRANCH   8  13
BRANCH   9  17
ATOM     17  O   UNL     1       4.111   1.915  17.615  0.00  0.00    +0.000 OA
ATOM     18  H   UNL     1       3.226   1.522  17.472  0.00  0.00    +0.000 HD
ENDBRANCH   9  17
BRANCH   7  19
ATOM     19  C   UNL     1       1.576   5.602  20.016  0.00  0.00    +0.000 C 
BRANCH  19  20
ATOM     20  C   UNL     1       2.023   6.839  20.838  0.00  0.00    +0.000 C 
BRANCH  20  21
ATOM     21  C   UNL     1       1.310   8.152  20.591  0.00  0.00    +0.000 A 
ATOM     22  C   UNL     1       1.446   8.771  19.334  0.00  0.00    +0.000 A 
ATOM     23  C   UNL     1       0.745   9.937  19.020  0.00  0.00    +0.000 A 
ATOM     24  C   UNL     1      -0.112  10.502  19.959  0.00  0.00    +0.000 A 
ATOM     25  C   UNL     1      -0.258   9.901  21.209  0.00  0.00    +0.000 A 
ATOM     26  C   UNL     1       0.443   8.732  21.523  0.00  0.00    +0.000 A 
ENDBRANCH  20  21
ENDBRANCH  19  20
ENDBRANCH   7  19
TORSDOF 6
ENDMDL
MODEL 8
REMARK VINA RESULT:      -7.4      3.677      7.817
REMARK  Name = 
REMARK  7 active torsions:
REMARK  status: ('A' for Active; 'I' for Inactive)
REMARK    1  A    between atoms: C_1  and  C_2
REMARK    2  A    between atoms: C_7  and  C_8
REMARK    3  A    between atoms: C_8  and  C_9
REMARK    4  A    between atoms: C_9  and  C_10
REMARK    5  A    between atoms: C_16  and  C_17
REMARK    6  A    between atoms: C_17  and  O_19
REMARK    7  A    between atoms: C_20  and  O_21
REMARK                            x       y       z     vdW  Elec       q    Type
REMARK                         _______ _______ _______ _____ _____    ______ ____
ROOT
ATOM      1  C   UNL     1       6.874   5.060  15.245  0.00  0.00    +0.000 C 
ATOM      2  C   UNL     1       5.672   4.986  16.144  0.00  0.00    +0.000 C 
ATOM      3  C   UNL     1       4.860   6.266  16.209  0.00  0.00    +0.000 C 
ATOM      4  O   UNL     1       4.940   6.864  17.523  0.00  0.00    +0.000 OA
ATOM      5  C   UNL     1       4.318   6.049  18.440  0.00  0.00    +0.000 A 
ATOM      6  C   UNL     1       3.350   6.627  19.245  0.00  0.00    +0.000 A 
ATOM      7  C   UNL     1       2.486   5.836  20.021  0.00  0.00    +0.000 A 
ATOM      8  C   UNL     1       2.749   4.441  20.098  0.00  0.00    +0.000 A 
ATOM      9  C   UNL     1       3.804   3.888  19.311  0.00  0.00    +0.000 A 
ATOM     10  C   UNL     1       4.584   4.676  18.450  0.00  0.00    +0.000 A 
ATOM     11  C   UNL     1       5.577   4.146  17.429  0.00  0.00    +0.000 C 
ATOM     12  C   UNL     1       5.005   3.622  16.145  0.00  0.00    +0.000 C 
ENDROOT
BRANCH   8  13
ATOM     13  C   UNL     1       1.971   3.574  21.021  0.00  0.00    +0.000 C 
ATOM     14  O   UNL     1       2.323   3.124  22.092  0.00  0.00    +0.000 OA
BRANCH  13  15
ATOM     15  O   UNL     1       0.735   3.281  20.552  0.00  0.00    +0.000 OA
ATOM     16  H   UNL     1       0.682   2.303  20.658  0.00  0.00    +0.000 HD
ENDBRANCH  13  15
ENDBRANCH   8  13
BRANCH   9  17
ATOM     17  O   UNL     1       4.085   2.539  19.292  0.00  0.00    +0.000 OA
ATOM     18  H   UNL     1       4.472   2.324  18.419  0.00  0.00    +0.000 HD
ENDBRANCH   9  17
BRANCH   7  19
ATOM     19  C   UNL     1       1.282   6.558  20.620  0.00  0.00    +0.000 C 
BRANCH  19  20
ATOM     20  C   UNL     1       1.635   8.011  21.036  0.00  0.00    +0.000 C 
BRANCH  20  21
ATOM     21  C   UNL     1       0.851   9.141  20.404  0.00  0.00    +0.000 A 
ATOM     22  C   UNL     1       1.007   9.389  19.028  0.00  0.00    +0.000 A 
ATOM     23  C   UNL     1       0.248  10.362  18.374  0.00  0.00    +0.000 A 
ATOM     24  C   UNL     1      -0.690  11.101  19.088  0.00  0.00    +0.000 A 
ATOM     25  C   UNL     1      -0.858  10.868  20.453  0.00  0.00    +0.000 A 
ATOM     26  C   UNL     1      -0.098   9.892  21.107  0.00  0.00    +0.000 A 
ENDBRANCH  20  21
ENDBRANCH  19  20
ENDBRANCH   7  19
TORSDOF 6
ENDMDL
MODEL 9
REMARK VINA RESULT:      -7.3      3.185      7.528
REMARK  Name = 
REMARK  7 active torsions:
REMARK  status: ('A' for Active; 'I' for Inactive)
REMARK    1  A    between atoms: C_1  and  C_2
REMARK    2  A    between atoms: C_7  and  C_8
REMARK    3  A    between atoms: C_8  and  C_9
REMARK    4  A    between atoms: C_9  and  C_10
REMARK    5  A    between atoms: C_16  and  C_17
REMARK    6  A    between atoms: C_17  and  O_19
REMARK    7  A    between atoms: C_20  and  O_21
REMARK                            x       y       z     vdW  Elec       q    Type
REMARK                         _______ _______ _______ _____ _____    ______ ____
ROOT
ATOM      1  C   UNL     1       7.087   5.016  14.914  0.00  0.00    +0.000 C 
ATOM      2  C   UNL     1       5.814   4.965  15.711  0.00  0.00    +0.000 C 
ATOM      3  C   UNL     1       5.410   6.291  16.329  0.00  0.00    +0.000 C 
ATOM      4  O   UNL     1       5.498   6.238  17.771  0.00  0.00    +0.000 OA
ATOM      5  C   UNL     1       4.556   5.362  18.259  0.00  0.00    +0.000 A 
ATOM      6  C   UNL     1       3.708   5.833  19.247  0.00  0.00    +0.000 A 
ATOM      7  C   UNL     1       2.561   5.113  19.621  0.00  0.00    +0.000 A 
ATOM      8  C   UNL     1       2.392   3.805  19.090  0.00  0.00    +0.000 A 
ATOM      9  C   UNL     1       3.329   3.320  18.128  0.00  0.00    +0.000 A 
ATOM     10  C   UNL     1       4.406   4.100  17.677  0.00  0.00    +0.000 A 
ATOM     11  C   UNL     1       5.319   3.750  16.513  0.00  0.00    +0.000 C 
ATOM     12  C   UNL     1       4.783   4.010  15.137  0.00  0.00    +0.000 C 
ENDROOT
BRANCH   8  13
ATOM     13  C   UNL     1       1.286   2.933  19.563  0.00  0.00    +0.000 C 
ATOM     14  O   UNL     1       1.024   2.619  20.707  0.00  0.00    +0.000 OA
BRANCH  13  15
ATOM     15  O   UNL     1       0.522   2.457  18.553  0.00  0.00    +0.000 OA
ATOM     16  H   UNL     1      -0.376   2.797  18.773  0.00  0.00    +0.000 HD
ENDBRANCH  13  15
ENDBRANCH   8  13
BRANCH   9  17
ATOM     17  O   UNL     1       3.203   2.085  17.529  0.00  0.00    +0.000 OA
ATOM     18  H   UNL     1       2.653   2.194  16.727  0.00  0.00    +0.000 HD
ENDBRANCH   9  17
BRANCH   7  19
ATOM     19  C   UNL     1       1.555   5.867  20.489  0.00  0.00    +0.000 C 
BRANCH  19  20
ATOM     20  C   UNL     1       2.002   7.332  20.740  0.00  0.00    +0.000 C 
BRANCH  20  21
ATOM     21  C   UNL     1       1.261   8.434  20.013  0.00  0.00    +0.000 A 
ATOM     22  C   UNL     1       0.237   9.124  20.691  0.00  0.00    +0.000 A 
ATOM     23  C   UNL     1      -0.423  10.205  20.102  0.00  0.00    +0.000 A 
ATOM     24  C   UNL     1      -0.064  10.619  18.824  0.00  0.00    +0.000 A 
ATOM     25  C   UNL     1       0.947   9.948  18.138  0.00  0.00    +0.000 A 
ATOM     26  C   UNL     1       1.610   8.866  18.729  0.00  0.00    +0.000 A 
ENDBRANCH  20  21
ENDBRANCH  19  20
ENDBRANCH   7  19
TORSDOF 6
ENDMDL
