MODEL 1
REMARK VINA RESULT:      -8.0      0.000      0.000
REMARK  Name = 
REMARK  2 active torsions:
REMARK  status: ('A' for Active; 'I' for Inactive)
REMARK    1  A    between atoms: N_1  and  C_2
REMARK    2  A    between atoms: C_7  and  C_8
REMARK                            x       y       z     vdW  Elec       q    Type
REMARK                         _______ _______ _______ _____ _____    ______ ____
ROOT
ATOM      1  C   UNL     1       5.159   4.787  15.322  0.00  0.00    +0.000 A 
ATOM      2  C   UNL     1       5.059   6.119  15.742  0.00  0.00    +0.000 A 
ATOM      3  C   UNL     1       4.402   6.485  16.928  0.00  0.00    +0.000 A 
ATOM      4  C   UNL     1       3.721   5.513  17.700  0.00  0.00    +0.000 A 
ATOM      5  C   UNL     1       3.781   4.194  17.264  0.00  0.00    +0.000 A 
ATOM      6  C   UNL     1       4.524   3.818  16.122  0.00  0.00    +0.000 A 
ATOM      7  S   UNL     1       2.846   3.153  18.260  0.00  0.00    +0.000 S 
ATOM      8  C   UNL     1       2.344   4.436  19.273  0.00  0.00    +0.000 A 
ATOM      9  C   UNL     1       1.472   4.414  20.363  0.00  0.00    +0.000 A 
ATOM     10  N   UNL     1       0.790   3.279  20.769  0.00  0.00    +0.000 N 
ATOM     11  N   UNL     1       1.278   5.548  21.051  0.00  0.00    +0.000 NA
ATOM     12  C   UNL     1       1.900   6.660  20.633  0.00  0.00    +0.000 A 
ATOM     13  N   UNL     1       2.714   6.793  19.580  0.00  0.00    +0.000 NA
ATOM     14  C   UNL     1       2.926   5.640  18.895  0.00  0.00    +0.000 A 
ATOM     15  H   UNL     1       1.167   2.393  20.463  0.00  0.00    +0.000 HD
ATOM     16  H   UNL     1       0.447   3.348  21.719  0.00  0.00    +0.000 HD
ENDROOT
BRANCH   1  22
ATOM     17  C   UNL     1       7.181   4.746  13.714  0.00  0.00    +0.000 A 
ATOM     18  C   UNL     1       7.699   4.380  12.456  0.00  0.00    +0.000 A 
ATOM     19  C   UNL     1       6.991   3.552  11.587  0.00  0.00    +0.000 A 
ATOM     20  C   UNL     1       5.722   3.127  11.935  0.00  0.00    +0.000 A 
ATOM     21  C   UNL     1       5.158   3.555  13.139  0.00  0.00    +0.000 A 
ATOM     22  C   UNL     1       5.854   4.379  14.060  0.00  0.00    +0.000 A 
BRANCH  17  23
ATOM     23  N   UNL     1       7.965   5.622  14.494  0.00  0.00    +0.000 N 
ATOM     24  H   UNL     1       7.691   5.658  15.470  0.00  0.00    +0.000 HD
ATOM     25  H   UNL     1       8.023   6.551  14.088  0.00  0.00    +0.000 HD
ENDBRANCH  17  23
ENDBRANCH   1  22
TORSDOF 2
ENDMDL
MODEL 2
REMARK VINA RESULT:      -7.8      3.988      5.841
REMARK  Name = 
REMARK  2 active torsions:
REMARK  status: ('A' for Active; 'I' for Inactive)
REMARK    1  A    between atoms: N_1  and  C_2
REMARK    2  A    between atoms: C_7  and  C_8
REMARK                            x       y       z     vdW  Elec       q    Type
REMARK                         _______ _______ _______ _____ _____    ______ ____
ROOT
ATOM      1  C   UNL     1       2.559   7.185  18.397  0.00  0.00    +0.000 A 
ATOM      2  C   UNL     1       2.322   8.256  17.526  0.00  0.00    +0.000 A 
ATOM      3  C   UNL     1       1.724   9.453  17.954  0.00  0.00    +0.000 A 
ATOM      4  C   UNL     1       1.242   9.580  19.279  0.00  0.00    +0.000 A 
ATOM      5  C   UNL     1       1.436   8.503  20.136  0.00  0.00    +0.000 A 
ATOM      6  C   UNL     1       2.124   7.338  19.727  0.00  0.00    +0.000 A 
ATOM      7  S   UNL     1       0.730   8.782  21.676  0.00  0.00    +0.000 S 
ATOM      8  C   UNL     1       0.152  10.326  21.224  0.00  0.00    +0.000 A 
ATOM      9  C   UNL     1      -0.617  11.234  21.957  0.00  0.00    +0.000 A 
ATOM     10  N   UNL     1      -1.109  10.965  23.223  0.00  0.00    +0.000 N 
ATOM     11  N   UNL     1      -0.898  12.424  21.408  0.00  0.00    +0.000 NA
ATOM     12  C   UNL     1      -0.463  12.670  20.164  0.00  0.00    +0.000 A 
ATOM     13  N   UNL     1       0.237  11.854  19.368  0.00  0.00    +0.000 NA
ATOM     14  C   UNL     1       0.539  10.656  19.931  0.00  0.00    +0.000 A 
ATOM     15  H   UNL     1      -0.647  10.230  23.740  0.00  0.00    +0.000 HD
ATOM     16  H   UNL     1      -1.377  11.803  23.723  0.00  0.00    +0.000 HD
ENDROOT
BRANCH   1  22
ATOM     17  C   UNL     1       4.552   5.764  17.571  0.00  0.00    +0.000 A 
ATOM     18  C   UNL     1       5.016   4.525  17.087  0.00  0.00    +0.000 A 
ATOM     19  C   UNL     1       4.211   3.387  17.100  0.00  0.00    +0.000 A 
ATOM     20  C   UNL     1       2.903   3.486  17.539  0.00  0.00    +0.000 A 
ATOM     21  C   UNL     1       2.400   4.727  17.936  0.00  0.00    +0.000 A 
ATOM     22  C   UNL     1       3.194   5.902  17.958  0.00  0.00    +0.000 A 
BRANCH  17  23
ATOM     23  N   UNL     1       5.438   6.857  17.470  0.00  0.00    +0.000 N 
ATOM     24  H   UNL     1       5.147   7.560  16.798  0.00  0.00    +0.000 HD
ATOM     25  H   UNL     1       6.398   6.563  17.310  0.00  0.00    +0.000 HD
ENDBRANCH  17  23
ENDBRANCH   1  22
TORSDOF 2
ENDMDL
MODEL 3
REMARK VINA RESULT:      -7.7      4.441      6.127
REMARK  Name = 
REMARK  2 active torsions:
REMARK  status: ('A' for Active; 'I' for Inactive)
REMARK    1  A    between atoms: N_1  and  C_2
REMARK    2  A    between atoms: C_7  and  C_8
REMARK                            x       y       z     vdW  Elec       q    Type
REMARK                         _______ _______ _______ _____ _____    ______ ____
ROOT
ATOM      1  C   UNL     1       2.385   6.575  18.793  0.00  0.00    +0.000 A 
ATOM      2  C   UNL     1       2.360   7.538  17.775  0.00  0.00    +0.000 A 
ATOM      3  C   UNL     1       1.949   8.861  18.004  0.00  0.00    +0.000 A 
ATOM      4  C   UNL     1       1.443   9.247  19.268  0.00  0.00    +0.000 A 
ATOM      5  C   UNL     1       1.424   8.283  20.270  0.00  0.00    +0.000 A 
ATOM      6  C   UNL     1       1.927   6.979  20.062  0.00  0.00    +0.000 A 
ATOM      7  S   UNL     1       0.712   8.882  21.714  0.00  0.00    +0.000 S 
ATOM      8  C   UNL     1       0.412  10.419  21.027  0.00  0.00    +0.000 A 
ATOM      9  C   UNL     1      -0.226  11.529  21.585  0.00  0.00    +0.000 A 
ATOM     10  N   UNL     1      -0.806  11.520  22.843  0.00  0.00    +0.000 N 
ATOM     11  N   UNL     1      -0.287  12.660  20.869  0.00  0.00    +0.000 NA
ATOM     12  C   UNL     1       0.232  12.658  19.632  0.00  0.00    +0.000 A 
ATOM     13  N   UNL     1       0.820  11.639  18.995  0.00  0.00    +0.000 NA
ATOM     14  C   UNL     1       0.900  10.500  19.728  0.00  0.00    +0.000 A 
ATOM     15  H   UNL     1      -0.491  10.802  23.479  0.00  0.00    +0.000 HD
ATOM     16  H   UNL     1      -0.953  12.451  23.211  0.00  0.00    +0.000 HD
ENDROOT
BRANCH   1  22
ATOM     17  C   UNL     1       4.092   4.640  18.916  0.00  0.00    +0.000 A 
ATOM     18  C   UNL     1       4.421   3.314  18.571  0.00  0.00    +0.000 A 
ATOM     19  C   UNL     1       3.483   2.450  18.010  0.00  0.00    +0.000 A 
ATOM     20  C   UNL     1       2.213   2.919  17.725  0.00  0.00    +0.000 A 
ATOM     21  C   UNL     1       1.898   4.257  17.977  0.00  0.00    +0.000 A 
ATOM     22  C   UNL     1       2.818   5.160  18.567  0.00  0.00    +0.000 A 
BRANCH  17  23
ATOM     23  N   UNL     1       5.132   5.437  19.438  0.00  0.00    +0.000 N 
ATOM     24  H   UNL     1       5.514   5.092  20.312  0.00  0.00    +0.000 HD
ATOM     25  H   UNL     1       4.870   6.416  19.506  0.00  0.00    +0.000 HD
ENDBRANCH  17  23
ENDBRANCH   1  22
TORSDOF 2
ENDMDL
MODEL 4
REMARK VINA RESULT:      -7.7      3.938      5.980
REMARK  Name = 
REMARK  2 active torsions:
REMARK  status: ('A' for Active; 'I' for Inactive)
REMARK    1  A    between atoms: N_1  and  C_2
REMARK    2  A    between atoms: C_7  and  C_8
REMARK                            x       y       z     vdW  Elec       q    Type
REMARK                         _______ _______ _______ _____ _____    ______ ____
ROOT
ATOM      1  C   UNL     1       2.655   7.278  18.346  0.00  0.00    +0.000 A 
ATOM      2  C   UNL     1       2.322   8.340  17.495  0.00  0.00    +0.000 A 
ATOM      3  C   UNL     1       1.640   9.481  17.950  0.00  0.00    +0.000 A 
ATOM      4  C   UNL     1       1.172   9.552  19.284  0.00  0.00    +0.000 A 
ATOM      5  C   UNL     1       1.462   8.480  20.122  0.00  0.00    +0.000 A 
ATOM      6  C   UNL     1       2.230   7.377  19.684  0.00  0.00    +0.000 A 
ATOM      7  S   UNL     1       0.761   8.682  21.676  0.00  0.00    +0.000 S 
ATOM      8  C   UNL     1       0.058  10.183  21.257  0.00  0.00    +0.000 A 
ATOM      9  C   UNL     1      -0.766  11.018  22.015  0.00  0.00    +0.000 A 
ATOM     10  N   UNL     1      -1.216  10.693  23.285  0.00  0.00    +0.000 N 
ATOM     11  N   UNL     1      -1.147  12.191  21.490  0.00  0.00    +0.000 NA
ATOM     12  C   UNL     1      -0.751  12.488  20.243  0.00  0.00    +0.000 A 
ATOM     13  N   UNL     1      -0.004  11.739  19.424  0.00  0.00    +0.000 NA
ATOM     14  C   UNL     1       0.399  10.560  19.963  0.00  0.00    +0.000 A 
ATOM     15  H   UNL     1      -0.690   9.989  23.782  0.00  0.00    +0.000 HD
ATOM     16  H   UNL     1      -1.539  11.501  23.801  0.00  0.00    +0.000 HD
ENDROOT
BRANCH   1  22
ATOM     17  C   UNL     1       2.782   4.777  17.710  0.00  0.00    +0.000 A 
ATOM     18  C   UNL     1       3.583   3.675  17.351  0.00  0.00    +0.000 A 
ATOM     19  C   UNL     1       4.930   3.826  17.027  0.00  0.00    +0.000 A 
ATOM     20  C   UNL     1       5.515   5.076  17.118  0.00  0.00    +0.000 A 
ATOM     21  C   UNL     1       4.756   6.162  17.559  0.00  0.00    +0.000 A 
ATOM     22  C   UNL     1       3.379   6.054  17.877  0.00  0.00    +0.000 A 
BRANCH  17  23
ATOM     23  N   UNL     1       1.443   4.502  18.059  0.00  0.00    +0.000 N 
ATOM     24  H   UNL     1       1.107   5.041  18.851  0.00  0.00    +0.000 HD
ATOM     25  H   UNL     1       1.273   3.508  18.185  0.00  0.00    +0.000 HD
ENDBRANCH  17  23
ENDBRANCH   1  22
TORSDOF 2
ENDMDL
MODEL 5
REMARK VINA RESULT:      -7.7      3.491      8.361
REMARK  Name = 
REMARK  2 active torsions:
REMARK  status: ('A' for Active; 'I' for Inactive)
REMARK    1  A    between atoms: N_1  and  C_2
REMARK    2  A    between atoms: C_7  and  C_8
REMARK                            x       y       z     vdW  Elec       q    Type
REMARK                         _______ _______ _______ _____ _____    ______ ____
ROOT
ATOM      1  C   UNL     1       1.170   8.766  20.077  0.00  0.00    +0.000 A 
ATOM      2  C   UNL     1       1.712   9.226  18.870  0.00  0.00    +0.000 A 
ATOM      3  C   UNL     1       2.521   8.417  18.055  0.00  0.00    +0.000 A 
ATOM      4  C   UNL     1       2.903   7.123  18.482  0.00  0.00    +0.000 A 
ATOM      5  C   UNL     1       2.403   6.678  19.701  0.00  0.00    +0.000 A 
ATOM      6  C   UNL     1       1.512   7.459  20.472  0.00  0.00    +0.000 A 
ATOM      7  S   UNL     1       3.017   5.128  20.112  0.00  0.00    +0.000 S 
ATOM      8  C   UNL     1       3.960   5.032  18.689  0.00  0.00    +0.000 A 
ATOM      9  C   UNL     1       4.844   4.032  18.278  0.00  0.00    +0.000 A 
ATOM     10  N   UNL     1       5.154   2.925  19.052  0.00  0.00    +0.000 N 
ATOM     11  N   UNL     1       5.428   4.147  17.077  0.00  0.00    +0.000 NA
ATOM     12  C   UNL     1       5.167   5.240  16.345  0.00  0.00    +0.000 A 
ATOM     13  N   UNL     1       4.375   6.269  16.668  0.00  0.00    +0.000 NA
ATOM     14  C   UNL     1       3.768   6.142  17.875  0.00  0.00    +0.000 A 
ATOM     15  H   UNL     1       4.498   2.689  19.782  0.00  0.00    +0.000 HD
ATOM     16  H   UNL     1       5.557   2.171  18.511  0.00  0.00    +0.000 HD
ENDROOT
BRANCH   1  22
ATOM     17  C   UNL     1      -0.457  10.725  20.515  0.00  0.00    +0.000 A 
ATOM     18  C   UNL     1      -1.159  11.507  21.452  0.00  0.00    +0.000 A 
ATOM     19  C   UNL     1      -1.234  11.146  22.796  0.00  0.00    +0.000 A 
ATOM     20  C   UNL     1      -0.552  10.026  23.237  0.00  0.00    +0.000 A 
ATOM     21  C   UNL     1       0.224   9.292  22.337  0.00  0.00    +0.000 A 
ATOM     22  C   UNL     1       0.307   9.615  20.959  0.00  0.00    +0.000 A 
BRANCH  17  23
ATOM     23  N   UNL     1      -0.411  11.209  19.190  0.00  0.00    +0.000 N 
ATOM     24  H   UNL     1      -0.511  10.485  18.486  0.00  0.00    +0.000 HD
ATOM     25  H   UNL     1       0.406  11.787  19.018  0.00  0.00    +0.000 HD
ENDBRANCH  17  23
ENDBRANCH   1  22
TORSDOF 2
ENDMDL
MODEL 6
REMARK VINA RESULT:      -7.6      3.030      4.437
REMARK  Name = 
REMARK  2 active torsions:
REMARK  status: ('A' for Active; 'I' for Inactive)
REMARK    1  A    between atoms: N_1  and  C_2
REMARK    2  A    between atoms: C_7  and  C_8
REMARK                            x       y       z     vdW  Elec       q    Type
REMARK                         _______ _______ _______ _____ _____    ______ ____
ROOT
ATOM      1  C   UNL     1       3.990   6.217  17.862  0.00  0.00    +0.000 A 
ATOM      2  C   UNL     1       3.662   5.737  19.136  0.00  0.00    +0.000 A 
ATOM      3  C   UNL     1       2.714   6.371  19.955  0.00  0.00    +0.000 A 
ATOM      4  C   UNL     1       2.123   7.594  19.555  0.00  0.00    +0.000 A 
ATOM      5  C   UNL     1       2.479   8.098  18.309  0.00  0.00    +0.000 A 
ATOM      6  C   UNL     1       3.361   7.406  17.448  0.00  0.00    +0.000 A 
ATOM      7  S   UNL     1       1.741   9.618  18.004  0.00  0.00    +0.000 S 
ATOM      8  C   UNL     1       0.950   9.632  19.520  0.00  0.00    +0.000 A 
ATOM      9  C   UNL     1       0.139  10.617  20.087  0.00  0.00    +0.000 A 
ATOM     10  N   UNL     1      -0.105  11.841  19.485  0.00  0.00    +0.000 N 
ATOM     11  N   UNL     1      -0.429  10.373  21.277  0.00  0.00    +0.000 NA
ATOM     12  C   UNL     1      -0.158   9.209  21.884  0.00  0.00    +0.000 A 
ATOM     13  N   UNL     1       0.637   8.225  21.446  0.00  0.00    +0.000 NA
ATOM     14  C   UNL     1       1.196   8.464  20.233  0.00  0.00    +0.000 A 
ATOM     15  H   UNL     1       0.055  11.892  18.489  0.00  0.00    +0.000 HD
ATOM     16  H   UNL     1      -0.922  12.305  19.861  0.00  0.00    +0.000 HD
ENDROOT
BRANCH   1  22
ATOM     17  C   UNL     1       6.287   6.078  16.686  0.00  0.00    +0.000 A 
ATOM     18  C   UNL     1       7.118   5.412  15.764  0.00  0.00    +0.000 A 
ATOM     19  C   UNL     1       6.767   4.177  15.223  0.00  0.00    +0.000 A 
ATOM     20  C   UNL     1       5.544   3.616  15.547  0.00  0.00    +0.000 A 
ATOM     21  C   UNL     1       4.670   4.307  16.389  0.00  0.00    +0.000 A 
ATOM     22  C   UNL     1       5.000   5.554  16.976  0.00  0.00    +0.000 A 
BRANCH  17  23
ATOM     23  N   UNL     1       6.723   7.342  17.136  0.00  0.00    +0.000 N 
ATOM     24  H   UNL     1       7.173   7.900  16.418  0.00  0.00    +0.000 HD
ATOM     25  H   UNL     1       7.295   7.277  17.972  0.00  0.00    +0.000 HD
ENDBRANCH  17  23
ENDBRANCH   1  22
TORSDOF 2
ENDMDL
MODEL 7
REMARK VINA RESULT:      -7.6      3.724      5.966
REMARK  Name = 
REMARK  2 active torsions:
REMARK  status: ('A' for Active; 'I' for Inactive)
REMARK    1  A    between atoms: N_1  and  C_2
REMARK    2  A    between atoms: C_7  and  C_8
REMARK                            x       y       z     vdW  Elec       q    Type
REMARK                         _______ _______ _______ _____ _____    ______ ____
ROOT
ATOM      1  C   UNL     1       2.636   6.879  18.780  0.00  0.00    +0.000 A 
ATOM      2  C   UNL     1       2.319   6.421  20.065  0.00  0.00    +0.000 A 
ATOM      3  C   UNL     1       1.522   7.165  20.951  0.00  0.00    +0.000 A 
ATOM      4  C   UNL     1       1.089   8.467  20.606  0.00  0.00    +0.000 A 
ATOM      5  C   UNL     1       1.438   8.945  19.347  0.00  0.00    +0.000 A 
ATOM      6  C   UNL     1       2.159   8.155  18.423  0.00  0.00    +0.000 A 
ATOM      7  S   UNL     1       0.907  10.560  19.111  0.00  0.00    +0.000 S 
ATOM      8  C   UNL     1       0.218  10.651  20.674  0.00  0.00    +0.000 A 
ATOM      9  C   UNL     1      -0.408  11.728  21.304  0.00  0.00    +0.000 A 
ATOM     10  N   UNL     1      -0.511  12.987  20.736  0.00  0.00    +0.000 N 
ATOM     11  N   UNL     1      -0.934  11.540  22.523  0.00  0.00    +0.000 NA
ATOM     12  C   UNL     1      -0.795  10.335  23.096  0.00  0.00    +0.000 A 
ATOM     13  N   UNL     1      -0.177   9.259  22.595  0.00  0.00    +0.000 NA
ATOM     14  C   UNL     1       0.338   9.444  21.353  0.00  0.00    +0.000 A 
ATOM     15  H   UNL     1      -0.405  13.038  19.733  0.00  0.00    +0.000 HD
ATOM     16  H   UNL     1      -1.230  13.553  21.169  0.00  0.00    +0.000 HD
ENDROOT
BRANCH   1  22
ATOM     17  C   UNL     1       3.320   4.721  17.535  0.00  0.00    +0.000 A 
ATOM     18  C   UNL     1       4.238   4.072  16.686  0.00  0.00    +0.000 A 
ATOM     19  C   UNL     1       5.235   4.776  16.013  0.00  0.00    +0.000 A 
ATOM     20  C   UNL     1       5.370   6.136  16.228  0.00  0.00    +0.000 A 
ATOM     21  C   UNL     1       4.525   6.778  17.136  0.00  0.00    +0.000 A 
ATOM     22  C   UNL     1       3.486   6.101  17.823  0.00  0.00    +0.000 A 
BRANCH  17  23
ATOM     23  N   UNL     1       2.381   3.904  18.198  0.00  0.00    +0.000 N 
ATOM     24  H   UNL     1       1.435   3.992  17.839  0.00  0.00    +0.000 HD
ATOM     25  H   UNL     1       2.410   4.023  19.206  0.00  0.00    +0.000 HD
ENDBRANCH  17  23
ENDBRANCH   1  22
TORSDOF 2
ENDMDL
MODEL 8
REMARK VINA RESULT:      -7.4      3.283      5.024
REMARK  Name = 
REMARK  2 active torsions:
REMARK  status: ('A' for Active; 'I' for Inactive)
REMARK    1  A    between atoms: N_1  and  C_2
REMARK    2  A    between atoms: C_7  and  C_8
REMARK                            x       y       z     vdW  Elec       q    Type
REMARK                         _______ _______ _______ _____ _____    ______ ____
ROOT
ATOM      1  C   UNL     1       3.663   6.381  18.150  0.00  0.00    +0.000 A 
ATOM      2  C   UNL     1       3.300   5.943  19.430  0.00  0.00    +0.000 A 
ATOM      3  C   UNL     1       2.375   6.638  20.227  0.00  0.00    +0.000 A 
ATOM      4  C   UNL     1       1.846   7.878  19.796  0.00  0.00    +0.000 A 
ATOM      5  C   UNL     1       2.238   8.340  18.544  0.00  0.00    +0.000 A 
ATOM      6  C   UNL     1       3.094   7.590  17.706  0.00  0.00    +0.000 A 
ATOM      7  S   UNL     1       1.574   9.886  18.201  0.00  0.00    +0.000 S 
ATOM      8  C   UNL     1       0.770   9.968  19.708  0.00  0.00    +0.000 A 
ATOM      9  C   UNL     1       0.001  11.001  20.247  0.00  0.00    +0.000 A 
ATOM     10  N   UNL     1      -0.179  12.223  19.618  0.00  0.00    +0.000 N 
ATOM     11  N   UNL     1      -0.589  10.809  21.435  0.00  0.00    +0.000 NA
ATOM     12  C   UNL     1      -0.379   9.645  22.068  0.00  0.00    +0.000 A 
ATOM     13  N   UNL     1       0.373   8.617  21.658  0.00  0.00    +0.000 NA
ATOM     14  C   UNL     1       0.955   8.805  20.447  0.00  0.00    +0.000 A 
ATOM     15  H   UNL     1      -0.007  12.246  18.623  0.00  0.00    +0.000 HD
ATOM     16  H   UNL     1      -0.977  12.732  19.976  0.00  0.00    +0.000 HD
ENDROOT
BRANCH   1  22
ATOM     17  C   UNL     1       4.435   4.369  16.726  0.00  0.00    +0.000 A 
ATOM     18  C   UNL     1       5.472   3.743  16.006  0.00  0.00    +0.000 A 
ATOM     19  C   UNL     1       6.663   4.405  15.716  0.00  0.00    +0.000 A 
ATOM     20  C   UNL     1       6.864   5.686  16.198  0.00  0.00    +0.000 A 
ATOM     21  C   UNL     1       5.882   6.286  16.990  0.00  0.00    +0.000 A 
ATOM     22  C   UNL     1       4.649   5.654  17.288  0.00  0.00    +0.000 A 
BRANCH  17  23
ATOM     23  N   UNL     1       3.291   3.590  16.998  0.00  0.00    +0.000 N 
ATOM     24  H   UNL     1       2.649   3.517  16.215  0.00  0.00    +0.000 HD
ATOM     25  H   UNL     1       2.814   3.888  17.845  0.00  0.00    +0.000 HD
ENDBRANCH  17  23
ENDBRANCH   1  22
TORSDOF 2
ENDMDL
MODEL 9
REMARK VINA RESULT:      -7.3      3.561      8.239
REMARK  Name = 
REMARK  2 active torsions:
REMARK  status: ('A' for Active; 'I' for Inactive)
REMARK    1  A    between atoms: N_1  and  C_2
REMARK    2  A    between atoms: C_7  and  C_8
REMARK                            x       y       z     vdW  Elec       q    Type
REMARK                         _______ _______ _______ _____ _____    ______ ____
ROOT
ATOM      1  C   UNL     1       1.227   9.036  19.639  0.00  0.00    +0.000 A 
ATOM      2  C   UNL     1       1.809   9.390  18.415  0.00  0.00    +0.000 A 
ATOM      3  C   UNL     1       2.633   8.510  17.694  0.00  0.00    +0.000 A 
ATOM      4  C   UNL     1       2.992   7.254  18.240  0.00  0.00    +0.000 A 
ATOM      5  C   UNL     1       2.452   6.916  19.476  0.00  0.00    +0.000 A 
ATOM      6  C   UNL     1       1.547   7.765  20.152  0.00  0.00    +0.000 A 
ATOM      7  S   UNL     1       3.041   5.403  20.034  0.00  0.00    +0.000 S 
ATOM      8  C   UNL     1       4.024   5.182  18.652  0.00  0.00    +0.000 A 
ATOM      9  C   UNL     1       4.910   4.145  18.352  0.00  0.00    +0.000 A 
ATOM     10  N   UNL     1       5.188   3.105  19.225  0.00  0.00    +0.000 N 
ATOM     11  N   UNL     1       5.530   4.155  17.164  0.00  0.00    +0.000 NA
ATOM     12  C   UNL     1       5.299   5.184  16.335  0.00  0.00    +0.000 A 
ATOM     13  N   UNL     1       4.507   6.241  16.547  0.00  0.00    +0.000 NA
ATOM     14  C   UNL     1       3.865   6.221  17.743  0.00  0.00    +0.000 A 
ATOM     15  H   UNL     1       4.509   2.935  19.953  0.00  0.00    +0.000 HD
ATOM     16  H   UNL     1       5.599   2.306  18.761  0.00  0.00    +0.000 HD
ENDROOT
BRANCH   1  22
ATOM     17  C   UNL     1       0.348  10.073  21.837  0.00  0.00    +0.000 A 
ATOM     18  C   UNL     1      -0.590  10.912  22.470  0.00  0.00    +0.000 A 
ATOM     19  C   UNL     1      -1.438  11.742  21.739  0.00  0.00    +0.000 A 
ATOM     20  C   UNL     1      -1.406  11.699  20.357  0.00  0.00    +0.000 A 
ATOM     21  C   UNL     1      -0.546  10.806  19.714  0.00  0.00    +0.000 A 
ATOM     22  C   UNL     1       0.347   9.962  20.421  0.00  0.00    +0.000 A 
BRANCH  17  23
ATOM     23  N   UNL     1       1.126   9.245  22.673  0.00  0.00    +0.000 N 
ATOM     24  H   UNL     1       1.532   9.730  23.466  0.00  0.00    +0.000 HD
ATOM     25  H   UNL     1       1.827   8.724  22.155  0.00  0.00    +0.000 HD
ENDBRANCH  17  23
ENDBRANCH   1  22
TORSDOF 2
ENDMDL
