MODEL 1
REMARK VINA RESULT:      -7.0      0.000      0.000
REMARK  Name = 
REMARK  5 active torsions:
REMARK  status: ('A' for Active; 'I' for Inactive)
REMARK    1  A    between atoms: C_1  and  O_2
REMARK    2  A    between atoms: O_2  and  C_3
REMARK    3  A    between atoms: C_6  and  O_7
REMARK    4  A    between atoms: O_7  and  C_8
REMARK    5  A    between atoms: N_10  and  C_11
REMARK                            x       y       z     vdW  Elec       q    Type
REMARK                         _______ _______ _______ _____ _____    ______ ____
ROOT
ATOM      1  C   UNL     1       5.330   6.069  17.578  0.00  0.00    +0.000 C 
ATOM      2  O   UNL     1       4.618   6.860  16.959  0.00  0.00    +0.000 OA
ATOM      3  N   UNL     1       4.986   5.419  18.736  0.00  0.00    +0.000 N 
ATOM      4  H   UNL     1       5.726   5.078  19.332  0.00  0.00    +0.000 HD
ENDROOT
BRANCH   3   5
ATOM      5  C   UNL     1       3.662   5.312  19.237  0.00  0.00    +0.000 A 
ATOM      6  C   UNL     1       3.075   6.373  19.948  0.00  0.00    +0.000 A 
ATOM      7  C   UNL     1       1.802   6.249  20.484  0.00  0.00    +0.000 A 
ATOM      8  C   UNL     1       1.124   5.045  20.353  0.00  0.00    +0.000 A 
ATOM      9  C   UNL     1       1.700   3.982  19.640  0.00  0.00    +0.000 A 
ATOM     10  C   UNL     1       1.057   2.743  19.576  0.00  0.00    +0.000 A 
ATOM     11  C   UNL     1       1.624   1.707  18.848  0.00  0.00    +0.000 A 
ATOM     12  C   UNL     1       2.802   1.962  18.173  0.00  0.00    +0.000 A 
ATOM     13  N   UNL     1       3.481   3.130  18.246  0.00  0.00    +0.000 NA
ATOM     14  C   UNL     1       2.956   4.125  19.002  0.00  0.00    +0.000 A 
ENDBRANCH   3   5
BRANCH   1  15
ATOM     15  O   UNL     1       6.590   5.675  17.150  0.00  0.00    +0.000 OA
BRANCH  15  19
ATOM     16  C   UNL     1       6.288   3.911  13.358  0.00  0.00    +0.000 A 
ATOM     17  C   UNL     1       5.452   3.501  14.403  0.00  0.00    +0.000 A 
ATOM     18  C   UNL     1       5.566   4.069  15.677  0.00  0.00    +0.000 A 
ATOM     19  C   UNL     1       6.540   5.038  15.901  0.00  0.00    +0.000 A 
ATOM     20  C   UNL     1       7.387   5.443  14.862  0.00  0.00    +0.000 A 
ATOM     21  C   UNL     1       7.274   4.866  13.599  0.00  0.00    +0.000 A 
BRANCH  16  23
ATOM     22  C   UNL     1       4.700   3.218  11.750  0.00  0.00    +0.000 C 
ATOM     23  O   UNL     1       6.067   3.309  12.148  0.00  0.00    +0.000 OA
ENDBRANCH  16  23
ENDBRANCH  15  19
ENDBRANCH   1  15
TORSDOF 4
ENDMDL
MODEL 2
REMARK VINA RESULT:      -7.0      1.475      1.837
REMARK  Name = 
REMARK  5 active torsions:
REMARK  status: ('A' for Active; 'I' for Inactive)
REMARK    1  A    between atoms: C_1  and  O_2
REMARK    2  A    between atoms: O_2  and  C_3
REMARK    3  A    between atoms: C_6  and  O_7
REMARK    4  A    between atoms: O_7  and  C_8
REMARK    5  A    between atoms: N_10  and  C_11
REMARK                            x       y       z     vdW  Elec       q    Type
REMARK                         _______ _______ _______ _____ _____    ______ ____
ROOT
ATOM      1  C   UNL     1       5.959   6.269  15.990  0.00  0.00    +0.000 C 
ATOM      2  O   UNL     1       5.183   6.923  15.293  0.00  0.00    +0.000 OA
ATOM      3  N   UNL     1       5.779   5.957  17.313  0.00  0.00    +0.000 N 
ATOM      4  H   UNL     1       6.592   5.731  17.868  0.00  0.00    +0.000 HD
ENDROOT
BRANCH   3   5
ATOM      5  C   UNL     1       4.544   6.068  18.006  0.00  0.00    +0.000 A 
ATOM      6  C   UNL     1       3.798   7.258  17.958  0.00  0.00    +0.000 A 
ATOM      7  C   UNL     1       2.619   7.385  18.678  0.00  0.00    +0.000 A 
ATOM      8  C   UNL     1       2.203   6.339  19.488  0.00  0.00    +0.000 A 
ATOM      9  C   UNL     1       2.939   5.145  19.539  0.00  0.00    +0.000 A 
ATOM     10  C   UNL     1       2.569   4.122  20.416  0.00  0.00    +0.000 A 
ATOM     11  C   UNL     1       3.289   2.937  20.439  0.00  0.00    +0.000 A 
ATOM     12  C   UNL     1       4.339   2.802  19.551  0.00  0.00    +0.000 A 
ATOM     13  N   UNL     1       4.759   3.784  18.719  0.00  0.00    +0.000 NA
ATOM     14  C   UNL     1       4.090   4.962  18.735  0.00  0.00    +0.000 A 
ENDBRANCH   3   5
BRANCH   1  15
ATOM     15  O   UNL     1       7.129   5.698  15.507  0.00  0.00    +0.000 OA
BRANCH  15  19
ATOM     16  C   UNL     1       6.229   3.281  12.199  0.00  0.00    +0.000 A 
ATOM     17  C   UNL     1       5.563   3.100  13.417  0.00  0.00    +0.000 A 
ATOM     18  C   UNL     1       5.878   3.887  14.531  0.00  0.00    +0.000 A 
ATOM     19  C   UNL     1       6.881   4.845  14.420  0.00  0.00    +0.000 A 
ATOM     20  C   UNL     1       7.559   5.023  13.208  0.00  0.00    +0.000 A 
ATOM     21  C   UNL     1       7.248   4.229  12.106  0.00  0.00    +0.000 A 
BRANCH  16  23
ATOM     22  C   UNL     1       6.394   1.173  11.145  0.00  0.00    +0.000 C 
ATOM     23  O   UNL     1       5.818   2.477  11.170  0.00  0.00    +0.000 OA
ENDBRANCH  16  23
ENDBRANCH  15  19
ENDBRANCH   1  15
TORSDOF 4
ENDMDL
MODEL 3
REMARK VINA RESULT:      -6.9      2.246      4.529
REMARK  Name = 
REMARK  5 active torsions:
REMARK  status: ('A' for Active; 'I' for Inactive)
REMARK    1  A    between atoms: C_1  and  O_2
REMARK    2  A    between atoms: O_2  and  C_3
REMARK    3  A    between atoms: C_6  and  O_7
REMARK    4  A    between atoms: O_7  and  C_8
REMARK    5  A    between atoms: N_10  and  C_11
REMARK                            x       y       z     vdW  Elec       q    Type
REMARK                         _______ _______ _______ _____ _____    ______ ____
ROOT
ATOM      1  C   UNL     1       5.305   4.158  16.863  0.00  0.00    +0.000 C 
ATOM      2  O   UNL     1       4.446   4.458  16.033  0.00  0.00    +0.000 OA
ATOM      3  N   UNL     1       5.066   3.673  18.124  0.00  0.00    +0.000 N 
ATOM      4  H   UNL     1       5.784   3.784  18.825  0.00  0.00    +0.000 HD
ENDROOT
BRANCH   3   5
ATOM      5  C   UNL     1       3.820   3.152  18.563  0.00  0.00    +0.000 A 
ATOM      6  C   UNL     1       3.416   1.856  18.203  0.00  0.00    +0.000 A 
ATOM      7  C   UNL     1       2.176   1.367  18.587  0.00  0.00    +0.000 A 
ATOM      8  C   UNL     1       1.312   2.188  19.296  0.00  0.00    +0.000 A 
ATOM      9  C   UNL     1       1.709   3.483  19.665  0.00  0.00    +0.000 A 
ATOM     10  C   UNL     1       0.812   4.343  20.306  0.00  0.00    +0.000 A 
ATOM     11  C   UNL     1       1.223   5.611  20.688  0.00  0.00    +0.000 A 
ATOM     12  C   UNL     1       2.538   5.963  20.448  0.00  0.00    +0.000 A 
ATOM     13  N   UNL     1       3.424   5.181  19.790  0.00  0.00    +0.000 NA
ATOM     14  C   UNL     1       3.007   3.962  19.367  0.00  0.00    +0.000 A 
ENDBRANCH   3   5
BRANCH   1  15
ATOM     15  O   UNL     1       6.669   4.221  16.613  0.00  0.00    +0.000 OA
BRANCH  15  19
ATOM     16  C   UNL     1       8.225   7.646  18.467  0.00  0.00    +0.000 A 
ATOM     17  C   UNL     1       7.694   7.715  17.173  0.00  0.00    +0.000 A 
ATOM     18  C   UNL     1       7.198   6.569  16.541  0.00  0.00    +0.000 A 
ATOM     19  C   UNL     1       7.254   5.349  17.209  0.00  0.00    +0.000 A 
ATOM     20  C   UNL     1       7.795   5.273  18.498  0.00  0.00    +0.000 A 
ATOM     21  C   UNL     1       8.297   6.415  19.117  0.00  0.00    +0.000 A 
BRANCH  16  23
ATOM     22  C   UNL     1       8.621   9.949  18.111  0.00  0.00    +0.000 C 
ATOM     23  O   UNL     1       8.654   8.834  18.998  0.00  0.00    +0.000 OA
ENDBRANCH  16  23
ENDBRANCH  15  19
ENDBRANCH   1  15
TORSDOF 4
ENDMDL
MODEL 4
REMARK VINA RESULT:      -6.9      0.283      1.061
REMARK  Name = 
REMARK  5 active torsions:
REMARK  status: ('A' for Active; 'I' for Inactive)
REMARK    1  A    between atoms: C_1  and  O_2
REMARK    2  A    between atoms: O_2  and  C_3
REMARK    3  A    between atoms: C_6  and  O_7
REMARK    4  A    between atoms: O_7  and  C_8
REMARK    5  A    between atoms: N_10  and  C_11
REMARK                            x       y       z     vdW  Elec       q    Type
REMARK                         _______ _______ _______ _____ _____    ______ ____
ROOT
ATOM      1  C   UNL     1       5.293   6.052  17.629  0.00  0.00    +0.000 C 
ATOM      2  O   UNL     1       4.613   6.923  17.086  0.00  0.00    +0.000 OA
ATOM      3  N   UNL     1       4.930   5.325  18.734  0.00  0.00    +0.000 N 
ATOM      4  H   UNL     1       5.658   4.903  19.292  0.00  0.00    +0.000 HD
ENDROOT
BRANCH   3   5
ATOM      5  C   UNL     1       3.606   5.237  19.240  0.00  0.00    +0.000 A 
ATOM      6  C   UNL     1       3.055   6.285  19.997  0.00  0.00    +0.000 A 
ATOM      7  C   UNL     1       1.782   6.176  20.537  0.00  0.00    +0.000 A 
ATOM      8  C   UNL     1       1.069   5.000  20.363  0.00  0.00    +0.000 A 
ATOM      9  C   UNL     1       1.609   3.949  19.605  0.00  0.00    +0.000 A 
ATOM     10  C   UNL     1       0.930   2.732  19.497  0.00  0.00    +0.000 A 
ATOM     11  C   UNL     1       1.462   1.711  18.724  0.00  0.00    +0.000 A 
ATOM     12  C   UNL     1       2.643   1.957  18.051  0.00  0.00    +0.000 A 
ATOM     13  N   UNL     1       3.356   3.102  18.166  0.00  0.00    +0.000 NA
ATOM     14  C   UNL     1       2.864   4.081  18.964  0.00  0.00    +0.000 A 
ENDBRANCH   3   5
BRANCH   1  15
ATOM     15  O   UNL     1       6.531   5.639  17.156  0.00  0.00    +0.000 OA
BRANCH  15  19
ATOM     16  C   UNL     1       6.405   3.982  13.305  0.00  0.00    +0.000 A 
ATOM     17  C   UNL     1       7.438   4.854  13.673  0.00  0.00    +0.000 A 
ATOM     18  C   UNL     1       7.469   5.429  14.948  0.00  0.00    +0.000 A 
ATOM     19  C   UNL     1       6.447   5.139  15.847  0.00  0.00    +0.000 A 
ATOM     20  C   UNL     1       5.406   4.277  15.481  0.00  0.00    +0.000 A 
ATOM     21  C   UNL     1       5.375   3.716  14.206  0.00  0.00    +0.000 A 
BRANCH  16  23
ATOM     22  C   UNL     1       5.456   2.542  11.689  0.00  0.00    +0.000 C 
ATOM     23  O   UNL     1       6.492   3.455  12.044  0.00  0.00    +0.000 OA
ENDBRANCH  16  23
ENDBRANCH  15  19
ENDBRANCH   1  15
TORSDOF 4
ENDMDL
MODEL 5
REMARK VINA RESULT:      -6.9      4.594      8.527
REMARK  Name = 
REMARK  5 active torsions:
REMARK  status: ('A' for Active; 'I' for Inactive)
REMARK    1  A    between atoms: C_1  and  O_2
REMARK    2  A    between atoms: O_2  and  C_3
REMARK    3  A    between atoms: C_6  and  O_7
REMARK    4  A    between atoms: O_7  and  C_8
REMARK    5  A    between atoms: N_10  and  C_11
REMARK                            x       y       z     vdW  Elec       q    Type
REMARK                         _______ _______ _______ _____ _____    ______ ____
ROOT
ATOM      1  C   UNL     1       1.633   8.176  20.654  0.00  0.00    +0.000 C 
ATOM      2  O   UNL     1       1.206   8.709  19.630  0.00  0.00    +0.000 OA
ATOM      3  N   UNL     1       2.163   6.913  20.738  0.00  0.00    +0.000 N 
ATOM      4  H   UNL     1       2.162   6.451  21.636  0.00  0.00    +0.000 HD
ENDROOT
BRANCH   3   5
ATOM      5  C   UNL     1       2.584   6.140  19.624  0.00  0.00    +0.000 A 
ATOM      6  C   UNL     1       3.489   6.665  18.686  0.00  0.00    +0.000 A 
ATOM      7  C   UNL     1       3.860   5.931  17.569  0.00  0.00    +0.000 A 
ATOM      8  C   UNL     1       3.291   4.684  17.358  0.00  0.00    +0.000 A 
ATOM      9  C   UNL     1       2.390   4.148  18.292  0.00  0.00    +0.000 A 
ATOM     10  C   UNL     1       1.753   2.930  18.042  0.00  0.00    +0.000 A 
ATOM     11  C   UNL     1       0.883   2.399  18.983  0.00  0.00    +0.000 A 
ATOM     12  C   UNL     1       0.711   3.092  20.166  0.00  0.00    +0.000 A 
ATOM     13  N   UNL     1       1.271   4.296  20.428  0.00  0.00    +0.000 NA
ATOM     14  C   UNL     1       2.078   4.841  19.486  0.00  0.00    +0.000 A 
ENDBRANCH   3   5
BRANCH   1  15
ATOM     15  O   UNL     1       1.689   8.813  21.885  0.00  0.00    +0.000 OA
BRANCH  15  19
ATOM     16  C   UNL     1      -1.174  11.833  22.411  0.00  0.00    +0.000 A 
ATOM     17  C   UNL     1      -1.239  10.651  23.159  0.00  0.00    +0.000 A 
ATOM     18  C   UNL     1      -0.301   9.630  22.968  0.00  0.00    +0.000 A 
ATOM     19  C   UNL     1       0.693   9.795  22.008  0.00  0.00    +0.000 A 
ATOM     20  C   UNL     1       0.756  10.970  21.249  0.00  0.00    +0.000 A 
ATOM     21  C   UNL     1      -0.187  11.978  21.436  0.00  0.00    +0.000 A 
BRANCH  16  23
ATOM     22  C   UNL     1      -3.199  12.326  23.524  0.00  0.00    +0.000 C 
ATOM     23  O   UNL     1      -2.124  12.775  22.702  0.00  0.00    +0.000 OA
ENDBRANCH  16  23
ENDBRANCH  15  19
ENDBRANCH   1  15
TORSDOF 4
ENDMDL
MODEL 6
REMARK VINA RESULT:      -6.8      1.341      1.853
REMARK  Name = 
REMARK  5 active torsions:
REMARK  status: ('A' for Active; 'I' for Inactive)
REMARK    1  A    between atoms: C_1  and  O_2
REMARK    2  A    between atoms: O_2  and  C_3
REMARK    3  A    between atoms: C_6  and  O_7
REMARK    4  A    between atoms: O_7  and  C_8
REMARK    5  A    between atoms: N_10  and  C_11
REMARK                            x       y       z     vdW  Elec       q    Type
REMARK                         _______ _______ _______ _____ _____    ______ ____
ROOT
ATOM      1  C   UNL     1       5.833   6.212  15.973  0.00  0.00    +0.000 C 
ATOM      2  O   UNL     1       5.093   6.979  15.357  0.00  0.00    +0.000 OA
ATOM      3  N   UNL     1       5.585   5.681  17.213  0.00  0.00    +0.000 N 
ATOM      4  H   UNL     1       6.368   5.359  17.763  0.00  0.00    +0.000 HD
ENDROOT
BRANCH   3   5
ATOM      5  C   UNL     1       4.315   5.681  17.849  0.00  0.00    +0.000 A 
ATOM      6  C   UNL     1       3.727   6.881  18.282  0.00  0.00    +0.000 A 
ATOM      7  C   UNL     1       2.512   6.876  18.951  0.00  0.00    +0.000 A 
ATOM      8  C   UNL     1       1.898   5.664  19.233  0.00  0.00    +0.000 A 
ATOM      9  C   UNL     1       2.475   4.460  18.800  0.00  0.00    +0.000 A 
ATOM     10  C   UNL     1       1.903   3.234  19.154  0.00  0.00    +0.000 A 
ATOM     11  C   UNL     1       2.469   2.052  18.700  0.00  0.00    +0.000 A 
ATOM     12  C   UNL     1       3.570   2.139  17.870  0.00  0.00    +0.000 A 
ATOM     13  N   UNL     1       4.182   3.301  17.542  0.00  0.00    +0.000 NA
ATOM     14  C   UNL     1       3.663   4.454  18.031  0.00  0.00    +0.000 A 
ENDBRANCH   3   5
BRANCH   1  15
ATOM     15  O   UNL     1       7.028   5.724  15.462  0.00  0.00    +0.000 OA
BRANCH  15  19
ATOM     16  C   UNL     1       6.571   3.246  12.109  0.00  0.00    +0.000 A 
ATOM     17  C   UNL     1       7.486   4.306  12.093  0.00  0.00    +0.000 A 
ATOM     18  C   UNL     1       7.623   5.151  13.200  0.00  0.00    +0.000 A 
ATOM     19  C   UNL     1       6.822   4.937  14.318  0.00  0.00    +0.000 A 
ATOM     20  C   UNL     1       5.897   3.887  14.335  0.00  0.00    +0.000 A 
ATOM     21  C   UNL     1       5.757   3.056  13.225  0.00  0.00    +0.000 A 
BRANCH  16  23
ATOM     22  C   UNL     1       6.085   1.130  11.176  0.00  0.00    +0.000 C 
ATOM     23  O   UNL     1       6.543   2.467  10.984  0.00  0.00    +0.000 OA
ENDBRANCH  16  23
ENDBRANCH  15  19
ENDBRANCH   1  15
TORSDOF 4
ENDMDL
MODEL 7
REMARK VINA RESULT:      -6.8      1.257      1.481
REMARK  Name = 
REMARK  5 active torsions:
REMARK  status: ('A' for Active; 'I' for Inactive)
REMARK    1  A    between atoms: C_1  and  O_2
REMARK    2  A    between atoms: O_2  and  C_3
REMARK    3  A    between atoms: C_6  and  O_7
REMARK    4  A    between atoms: O_7  and  C_8
REMARK    5  A    between atoms: N_10  and  C_11
REMARK                            x       y       z     vdW  Elec       q    Type
REMARK                         _______ _______ _______ _____ _____    ______ ____
ROOT
ATOM      1  C   UNL     1       6.480   6.097  16.427  0.00  0.00    +0.000 C 
ATOM      2  O   UNL     1       6.245   7.303  16.344  0.00  0.00    +0.000 OA
ATOM      3  N   UNL     1       5.738   5.184  17.132  0.00  0.00    +0.000 N 
ATOM      4  H   UNL     1       6.182   4.323  17.419  0.00  0.00    +0.000 HD
ENDROOT
BRANCH   3   5
ATOM      5  C   UNL     1       4.424   5.417  17.619  0.00  0.00    +0.000 A 
ATOM      6  C   UNL     1       3.962   6.725  17.841  0.00  0.00    +0.000 A 
ATOM      7  C   UNL     1       2.699   6.951  18.368  0.00  0.00    +0.000 A 
ATOM      8  C   UNL     1       1.906   5.868  18.719  0.00  0.00    +0.000 A 
ATOM      9  C   UNL     1       2.357   4.558  18.496  0.00  0.00    +0.000 A 
ATOM     10  C   UNL     1       1.598   3.465  18.925  0.00  0.00    +0.000 A 
ATOM     11  C   UNL     1       2.043   2.175  18.677  0.00  0.00    +0.000 A 
ATOM     12  C   UNL     1       3.220   2.022  17.971  0.00  0.00    +0.000 A 
ATOM     13  N   UNL     1       4.009   3.050  17.579  0.00  0.00    +0.000 NA
ATOM     14  C   UNL     1       3.602   4.311  17.869  0.00  0.00    +0.000 A 
ENDBRANCH   3   5
BRANCH   1  15
ATOM     15  O   UNL     1       7.524   5.470  15.761  0.00  0.00    +0.000 OA
BRANCH  15  19
ATOM     16  C   UNL     1       6.039   3.560  12.335  0.00  0.00    +0.000 A 
ATOM     17  C   UNL     1       5.450   3.339  13.586  0.00  0.00    +0.000 A 
ATOM     18  C   UNL     1       5.959   3.955  14.736  0.00  0.00    +0.000 A 
ATOM     19  C   UNL     1       7.075   4.779  14.626  0.00  0.00    +0.000 A 
ATOM     20  C   UNL     1       7.675   4.994  13.379  0.00  0.00    +0.000 A 
ATOM     21  C   UNL     1       7.170   4.369  12.240  0.00  0.00    +0.000 A 
BRANCH  16  23
ATOM     22  C   UNL     1       4.036   3.143  11.153  0.00  0.00    +0.000 C 
ATOM     23  O   UNL     1       5.441   2.931  11.276  0.00  0.00    +0.000 OA
ENDBRANCH  16  23
ENDBRANCH  15  19
ENDBRANCH   1  15
TORSDOF 4
ENDMDL
MODEL 8
REMARK VINA RESULT:      -6.8      3.137      5.019
REMARK  Name = 
REMARK  5 active torsions:
REMARK  status: ('A' for Active; 'I' for Inactive)
REMARK    1  A    between atoms: C_1  and  O_2
REMARK    2  A    between atoms: O_2  and  C_3
REMARK    3  A    between atoms: C_6  and  O_7
REMARK    4  A    between atoms: O_7  and  C_8
REMARK    5  A    between atoms: N_10  and  C_11
REMARK                            x       y       z     vdW  Elec       q    Type
REMARK                         _______ _______ _______ _____ _____    ______ ____
ROOT
ATOM      1  C   UNL     1       2.743   5.848  19.311  0.00  0.00    +0.000 C 
ATOM      2  O   UNL     1       1.727   5.268  18.930  0.00  0.00    +0.000 OA
ATOM      3  N   UNL     1       2.954   7.203  19.274  0.00  0.00    +0.000 N 
ATOM      4  H   UNL     1       3.906   7.541  19.280  0.00  0.00    +0.000 HD
ENDROOT
BRANCH   3   5
ATOM      5  C   UNL     1       1.934   8.172  19.082  0.00  0.00    +0.000 A 
ATOM      6  C   UNL     1       1.584   8.600  17.790  0.00  0.00    +0.000 A 
ATOM      7  C   UNL     1       0.625   9.586  17.605  0.00  0.00    +0.000 A 
ATOM      8  C   UNL     1       0.044  10.183  18.714  0.00  0.00    +0.000 A 
ATOM      9  C   UNL     1       0.384   9.759  20.008  0.00  0.00    +0.000 A 
ATOM     10  C   UNL     1      -0.137  10.414  21.127  0.00  0.00    +0.000 A 
ATOM     11  C   UNL     1       0.187   9.970  22.400  0.00  0.00    +0.000 A 
ATOM     12  C   UNL     1       0.995   8.855  22.509  0.00  0.00    +0.000 A 
ATOM     13  N   UNL     1       1.558   8.220  21.455  0.00  0.00    +0.000 NA
ATOM     14  C   UNL     1       1.286   8.687  20.212  0.00  0.00    +0.000 A 
ENDBRANCH   3   5
BRANCH   1  15
ATOM     15  O   UNL     1       3.823   5.200  19.895  0.00  0.00    +0.000 OA
BRANCH  15  19
ATOM     16  C   UNL     1       6.831   4.660  17.023  0.00  0.00    +0.000 A 
ATOM     17  C   UNL     1       5.529   4.204  16.785  0.00  0.00    +0.000 A 
ATOM     18  C   UNL     1       4.528   4.359  17.752  0.00  0.00    +0.000 A 
ATOM     19  C   UNL     1       4.848   4.958  18.967  0.00  0.00    +0.000 A 
ATOM     20  C   UNL     1       6.151   5.406  19.214  0.00  0.00    +0.000 A 
ATOM     21  C   UNL     1       7.145   5.239  18.251  0.00  0.00    +0.000 A 
BRANCH  16  23
ATOM     22  C   UNL     1       7.230   4.812  14.698  0.00  0.00    +0.000 C 
ATOM     23  O   UNL     1       7.720   4.483  15.996  0.00  0.00    +0.000 OA
ENDBRANCH  16  23
ENDBRANCH  15  19
ENDBRANCH   1  15
TORSDOF 4
ENDMDL
MODEL 9
REMARK VINA RESULT:      -6.8      1.092      1.322
REMARK  Name = 
REMARK  5 active torsions:
REMARK  status: ('A' for Active; 'I' for Inactive)
REMARK    1  A    between atoms: C_1  and  O_2
REMARK    2  A    between atoms: O_2  and  C_3
REMARK    3  A    between atoms: C_6  and  O_7
REMARK    4  A    between atoms: O_7  and  C_8
REMARK    5  A    between atoms: N_10  and  C_11
REMARK                            x       y       z     vdW  Elec       q    Type
REMARK                         _______ _______ _______ _____ _____    ______ ____
ROOT
ATOM      1  C   UNL     1       4.313   7.149  17.898  0.00  0.00    +0.000 C 
ATOM      2  O   UNL     1       3.329   7.830  17.610  0.00  0.00    +0.000 OA
ATOM      3  N   UNL     1       4.337   6.118  18.802  0.00  0.00    +0.000 N 
ATOM      4  H   UNL     1       5.223   5.860  19.213  0.00  0.00    +0.000 HD
ENDROOT
BRANCH   3   5
ATOM      5  C   UNL     1       3.182   5.472  19.317  0.00  0.00    +0.000 A 
ATOM      6  C   UNL     1       2.307   6.147  20.184  0.00  0.00    +0.000 A 
ATOM      7  C   UNL     1       1.209   5.499  20.730  0.00  0.00    +0.000 A 
ATOM      8  C   UNL     1       1.003   4.157  20.447  0.00  0.00    +0.000 A 
ATOM      9  C   UNL     1       1.868   3.475  19.578  0.00  0.00    +0.000 A 
ATOM     10  C   UNL     1       1.713   2.104  19.357  0.00  0.00    +0.000 A 
ATOM     11  C   UNL     1       2.559   1.446  18.476  0.00  0.00    +0.000 A 
ATOM     12  C   UNL     1       3.512   2.196  17.814  0.00  0.00    +0.000 A 
ATOM     13  N   UNL     1       3.727   3.514  18.034  0.00  0.00    +0.000 NA
ATOM     14  C   UNL     1       2.936   4.146  18.935  0.00  0.00    +0.000 A 
ENDBRANCH   3   5
BRANCH   1  15
ATOM     15  O   UNL     1       5.555   7.301  17.295  0.00  0.00    +0.000 OA
BRANCH  15  19
ATOM     16  C   UNL     1       6.495   4.299  14.522  0.00  0.00    +0.000 A 
ATOM     17  C   UNL     1       5.356   5.095  14.352  0.00  0.00    +0.000 A 
ATOM     18  C   UNL     1       5.024   6.081  15.288  0.00  0.00    +0.000 A 
ATOM     19  C   UNL     1       5.833   6.250  16.408  0.00  0.00    +0.000 A 
ATOM     20  C   UNL     1       6.967   5.448  16.590  0.00  0.00    +0.000 A 
ATOM     21  C   UNL     1       7.285   4.461  15.659  0.00  0.00    +0.000 A 
BRANCH  16  23
ATOM     22  C   UNL     1       5.816   3.407  12.441  0.00  0.00    +0.000 C 
ATOM     23  O   UNL     1       6.738   3.388  13.529  0.00  0.00    +0.000 OA
ENDBRANCH  16  23
ENDBRANCH  15  19
ENDBRANCH   1  15
TORSDOF 4
ENDMDL
