MODEL 1
REMARK VINA RESULT:      -6.9      0.000      0.000
REMARK  Name = 
REMARK  8 active torsions:
REMARK  status: ('A' for Active; 'I' for Inactive)
REMARK    1  A    between atoms: C_1  and  O_2
REMARK    2  A    between atoms: O_2  and  C_3
REMARK    3  A    between atoms: C_6  and  N_7
REMARK    4  A    between atoms: C_9  and  O_10
REMARK    5  A    between atoms: O_10  and  C_11
REMARK    6  A    between atoms: C_11  and  C_12
REMARK    7  A    between atoms: C_12  and  N_13
REMARK    8  A    between atoms: C_20  and  C_21
REMARK                            x       y       z     vdW  Elec       q    Type
REMARK                         _______ _______ _______ _____ _____    ______ ____
ROOT
ATOM      1  N   UNL     1       3.346   5.834  18.890  0.00  0.00    +0.000 N 
ATOM      2  N   UNL     1       4.697   5.852  19.085  0.00  0.00    +0.000 NA
ATOM      3  C   UNL     1       5.071   4.591  18.896  0.00  0.00    +0.000 A 
ATOM      4  C   UNL     1       4.011   3.766  18.493  0.00  0.00    +0.000 A 
ATOM      5  C   UNL     1       2.916   4.596  18.423  0.00  0.00    +0.000 A 
ATOM      6  C   UNL     1       1.576   4.302  17.855  0.00  0.00    +0.000 C 
ENDROOT
BRANCH   1  10
ATOM      7  C   UNL     1       0.994   9.266  19.662  0.00  0.00    +0.000 A 
ATOM      8  C   UNL     1       1.565   9.066  18.406  0.00  0.00    +0.000 A 
ATOM      9  C   UNL     1       2.352   7.935  18.146  0.00  0.00    +0.000 A 
ATOM     10  C   UNL     1       2.560   6.985  19.154  0.00  0.00    +0.000 A 
ATOM     11  C   UNL     1       2.015   7.208  20.423  0.00  0.00    +0.000 A 
ATOM     12  C   UNL     1       1.239   8.343  20.679  0.00  0.00    +0.000 A 
BRANCH   7  14
ATOM     13  C   UNL     1      -0.156  11.040  18.607  0.00  0.00    +0.000 C 
ATOM     14  O   UNL     1       0.275  10.419  19.814  0.00  0.00    +0.000 OA
ENDBRANCH   7  14
ENDBRANCH   1  10
BRANCH   3  15
ATOM     15  O   UNL     1       6.384   4.296  19.076  0.00  0.00    +0.000 OA
BRANCH  15  16
ATOM     16  C   UNL     1       7.214   5.117  18.245  0.00  0.00    +0.000 C 
BRANCH  16  17
ATOM     17  C   UNL     1       7.455   4.515  16.849  0.00  0.00    +0.000 C 
BRANCH  17  18
ATOM     18  N   UNL     1       7.092   5.452  15.762  0.00  0.00    +0.000 NA
ATOM     19  C   UNL     1       5.643   5.753  15.747  0.00  0.00    +0.000 C 
ATOM     20  C   UNL     1       4.780   4.623  15.161  0.00  0.00    +0.000 C 
ATOM     21  O   UNL     1       5.196   4.285  13.833  0.00  0.00    +0.000 OA
ATOM     22  C   UNL     1       6.576   3.908  13.809  0.00  0.00    +0.000 C 
ATOM     23  C   UNL     1       7.471   5.008  14.401  0.00  0.00    +0.000 C 
ENDBRANCH  17  18
ENDBRANCH  16  17
ENDBRANCH  15  16
ENDBRANCH   3  15
TORSDOF 6
ENDMDL
MODEL 2
REMARK VINA RESULT:      -6.8      0.844      1.422
REMARK  Name = 
REMARK  8 active torsions:
REMARK  status: ('A' for Active; 'I' for Inactive)
REMARK    1  A    between atoms: C_1  and  O_2
REMARK    2  A    between atoms: O_2  and  C_3
REMARK    3  A    between atoms: C_6  and  N_7
REMARK    4  A    between atoms: C_9  and  O_10
REMARK    5  A    between atoms: O_10  and  C_11
REMARK    6  A    between atoms: C_11  and  C_12
REMARK    7  A    between atoms: C_12  and  N_13
REMARK    8  A    between atoms: C_20  and  C_21
REMARK                            x       y       z     vdW  Elec       q    Type
REMARK                         _______ _______ _______ _____ _____    ______ ____
ROOT
ATOM      1  N   UNL     1       3.181   5.992  18.995  0.00  0.00    +0.000 N 
ATOM      2  N   UNL     1       4.498   5.958  19.357  0.00  0.00    +0.000 NA
ATOM      3  C   UNL     1       4.833   4.677  19.251  0.00  0.00    +0.000 A 
ATOM      4  C   UNL     1       3.793   3.885  18.742  0.00  0.00    +0.000 A 
ATOM      5  C   UNL     1       2.755   4.758  18.513  0.00  0.00    +0.000 A 
ATOM      6  C   UNL     1       1.482   4.503  17.792  0.00  0.00    +0.000 C 
ENDROOT
BRANCH   1  10
ATOM      7  C   UNL     1       0.926   9.549  19.404  0.00  0.00    +0.000 A 
ATOM      8  C   UNL     1       1.078   8.678  20.483  0.00  0.00    +0.000 A 
ATOM      9  C   UNL     1       1.818   7.494  20.351  0.00  0.00    +0.000 A 
ATOM     10  C   UNL     1       2.423   7.183  19.127  0.00  0.00    +0.000 A 
ATOM     11  C   UNL     1       2.238   8.041  18.039  0.00  0.00    +0.000 A 
ATOM     12  C   UNL     1       1.492   9.217  18.172  0.00  0.00    +0.000 A 
BRANCH   7  14
ATOM     13  C   UNL     1      -1.018  10.766  18.838  0.00  0.00    +0.000 C 
ATOM     14  O   UNL     1       0.158  10.656  19.634  0.00  0.00    +0.000 OA
ENDBRANCH   7  14
ENDBRANCH   1  10
BRANCH   3  15
ATOM     15  O   UNL     1       6.099   4.332  19.600  0.00  0.00    +0.000 OA
BRANCH  15  16
ATOM     16  C   UNL     1       7.061   5.027  18.797  0.00  0.00    +0.000 C 
BRANCH  16  17
ATOM     17  C   UNL     1       7.307   4.357  17.434  0.00  0.00    +0.000 C 
BRANCH  17  18
ATOM     18  N   UNL     1       7.614   5.341  16.371  0.00  0.00    +0.000 NA
ATOM     19  C   UNL     1       7.023   6.668  16.654  0.00  0.00    +0.000 C 
ATOM     20  C   UNL     1       5.510   6.744  16.389  0.00  0.00    +0.000 C 
ATOM     21  O   UNL     1       5.198   6.377  15.040  0.00  0.00    +0.000 OA
ATOM     22  C   UNL     1       5.681   5.062  14.743  0.00  0.00    +0.000 C 
ATOM     23  C   UNL     1       7.189   4.943  15.009  0.00  0.00    +0.000 C 
ENDBRANCH  17  18
ENDBRANCH  16  17
ENDBRANCH  15  16
ENDBRANCH   3  15
TORSDOF 6
ENDMDL
MODEL 3
REMARK VINA RESULT:      -6.7      0.940      1.082
REMARK  Name = 
REMARK  8 active torsions:
REMARK  status: ('A' for Active; 'I' for Inactive)
REMARK    1  A    between atoms: C_1  and  O_2
REMARK    2  A    between atoms: O_2  and  C_3
REMARK    3  A    between atoms: C_6  and  N_7
REMARK    4  A    between atoms: C_9  and  O_10
REMARK    5  A    between atoms: O_10  and  C_11
REMARK    6  A    between atoms: C_11  and  C_12
REMARK    7  A    between atoms: C_12  and  N_13
REMARK    8  A    between atoms: C_20  and  C_21
REMARK                            x       y       z     vdW  Elec       q    Type
REMARK                         _______ _______ _______ _____ _____    ______ ____
ROOT
ATOM      1  N   UNL     1       3.146   5.983  19.006  0.00  0.00    +0.000 N 
ATOM      2  N   UNL     1       4.459   5.932  19.378  0.00  0.00    +0.000 NA
ATOM      3  C   UNL     1       4.782   4.649  19.260  0.00  0.00    +0.000 A 
ATOM      4  C   UNL     1       3.739   3.873  18.733  0.00  0.00    +0.000 A 
ATOM      5  C   UNL     1       2.711   4.760  18.505  0.00  0.00    +0.000 A 
ATOM      6  C   UNL     1       1.443   4.527  17.768  0.00  0.00    +0.000 C 
ENDROOT
BRANCH   1  10
ATOM      7  C   UNL     1       0.911   9.554  19.406  0.00  0.00    +0.000 A 
ATOM      8  C   UNL     1       1.515   9.228  18.192  0.00  0.00    +0.000 A 
ATOM      9  C   UNL     1       2.264   8.050  18.055  0.00  0.00    +0.000 A 
ATOM     10  C   UNL     1       2.399   7.181  19.145  0.00  0.00    +0.000 A 
ATOM     11  C   UNL     1       1.822   7.530  20.370  0.00  0.00    +0.000 A 
ATOM     12  C   UNL     1       1.084   8.710  20.503  0.00  0.00    +0.000 A 
BRANCH   7  14
ATOM     13  C   UNL     1      -0.352  11.085  20.687  0.00  0.00    +0.000 C 
ATOM     14  O   UNL     1       0.234  10.742  19.436  0.00  0.00    +0.000 OA
ENDBRANCH   7  14
ENDBRANCH   1  10
BRANCH   3  15
ATOM     15  O   UNL     1       6.041   4.286  19.617  0.00  0.00    +0.000 OA
BRANCH  15  16
ATOM     16  C   UNL     1       7.017   4.992  18.842  0.00  0.00    +0.000 C 
BRANCH  16  17
ATOM     17  C   UNL     1       7.265   4.358  17.461  0.00  0.00    +0.000 C 
BRANCH  17  18
ATOM     18  N   UNL     1       7.587   5.369  16.428  0.00  0.00    +0.000 NA
ATOM     19  C   UNL     1       6.951   6.675  16.710  0.00  0.00    +0.000 C 
ATOM     20  C   UNL     1       5.447   6.717  16.389  0.00  0.00    +0.000 C 
ATOM     21  O   UNL     1       5.196   6.366  15.023  0.00  0.00    +0.000 OA
ATOM     22  C   UNL     1       5.724   5.070  14.722  0.00  0.00    +0.000 C 
ATOM     23  C   UNL     1       7.224   4.985  15.043  0.00  0.00    +0.000 C 
ENDBRANCH  17  18
ENDBRANCH  16  17
ENDBRANCH  15  16
ENDBRANCH   3  15
TORSDOF 6
ENDMDL
MODEL 4
REMARK VINA RESULT:      -6.6      2.042      7.406
REMARK  Name = 
REMARK  8 active torsions:
REMARK  status: ('A' for Active; 'I' for Inactive)
REMARK    1  A    between atoms: C_1  and  O_2
REMARK    2  A    between atoms: O_2  and  C_3
REMARK    3  A    between atoms: C_6  and  N_7
REMARK    4  A    between atoms: C_9  and  O_10
REMARK    5  A    between atoms: O_10  and  C_11
REMARK    6  A    between atoms: C_11  and  C_12
REMARK    7  A    between atoms: C_12  and  N_13
REMARK    8  A    between atoms: C_20  and  C_21
REMARK                            x       y       z     vdW  Elec       q    Type
REMARK                         _______ _______ _______ _____ _____    ______ ____
ROOT
ATOM      1  N   UNL     1       3.572   4.937  19.374  0.00  0.00    +0.000 N 
ATOM      2  N   UNL     1       3.010   6.131  19.728  0.00  0.00    +0.000 NA
ATOM      3  C   UNL     1       1.997   5.794  20.518  0.00  0.00    +0.000 A 
ATOM      4  C   UNL     1       1.936   4.414  20.763  0.00  0.00    +0.000 A 
ATOM      5  C   UNL     1       3.002   3.879  20.077  0.00  0.00    +0.000 A 
ATOM      6  C   UNL     1       3.539   2.497  20.146  0.00  0.00    +0.000 C 
ENDROOT
BRANCH   1  10
ATOM      7  C   UNL     1       6.644   4.776  16.469  0.00  0.00    +0.000 A 
ATOM      8  C   UNL     1       5.317   4.541  16.111  0.00  0.00    +0.000 A 
ATOM      9  C   UNL     1       4.296   4.585  17.071  0.00  0.00    +0.000 A 
ATOM     10  C   UNL     1       4.605   4.880  18.404  0.00  0.00    +0.000 A 
ATOM     11  C   UNL     1       5.941   5.080  18.765  0.00  0.00    +0.000 A 
ATOM     12  C   UNL     1       6.957   5.026  17.806  0.00  0.00    +0.000 A 
BRANCH   7  14
ATOM     13  C   UNL     1       7.043   4.810  14.141  0.00  0.00    +0.000 C 
ATOM     14  O   UNL     1       7.561   4.675  15.461  0.00  0.00    +0.000 OA
ENDBRANCH   7  14
ENDBRANCH   1  10
BRANCH   3  15
ATOM     15  O   UNL     1       1.214   6.797  20.991  0.00  0.00    +0.000 OA
BRANCH  15  16
ATOM     16  C   UNL     1       1.642   8.066  20.482  0.00  0.00    +0.000 C 
BRANCH  16  17
ATOM     17  C   UNL     1       0.643   9.201  20.769  0.00  0.00    +0.000 C 
BRANCH  17  18
ATOM     18  N   UNL     1       0.803  10.340  19.837  0.00  0.00    +0.000 NA
ATOM     19  C   UNL     1       0.335  11.613  20.429  0.00  0.00    +0.000 C 
ATOM     20  C   UNL     1      -1.197  11.758  20.460  0.00  0.00    +0.000 C 
ATOM     21  O   UNL     1      -1.760  11.622  19.150  0.00  0.00    +0.000 OA
ATOM     22  C   UNL     1      -1.400  10.366  18.566  0.00  0.00    +0.000 C 
ATOM     23  C   UNL     1       0.125  10.178  18.530  0.00  0.00    +0.000 C 
ENDBRANCH  17  18
ENDBRANCH  16  17
ENDBRANCH  15  16
ENDBRANCH   3  15
TORSDOF 6
ENDMDL
MODEL 5
REMARK VINA RESULT:      -6.5      2.252      3.623
REMARK  Name = 
REMARK  8 active torsions:
REMARK  status: ('A' for Active; 'I' for Inactive)
REMARK    1  A    between atoms: C_1  and  O_2
REMARK    2  A    between atoms: O_2  and  C_3
REMARK    3  A    between atoms: C_6  and  N_7
REMARK    4  A    between atoms: C_9  and  O_10
REMARK    5  A    between atoms: O_10  and  C_11
REMARK    6  A    between atoms: C_11  and  C_12
REMARK    7  A    between atoms: C_12  and  N_13
REMARK    8  A    between atoms: C_20  and  C_21
REMARK                            x       y       z     vdW  Elec       q    Type
REMARK                         _______ _______ _______ _____ _____    ______ ____
ROOT
ATOM      1  N   UNL     1       1.781   7.892  19.795  0.00  0.00    +0.000 N 
ATOM      2  N   UNL     1       2.131   6.668  20.289  0.00  0.00    +0.000 NA
ATOM      3  C   UNL     1       2.535   5.988  19.222  0.00  0.00    +0.000 A 
ATOM      4  C   UNL     1       2.543   6.766  18.054  0.00  0.00    +0.000 A 
ATOM      5  C   UNL     1       2.123   8.015  18.451  0.00  0.00    +0.000 A 
ATOM      6  C   UNL     1       2.138   9.279  17.673  0.00  0.00    +0.000 C 
ENDROOT
BRANCH   1  10
ATOM      7  C   UNL     1      -0.077  10.767  22.282  0.00  0.00    +0.000 A 
ATOM      8  C   UNL     1       0.323   9.535  22.799  0.00  0.00    +0.000 A 
ATOM      9  C   UNL     1       0.932   8.575  21.978  0.00  0.00    +0.000 A 
ATOM     10  C   UNL     1       1.155   8.857  20.624  0.00  0.00    +0.000 A 
ATOM     11  C   UNL     1       0.719  10.079  20.103  0.00  0.00    +0.000 A 
ATOM     12  C   UNL     1       0.104  11.029  20.924  0.00  0.00    +0.000 A 
BRANCH   7  14
ATOM     13  C   UNL     1      -2.115  11.613  23.128  0.00  0.00    +0.000 C 
ATOM     14  O   UNL     1      -0.690  11.613  23.163  0.00  0.00    +0.000 OA
ENDBRANCH   7  14
ENDBRANCH   1  10
BRANCH   3  15
ATOM     15  O   UNL     1       2.904   4.695  19.408  0.00  0.00    +0.000 OA
BRANCH  15  16
ATOM     16  C   UNL     1       4.126   4.406  18.717  0.00  0.00    +0.000 C 
BRANCH  16  17
ATOM     17  C   UNL     1       5.329   5.199  19.259  0.00  0.00    +0.000 C 
BRANCH  17  18
ATOM     18  N   UNL     1       6.610   4.749  18.669  0.00  0.00    +0.000 NA
ATOM     19  C   UNL     1       7.700   5.724  18.895  0.00  0.00    +0.000 C 
ATOM     20  C   UNL     1       7.628   6.959  17.981  0.00  0.00    +0.000 C 
ATOM     21  O   UNL     1       7.622   6.584  16.599  0.00  0.00    +0.000 OA
ATOM     22  C   UNL     1       6.533   5.700  16.312  0.00  0.00    +0.000 C 
ATOM     23  C   UNL     1       6.563   4.459  17.217  0.00  0.00    +0.000 C 
ENDBRANCH  17  18
ENDBRANCH  16  17
ENDBRANCH  15  16
ENDBRANCH   3  15
TORSDOF 6
ENDMDL
MODEL 6
REMARK VINA RESULT:      -6.5      2.253      7.680
REMARK  Name = 
REMARK  8 active torsions:
REMARK  status: ('A' for Active; 'I' for Inactive)
REMARK    1  A    between atoms: C_1  and  O_2
REMARK    2  A    between atoms: O_2  and  C_3
REMARK    3  A    between atoms: C_6  and  N_7
REMARK    4  A    between atoms: C_9  and  O_10
REMARK    5  A    between atoms: O_10  and  C_11
REMARK    6  A    between atoms: C_11  and  C_12
REMARK    7  A    between atoms: C_12  and  N_13
REMARK    8  A    between atoms: C_20  and  C_21
REMARK                            x       y       z     vdW  Elec       q    Type
REMARK                         _______ _______ _______ _____ _____    ______ ____
ROOT
ATOM      1  N   UNL     1       3.465   4.959  19.513  0.00  0.00    +0.000 N 
ATOM      2  N   UNL     1       2.869   6.151  19.815  0.00  0.00    +0.000 NA
ATOM      3  C   UNL     1       1.844   5.816  20.590  0.00  0.00    +0.000 A 
ATOM      4  C   UNL     1       1.806   4.443  20.877  0.00  0.00    +0.000 A 
ATOM      5  C   UNL     1       2.901   3.912  20.234  0.00  0.00    +0.000 A 
ATOM      6  C   UNL     1       3.466   2.544  20.360  0.00  0.00    +0.000 C 
ENDROOT
BRANCH   1  10
ATOM      7  C   UNL     1       6.613   4.777  16.691  0.00  0.00    +0.000 A 
ATOM      8  C   UNL     1       5.311   4.440  16.323  0.00  0.00    +0.000 A 
ATOM      9  C   UNL     1       4.265   4.491  17.256  0.00  0.00    +0.000 A 
ATOM     10  C   UNL     1       4.523   4.896  18.571  0.00  0.00    +0.000 A 
ATOM     11  C   UNL     1       5.837   5.199  18.944  0.00  0.00    +0.000 A 
ATOM     12  C   UNL     1       6.878   5.138  18.013  0.00  0.00    +0.000 A 
BRANCH   7  14
ATOM     13  C   UNL     1       7.094   4.856  14.379  0.00  0.00    +0.000 C 
ATOM     14  O   UNL     1       7.559   4.660  15.711  0.00  0.00    +0.000 OA
ENDBRANCH   7  14
ENDBRANCH   1  10
BRANCH   3  15
ATOM     15  O   UNL     1       1.027   6.815  21.011  0.00  0.00    +0.000 OA
BRANCH  15  16
ATOM     16  C   UNL     1       1.516   8.092  20.583  0.00  0.00    +0.000 C 
BRANCH  16  17
ATOM     17  C   UNL     1       1.122   9.239  21.532  0.00  0.00    +0.000 C 
BRANCH  17  18
ATOM     18  N   UNL     1      -0.247   9.739  21.272  0.00  0.00    +0.000 NA
ATOM     19  C   UNL     1      -0.456  10.072  19.845  0.00  0.00    +0.000 C 
ATOM     20  C   UNL     1       0.190  11.401  19.417  0.00  0.00    +0.000 C 
ATOM     21  O   UNL     1      -0.278  12.491  20.220  0.00  0.00    +0.000 OA
ATOM     22  C   UNL     1      -0.024  12.249  21.608  0.00  0.00    +0.000 C 
ATOM     23  C   UNL     1      -0.643  10.922  22.071  0.00  0.00    +0.000 C 
ENDBRANCH  17  18
ENDBRANCH  16  17
ENDBRANCH  15  16
ENDBRANCH   3  15
TORSDOF 6
ENDMDL
MODEL 7
REMARK VINA RESULT:      -6.5      2.057      7.416
REMARK  Name = 
REMARK  8 active torsions:
REMARK  status: ('A' for Active; 'I' for Inactive)
REMARK    1  A    between atoms: C_1  and  O_2
REMARK    2  A    between atoms: O_2  and  C_3
REMARK    3  A    between atoms: C_6  and  N_7
REMARK    4  A    between atoms: C_9  and  O_10
REMARK    5  A    between atoms: O_10  and  C_11
REMARK    6  A    between atoms: C_11  and  C_12
REMARK    7  A    between atoms: C_12  and  N_13
REMARK    8  A    between atoms: C_20  and  C_21
REMARK                            x       y       z     vdW  Elec       q    Type
REMARK                         _______ _______ _______ _____ _____    ______ ____
ROOT
ATOM      1  N   UNL     1       3.444   5.002  19.386  0.00  0.00    +0.000 N 
ATOM      2  N   UNL     1       2.965   6.218  19.785  0.00  0.00    +0.000 NA
ATOM      3  C   UNL     1       1.946   5.923  20.583  0.00  0.00    +0.000 A 
ATOM      4  C   UNL     1       1.801   4.542  20.789  0.00  0.00    +0.000 A 
ATOM      5  C   UNL     1       2.820   3.962  20.068  0.00  0.00    +0.000 A 
ATOM      6  C   UNL     1       3.268   2.547  20.088  0.00  0.00    +0.000 C 
ENDROOT
BRANCH   1  10
ATOM      7  C   UNL     1       6.471   4.717  16.443  0.00  0.00    +0.000 A 
ATOM      8  C   UNL     1       6.801   4.937  17.781  0.00  0.00    +0.000 A 
ATOM      9  C   UNL     1       5.801   5.041  18.759  0.00  0.00    +0.000 A 
ATOM     10  C   UNL     1       4.455   4.910  18.396  0.00  0.00    +0.000 A 
ATOM     11  C   UNL     1       4.128   4.726  17.049  0.00  0.00    +0.000 A 
ATOM     12  C   UNL     1       5.128   4.633  16.076  0.00  0.00    +0.000 A 
BRANCH   7  14
ATOM     13  C   UNL     1       7.182   4.771  14.191  0.00  0.00    +0.000 C 
ATOM     14  O   UNL     1       7.522   4.668  15.570  0.00  0.00    +0.000 OA
ENDBRANCH   7  14
ENDBRANCH   1  10
BRANCH   3  15
ATOM     15  O   UNL     1       1.236   6.958  21.099  0.00  0.00    +0.000 OA
BRANCH  15  16
ATOM     16  C   UNL     1       1.548   8.182  20.422  0.00  0.00    +0.000 C 
BRANCH  16  17
ATOM     17  C   UNL     1       0.723   9.379  20.926  0.00  0.00    +0.000 C 
BRANCH  17  18
ATOM     18  N   UNL     1       0.878  10.572  20.064  0.00  0.00    +0.000 NA
ATOM     19  C   UNL     1       0.121  11.735  20.580  0.00  0.00    +0.000 C 
ATOM     20  C   UNL     1      -1.393  11.654  20.323  0.00  0.00    +0.000 C 
ATOM     21  O   UNL     1      -1.677  11.501  18.927  0.00  0.00    +0.000 OA
ATOM     22  C   UNL     1      -1.029  10.339  18.398  0.00  0.00    +0.000 C 
ATOM     23  C   UNL     1       0.486  10.377  18.648  0.00  0.00    +0.000 C 
ENDBRANCH  17  18
ENDBRANCH  16  17
ENDBRANCH  15  16
ENDBRANCH   3  15
TORSDOF 6
ENDMDL
MODEL 8
REMARK VINA RESULT:      -6.5      2.201      3.362
REMARK  Name = 
REMARK  8 active torsions:
REMARK  status: ('A' for Active; 'I' for Inactive)
REMARK    1  A    between atoms: C_1  and  O_2
REMARK    2  A    between atoms: O_2  and  C_3
REMARK    3  A    between atoms: C_6  and  N_7
REMARK    4  A    between atoms: C_9  and  O_10
REMARK    5  A    between atoms: O_10  and  C_11
REMARK    6  A    between atoms: C_11  and  C_12
REMARK    7  A    between atoms: C_12  and  N_13
REMARK    8  A    between atoms: C_20  and  C_21
REMARK                            x       y       z     vdW  Elec       q    Type
REMARK                         _______ _______ _______ _____ _____    ______ ____
ROOT
ATOM      1  N   UNL     1       1.660   8.166  19.820  0.00  0.00    +0.000 N 
ATOM      2  N   UNL     1       2.087   6.932  20.222  0.00  0.00    +0.000 NA
ATOM      3  C   UNL     1       2.583   6.382  19.120  0.00  0.00    +0.000 A 
ATOM      4  C   UNL     1       2.574   7.259  18.025  0.00  0.00    +0.000 A 
ATOM      5  C   UNL     1       2.042   8.433  18.509  0.00  0.00    +0.000 A 
ATOM      6  C   UNL     1       1.987   9.759  17.843  0.00  0.00    +0.000 C 
ENDROOT
BRANCH   1  10
ATOM      7  C   UNL     1      -0.509  10.664  22.457  0.00  0.00    +0.000 A 
ATOM      8  C   UNL     1       0.230   9.588  22.947  0.00  0.00    +0.000 A 
ATOM      9  C   UNL     1       0.945   8.752  22.078  0.00  0.00    +0.000 A 
ATOM     10  C   UNL     1       0.929   9.003  20.700  0.00  0.00    +0.000 A 
ATOM     11  C   UNL     1       0.158  10.062  20.210  0.00  0.00    +0.000 A 
ATOM     12  C   UNL     1      -0.560  10.887  21.081  0.00  0.00    +0.000 A 
BRANCH   7  14
ATOM     13  C   UNL     1      -1.504  12.732  23.020  0.00  0.00    +0.000 C 
ATOM     14  O   UNL     1      -1.193  11.392  23.391  0.00  0.00    +0.000 OA
ENDBRANCH   7  14
ENDBRANCH   1  10
BRANCH   3  15
ATOM     15  O   UNL     1       3.046   5.109  19.211  0.00  0.00    +0.000 OA
BRANCH  15  16
ATOM     16  C   UNL     1       4.471   5.090  19.353  0.00  0.00    +0.000 C 
BRANCH  16  17
ATOM     17  C   UNL     1       5.189   4.444  18.155  0.00  0.00    +0.000 C 
BRANCH  17  18
ATOM     18  N   UNL     1       6.315   5.270  17.662  0.00  0.00    +0.000 NA
ATOM     19  C   UNL     1       5.848   6.471  16.935  0.00  0.00    +0.000 C 
ATOM     20  C   UNL     1       5.343   6.178  15.511  0.00  0.00    +0.000 C 
ATOM     21  O   UNL     1       6.346   5.523  14.727  0.00  0.00    +0.000 OA
ATOM     22  C   UNL     1       6.774   4.309  15.353  0.00  0.00    +0.000 C 
ATOM     23  C   UNL     1       7.274   4.560  16.784  0.00  0.00    +0.000 C 
ENDBRANCH  17  18
ENDBRANCH  16  17
ENDBRANCH  15  16
ENDBRANCH   3  15
TORSDOF 6
ENDMDL
MODEL 9
REMARK VINA RESULT:      -6.4      2.046      7.498
REMARK  Name = 
REMARK  8 active torsions:
REMARK  status: ('A' for Active; 'I' for Inactive)
REMARK    1  A    between atoms: C_1  and  O_2
REMARK    2  A    between atoms: O_2  and  C_3
REMARK    3  A    between atoms: C_6  and  N_7
REMARK    4  A    between atoms: C_9  and  O_10
REMARK    5  A    between atoms: O_10  and  C_11
REMARK    6  A    between atoms: C_11  and  C_12
REMARK    7  A    between atoms: C_12  and  N_13
REMARK    8  A    between atoms: C_20  and  C_21
REMARK                            x       y       z     vdW  Elec       q    Type
REMARK                         _______ _______ _______ _____ _____    ______ ____
ROOT
ATOM      1  N   UNL     1       3.391   5.009  19.446  0.00  0.00    +0.000 N 
ATOM      2  N   UNL     1       2.872   6.230  19.769  0.00  0.00    +0.000 NA
ATOM      3  C   UNL     1       1.859   5.951  20.582  0.00  0.00    +0.000 A 
ATOM      4  C   UNL     1       1.758   4.581  20.870  0.00  0.00    +0.000 A 
ATOM      5  C   UNL     1       2.798   3.992  20.188  0.00  0.00    +0.000 A 
ATOM      6  C   UNL     1       3.292   2.596  20.295  0.00  0.00    +0.000 C 
ENDROOT
BRANCH   1  10
ATOM      7  C   UNL     1       6.438   4.643  16.533  0.00  0.00    +0.000 A 
ATOM      8  C   UNL     1       6.761   4.814  17.880  0.00  0.00    +0.000 A 
ATOM      9  C   UNL     1       5.756   4.944  18.848  0.00  0.00    +0.000 A 
ATOM     10  C   UNL     1       4.410   4.890  18.467  0.00  0.00    +0.000 A 
ATOM     11  C   UNL     1       4.091   4.755  17.112  0.00  0.00    +0.000 A 
ATOM     12  C   UNL     1       5.097   4.635  16.148  0.00  0.00    +0.000 A 
BRANCH   7  14
ATOM     13  C   UNL     1       7.200   4.827  14.304  0.00  0.00    +0.000 C 
ATOM     14  O   UNL     1       7.497   4.562  15.672  0.00  0.00    +0.000 OA
ENDBRANCH   7  14
ENDBRANCH   1  10
BRANCH   3  15
ATOM     15  O   UNL     1       1.114   6.992  21.032  0.00  0.00    +0.000 OA
BRANCH  15  16
ATOM     16  C   UNL     1       1.545   8.225  20.441  0.00  0.00    +0.000 C 
BRANCH  16  17
ATOM     17  C   UNL     1       0.517   9.360  20.596  0.00  0.00    +0.000 C 
BRANCH  17  18
ATOM     18  N   UNL     1       0.183   9.996  19.301  0.00  0.00    +0.000 NA
ATOM     19  C   UNL     1       1.245  10.920  18.844  0.00  0.00    +0.000 C 
ATOM     20  C   UNL     1       1.258  12.267  19.587  0.00  0.00    +0.000 C 
ATOM     21  O   UNL     1      -0.008  12.931  19.485  0.00  0.00    +0.000 OA
ATOM     22  C   UNL     1      -1.061  12.104  19.991  0.00  0.00    +0.000 C 
ATOM     23  C   UNL     1      -1.097  10.741  19.282  0.00  0.00    +0.000 C 
ENDBRANCH  17  18
ENDBRANCH  16  17
ENDBRANCH  15  16
ENDBRANCH   3  15
TORSDOF 6
ENDMDL
