MODEL 1
REMARK VINA RESULT:      -7.0      0.000      0.000
REMARK  Name = 
REMARK  7 active torsions:
REMARK  status: ('A' for Active; 'I' for Inactive)
REMARK    1  A    between atoms: C_1  and  C_2
REMARK    2  A    between atoms: C_2  and  C_3
REMARK    3  A    between atoms: C_3  and  C_4
REMARK    4  A    between atoms: C_4  and  C_5
REMARK    5  A    between atoms: C_5  and  N_6
REMARK    6  A    between atoms: N_6  and  C_7
REMARK    7  A    between atoms: C_9  and  C_10
REMARK                            x       y       z     vdW  Elec       q    Type
REMARK                         _______ _______ _______ _____ _____    ______ ____
ROOT
ATOM      1  C   UNL     1       5.422   3.779  17.276  0.00  0.00    +0.000 A 
ATOM      2  N   UNL     1       6.027   4.316  18.391  0.00  0.00    +0.000 N 
ATOM      3  C   UNL     1       7.110   5.163  18.322  0.00  0.00    +0.000 A 
ATOM      4  C   UNL     1       7.716   5.648  19.614  0.00  0.00    +0.000 C 
ATOM      5  N   UNL     1       7.657   5.564  17.211  0.00  0.00    +0.000 NA
ATOM      6  C   UNL     1       7.085   5.086  16.068  0.00  0.00    +0.000 A 
ATOM      7  N   UNL     1       7.477   5.355  14.851  0.00  0.00    +0.000 NA
ATOM      8  C   UNL     1       6.597   4.635  14.049  0.00  0.00    +0.000 A 
ATOM      9  C   UNL     1       5.670   3.922  14.713  0.00  0.00    +0.000 A 
ATOM     10  C   UNL     1       5.928   4.168  16.096  0.00  0.00    +0.000 A 
ATOM     11  H   UNL     1       5.684   4.007  19.289  0.00  0.00    +0.000 HD
ENDROOT
BRANCH   1  12
ATOM     12  N   UNL     1       4.379   2.882  17.432  0.00  0.00    +0.000 N 
ATOM     13  H   UNL     1       4.439   2.091  16.801  0.00  0.00    +0.000 HD
BRANCH  12  14
ATOM     14  C   UNL     1       3.018   3.291  17.746  0.00  0.00    +0.000 C 
BRANCH  14  15
ATOM     15  C   UNL     1       2.319   2.232  18.585  0.00  0.00    +0.000 C 
BRANCH  15  16
ATOM     16  C   UNL     1       0.904   2.689  18.934  0.00  0.00    +0.000 C 
BRANCH  16  18
ATOM     17  C   UNL     1       1.447   2.711  21.385  0.00  0.00    +0.000 C 
ATOM     18  C   UNL     1       0.890   3.510  20.219  0.00  0.00    +0.000 C 
ENDBRANCH  16  18
ENDBRANCH  15  16
ENDBRANCH  14  15
ENDBRANCH  12  14
ENDBRANCH   1  12
TORSDOF 5
ENDMDL
MODEL 2
REMARK VINA RESULT:      -6.9      1.214      1.518
REMARK  Name = 
REMARK  7 active torsions:
REMARK  status: ('A' for Active; 'I' for Inactive)
REMARK    1  A    between atoms: C_1  and  C_2
REMARK    2  A    between atoms: C_2  and  C_3
REMARK    3  A    between atoms: C_3  and  C_4
REMARK    4  A    between atoms: C_4  and  C_5
REMARK    5  A    between atoms: C_5  and  N_6
REMARK    6  A    between atoms: N_6  and  C_7
REMARK    7  A    between atoms: C_9  and  C_10
REMARK                            x       y       z     vdW  Elec       q    Type
REMARK                         _______ _______ _______ _____ _____    ______ ____
ROOT
ATOM      1  C   UNL     1       6.243   4.590  17.963  0.00  0.00    +0.000 A 
ATOM      2  N   UNL     1       6.854   5.718  18.465  0.00  0.00    +0.000 N 
ATOM      3  C   UNL     1       7.475   6.654  17.667  0.00  0.00    +0.000 A 
ATOM      4  C   UNL     1       8.151   7.822  18.336  0.00  0.00    +0.000 C 
ATOM      5  N   UNL     1       7.527   6.588  16.367  0.00  0.00    +0.000 NA
ATOM      6  C   UNL     1       6.915   5.505  15.808  0.00  0.00    +0.000 A 
ATOM      7  N   UNL     1       6.854   5.242  14.529  0.00  0.00    +0.000 NA
ATOM      8  C   UNL     1       6.147   4.045  14.468  0.00  0.00    +0.000 A 
ATOM      9  C   UNL     1       5.763   3.544  15.655  0.00  0.00    +0.000 A 
ATOM     10  C   UNL     1       6.246   4.473  16.627  0.00  0.00    +0.000 A 
ATOM     11  H   UNL     1       6.894   5.806  19.469  0.00  0.00    +0.000 HD
ENDROOT
BRANCH   1  12
ATOM     12  N   UNL     1       5.700   3.664  18.836  0.00  0.00    +0.000 N 
ATOM     13  H   UNL     1       6.102   2.739  18.734  0.00  0.00    +0.000 HD
BRANCH  12  14
ATOM     14  C   UNL     1       4.296   3.663  19.224  0.00  0.00    +0.000 C 
BRANCH  14  15
ATOM     15  C   UNL     1       3.524   2.612  18.442  0.00  0.00    +0.000 C 
BRANCH  15  16
ATOM     16  C   UNL     1       2.187   3.184  17.975  0.00  0.00    +0.000 C 
BRANCH  16  18
ATOM     17  C   UNL     1       0.803   3.218  20.069  0.00  0.00    +0.000 C 
ATOM     18  C   UNL     1       1.021   2.547  18.724  0.00  0.00    +0.000 C 
ENDBRANCH  16  18
ENDBRANCH  15  16
ENDBRANCH  14  15
ENDBRANCH  12  14
ENDBRANCH   1  12
TORSDOF 5
ENDMDL
MODEL 3
REMARK VINA RESULT:      -6.8      0.994      2.794
REMARK  Name = 
REMARK  7 active torsions:
REMARK  status: ('A' for Active; 'I' for Inactive)
REMARK    1  A    between atoms: C_1  and  C_2
REMARK    2  A    between atoms: C_2  and  C_3
REMARK    3  A    between atoms: C_3  and  C_4
REMARK    4  A    between atoms: C_4  and  C_5
REMARK    5  A    between atoms: C_5  and  N_6
REMARK    6  A    between atoms: N_6  and  C_7
REMARK    7  A    between atoms: C_9  and  C_10
REMARK                            x       y       z     vdW  Elec       q    Type
REMARK                         _______ _______ _______ _____ _____    ______ ____
ROOT
ATOM      1  C   UNL     1       5.603   3.984  17.268  0.00  0.00    +0.000 A 
ATOM      2  N   UNL     1       5.573   3.597  15.947  0.00  0.00    +0.000 N 
ATOM      3  C   UNL     1       6.256   4.264  14.954  0.00  0.00    +0.000 A 
ATOM      4  C   UNL     1       6.107   3.774  13.536  0.00  0.00    +0.000 C 
ATOM      5  N   UNL     1       7.014   5.303  15.157  0.00  0.00    +0.000 NA
ATOM      6  C   UNL     1       7.105   5.720  16.453  0.00  0.00    +0.000 A 
ATOM      7  N   UNL     1       7.803   6.740  16.877  0.00  0.00    +0.000 NA
ATOM      8  C   UNL     1       7.568   6.759  18.248  0.00  0.00    +0.000 A 
ATOM      9  C   UNL     1       6.749   5.795  18.704  0.00  0.00    +0.000 A 
ATOM     10  C   UNL     1       6.382   5.039  17.548  0.00  0.00    +0.000 A 
ATOM     11  H   UNL     1       4.965   2.827  15.711  0.00  0.00    +0.000 HD
ENDROOT
BRANCH   1  12
ATOM     12  N   UNL     1       4.836   3.300  18.196  0.00  0.00    +0.000 N 
ATOM     13  H   UNL     1       5.381   2.931  18.966  0.00  0.00    +0.000 HD
BRANCH  12  14
ATOM     14  C   UNL     1       3.690   2.480  17.831  0.00  0.00    +0.000 C 
BRANCH  14  15
ATOM     15  C   UNL     1       2.405   3.291  17.902  0.00  0.00    +0.000 C 
BRANCH  15  16
ATOM     16  C   UNL     1       1.366   2.555  18.745  0.00  0.00    +0.000 C 
BRANCH  16  18
ATOM     17  C   UNL     1       1.369   2.810  21.243  0.00  0.00    +0.000 C 
ATOM     18  C   UNL     1       0.907   3.407  19.924  0.00  0.00    +0.000 C 
ENDBRANCH  16  18
ENDBRANCH  15  16
ENDBRANCH  14  15
ENDBRANCH  12  14
ENDBRANCH   1  12
TORSDOF 5
ENDMDL
MODEL 4
REMARK VINA RESULT:      -6.7      1.384      1.967
REMARK  Name = 
REMARK  7 active torsions:
REMARK  status: ('A' for Active; 'I' for Inactive)
REMARK    1  A    between atoms: C_1  and  C_2
REMARK    2  A    between atoms: C_2  and  C_3
REMARK    3  A    between atoms: C_3  and  C_4
REMARK    4  A    between atoms: C_4  and  C_5
REMARK    5  A    between atoms: C_5  and  N_6
REMARK    6  A    between atoms: N_6  and  C_7
REMARK    7  A    between atoms: C_9  and  C_10
REMARK                            x       y       z     vdW  Elec       q    Type
REMARK                         _______ _______ _______ _____ _____    ______ ____
ROOT
ATOM      1  C   UNL     1       5.427   3.709  17.213  0.00  0.00    +0.000 A 
ATOM      2  N   UNL     1       6.023   4.259  18.327  0.00  0.00    +0.000 N 
ATOM      3  C   UNL     1       7.092   5.125  18.255  0.00  0.00    +0.000 A 
ATOM      4  C   UNL     1       7.690   5.624  19.546  0.00  0.00    +0.000 C 
ATOM      5  N   UNL     1       7.630   5.534  17.143  0.00  0.00    +0.000 NA
ATOM      6  C   UNL     1       7.066   5.044  16.002  0.00  0.00    +0.000 A 
ATOM      7  N   UNL     1       7.452   5.317  14.783  0.00  0.00    +0.000 NA
ATOM      8  C   UNL     1       6.584   4.580  13.984  0.00  0.00    +0.000 A 
ATOM      9  C   UNL     1       5.670   3.852  14.649  0.00  0.00    +0.000 A 
ATOM     10  C   UNL     1       5.925   4.105  16.032  0.00  0.00    +0.000 A 
ATOM     11  H   UNL     1       5.686   3.946  19.225  0.00  0.00    +0.000 HD
ENDROOT
BRANCH   1  12
ATOM     12  N   UNL     1       4.400   2.795  17.371  0.00  0.00    +0.000 N 
ATOM     13  H   UNL     1       4.208   2.264  16.529  0.00  0.00    +0.000 HD
BRANCH  12  14
ATOM     14  C   UNL     1       3.227   3.050  18.195  0.00  0.00    +0.000 C 
BRANCH  14  15
ATOM     15  C   UNL     1       2.461   4.258  17.678  0.00  0.00    +0.000 C 
BRANCH  15  16
ATOM     16  C   UNL     1       2.080   5.174  18.840  0.00  0.00    +0.000 C 
BRANCH  16  18
ATOM     17  C   UNL     1       3.598   6.831  17.721  0.00  0.00    +0.000 C 
ATOM     18  C   UNL     1       3.125   6.264  19.049  0.00  0.00    +0.000 C 
ENDBRANCH  16  18
ENDBRANCH  15  16
ENDBRANCH  14  15
ENDBRANCH  12  14
ENDBRANCH   1  12
TORSDOF 5
ENDMDL
MODEL 5
REMARK VINA RESULT:      -6.7      1.780      2.227
REMARK  Name = 
REMARK  7 active torsions:
REMARK  status: ('A' for Active; 'I' for Inactive)
REMARK    1  A    between atoms: C_1  and  C_2
REMARK    2  A    between atoms: C_2  and  C_3
REMARK    3  A    between atoms: C_3  and  C_4
REMARK    4  A    between atoms: C_4  and  C_5
REMARK    5  A    between atoms: C_5  and  N_6
REMARK    6  A    between atoms: N_6  and  C_7
REMARK    7  A    between atoms: C_9  and  C_10
REMARK                            x       y       z     vdW  Elec       q    Type
REMARK                         _______ _______ _______ _____ _____    ______ ____
ROOT
ATOM      1  C   UNL     1       6.110   4.602  17.903  0.00  0.00    +0.000 A 
ATOM      2  N   UNL     1       6.734   5.716  18.418  0.00  0.00    +0.000 N 
ATOM      3  C   UNL     1       7.430   6.613  17.638  0.00  0.00    +0.000 A 
ATOM      4  C   UNL     1       8.112   7.770  18.322  0.00  0.00    +0.000 C 
ATOM      5  N   UNL     1       7.550   6.521  16.345  0.00  0.00    +0.000 NA
ATOM      6  C   UNL     1       6.930   5.449  15.772  0.00  0.00    +0.000 A 
ATOM      7  N   UNL     1       6.928   5.163  14.497  0.00  0.00    +0.000 NA
ATOM      8  C   UNL     1       6.182   3.991  14.418  0.00  0.00    +0.000 A 
ATOM      9  C   UNL     1       5.717   3.527  15.591  0.00  0.00    +0.000 A 
ATOM     10  C   UNL     1       6.181   4.458  16.572  0.00  0.00    +0.000 A 
ATOM     11  H   UNL     1       6.722   5.823  19.421  0.00  0.00    +0.000 HD
ENDROOT
BRANCH   1  12
ATOM     12  N   UNL     1       5.486   3.713  18.762  0.00  0.00    +0.000 N 
ATOM     13  H   UNL     1       5.663   2.743  18.526  0.00  0.00    +0.000 HD
BRANCH  12  14
ATOM     14  C   UNL     1       4.173   3.954  19.342  0.00  0.00    +0.000 C 
BRANCH  14  15
ATOM     15  C   UNL     1       3.076   3.645  18.334  0.00  0.00    +0.000 C 
BRANCH  15  16
ATOM     16  C   UNL     1       2.129   4.837  18.208  0.00  0.00    +0.000 C 
BRANCH  16  18
ATOM     17  C   UNL     1       2.485   7.251  18.799  0.00  0.00    +0.000 C 
ATOM     18  C   UNL     1       2.890   6.115  17.874  0.00  0.00    +0.000 C 
ENDBRANCH  16  18
ENDBRANCH  15  16
ENDBRANCH  14  15
ENDBRANCH  12  14
ENDBRANCH   1  12
TORSDOF 5
ENDMDL
MODEL 6
REMARK VINA RESULT:      -6.6      1.310      3.030
REMARK  Name = 
REMARK  7 active torsions:
REMARK  status: ('A' for Active; 'I' for Inactive)
REMARK    1  A    between atoms: C_1  and  C_2
REMARK    2  A    between atoms: C_2  and  C_3
REMARK    3  A    between atoms: C_3  and  C_4
REMARK    4  A    between atoms: C_4  and  C_5
REMARK    5  A    between atoms: C_5  and  N_6
REMARK    6  A    between atoms: N_6  and  C_7
REMARK    7  A    between atoms: C_9  and  C_10
REMARK                            x       y       z     vdW  Elec       q    Type
REMARK                         _______ _______ _______ _____ _____    ______ ____
ROOT
ATOM      1  C   UNL     1       6.228   4.248  17.723  0.00  0.00    +0.000 A 
ATOM      2  N   UNL     1       6.006   3.787  16.443  0.00  0.00    +0.000 N 
ATOM      3  C   UNL     1       6.388   4.484  15.318  0.00  0.00    +0.000 A 
ATOM      4  C   UNL     1       6.047   3.901  13.971  0.00  0.00    +0.000 C 
ATOM      5  N   UNL     1       7.015   5.625  15.341  0.00  0.00    +0.000 NA
ATOM      6  C   UNL     1       7.288   6.122  16.582  0.00  0.00    +0.000 A 
ATOM      7  N   UNL     1       7.900   7.248  16.834  0.00  0.00    +0.000 NA
ATOM      8  C   UNL     1       7.927   7.312  18.223  0.00  0.00    +0.000 A 
ATOM      9  C   UNL     1       7.354   6.273  18.856  0.00  0.00    +0.000 A 
ATOM     10  C   UNL     1       6.888   5.412  17.815  0.00  0.00    +0.000 A 
ATOM     11  H   UNL     1       5.480   2.931  16.352  0.00  0.00    +0.000 HD
ENDROOT
BRANCH   1  12
ATOM     12  N   UNL     1       5.754   3.520  18.800  0.00  0.00    +0.000 N 
ATOM     13  H   UNL     1       6.087   2.563  18.809  0.00  0.00    +0.000 HD
BRANCH  12  14
ATOM     14  C   UNL     1       4.417   3.690  19.350  0.00  0.00    +0.000 C 
BRANCH  14  15
ATOM     15  C   UNL     1       3.559   2.468  19.063  0.00  0.00    +0.000 C 
BRANCH  15  16
ATOM     16  C   UNL     1       2.702   2.708  17.821  0.00  0.00    +0.000 C 
BRANCH  16  18
ATOM     17  C   UNL     1       0.807   2.897  19.457  0.00  0.00    +0.000 C 
ATOM     18  C   UNL     1       1.412   3.442  18.174  0.00  0.00    +0.000 C 
ENDBRANCH  16  18
ENDBRANCH  15  16
ENDBRANCH  14  15
ENDBRANCH  12  14
ENDBRANCH   1  12
TORSDOF 5
ENDMDL
MODEL 7
REMARK VINA RESULT:      -6.6      2.117      3.291
REMARK  Name = 
REMARK  7 active torsions:
REMARK  status: ('A' for Active; 'I' for Inactive)
REMARK    1  A    between atoms: C_1  and  C_2
REMARK    2  A    between atoms: C_2  and  C_3
REMARK    3  A    between atoms: C_3  and  C_4
REMARK    4  A    between atoms: C_4  and  C_5
REMARK    5  A    between atoms: C_5  and  N_6
REMARK    6  A    between atoms: N_6  and  C_7
REMARK    7  A    between atoms: C_9  and  C_10
REMARK                            x       y       z     vdW  Elec       q    Type
REMARK                         _______ _______ _______ _____ _____    ______ ____
ROOT
ATOM      1  C   UNL     1       5.257   4.148  18.344  0.00  0.00    +0.000 A 
ATOM      2  N   UNL     1       5.991   4.022  17.185  0.00  0.00    +0.000 N 
ATOM      3  C   UNL     1       5.894   4.910  16.136  0.00  0.00    +0.000 A 
ATOM      4  C   UNL     1       6.713   4.640  14.900  0.00  0.00    +0.000 C 
ATOM      5  N   UNL     1       5.129   5.963  16.136  0.00  0.00    +0.000 NA
ATOM      6  C   UNL     1       4.395   6.157  17.269  0.00  0.00    +0.000 A 
ATOM      7  N   UNL     1       3.562   7.142  17.477  0.00  0.00    +0.000 NA
ATOM      8  C   UNL     1       3.064   6.895  18.753  0.00  0.00    +0.000 A 
ATOM      9  C   UNL     1       3.547   5.794  19.354  0.00  0.00    +0.000 A 
ATOM     10  C   UNL     1       4.461   5.225  18.414  0.00  0.00    +0.000 A 
ATOM     11  H   UNL     1       6.569   3.200  17.098  0.00  0.00    +0.000 HD
ENDROOT
BRANCH   1  12
ATOM     12  N   UNL     1       5.362   3.178  19.325  0.00  0.00    +0.000 N 
ATOM     13  H   UNL     1       6.263   2.715  19.330  0.00  0.00    +0.000 HD
BRANCH  12  14
ATOM     14  C   UNL     1       4.252   2.323  19.721  0.00  0.00    +0.000 C 
BRANCH  14  15
ATOM     15  C   UNL     1       3.514   1.799  18.498  0.00  0.00    +0.000 C 
BRANCH  15  16
ATOM     16  C   UNL     1       2.053   2.244  18.536  0.00  0.00    +0.000 C 
BRANCH  16  18
ATOM     17  C   UNL     1       0.801   3.718  20.136  0.00  0.00    +0.000 C 
ATOM     18  C   UNL     1       1.566   2.416  19.971  0.00  0.00    +0.000 C 
ENDBRANCH  16  18
ENDBRANCH  15  16
ENDBRANCH  14  15
ENDBRANCH  12  14
ENDBRANCH   1  12
TORSDOF 5
ENDMDL
MODEL 8
REMARK VINA RESULT:      -6.6      1.431      1.692
REMARK  Name = 
REMARK  7 active torsions:
REMARK  status: ('A' for Active; 'I' for Inactive)
REMARK    1  A    between atoms: C_1  and  C_2
REMARK    2  A    between atoms: C_2  and  C_3
REMARK    3  A    between atoms: C_3  and  C_4
REMARK    4  A    between atoms: C_4  and  C_5
REMARK    5  A    between atoms: C_5  and  N_6
REMARK    6  A    between atoms: N_6  and  C_7
REMARK    7  A    between atoms: C_9  and  C_10
REMARK                            x       y       z     vdW  Elec       q    Type
REMARK                         _______ _______ _______ _____ _____    ______ ____
ROOT
ATOM      1  C   UNL     1       6.065   4.820  18.021  0.00  0.00    +0.000 A 
ATOM      2  N   UNL     1       6.703   5.958  18.463  0.00  0.00    +0.000 N 
ATOM      3  C   UNL     1       7.433   6.779  17.632  0.00  0.00    +0.000 A 
ATOM      4  C   UNL     1       8.126   7.971  18.241  0.00  0.00    +0.000 C 
ATOM      5  N   UNL     1       7.577   6.586  16.352  0.00  0.00    +0.000 NA
ATOM      6  C   UNL     1       6.945   5.486  15.850  0.00  0.00    +0.000 A 
ATOM      7  N   UNL     1       6.962   5.104  14.600  0.00  0.00    +0.000 NA
ATOM      8  C   UNL     1       6.193   3.944  14.595  0.00  0.00    +0.000 A 
ATOM      9  C   UNL     1       5.695   3.580  15.789  0.00  0.00    +0.000 A 
ATOM     10  C   UNL     1       6.159   4.574  16.706  0.00  0.00    +0.000 A 
ATOM     11  H   UNL     1       6.674   6.141  19.455  0.00  0.00    +0.000 HD
ENDROOT
BRANCH   1  12
ATOM     12  N   UNL     1       5.406   4.011  18.931  0.00  0.00    +0.000 N 
ATOM     13  H   UNL     1       5.893   3.142  19.115  0.00  0.00    +0.000 HD
BRANCH  12  14
ATOM     14  C   UNL     1       3.955   3.906  18.998  0.00  0.00    +0.000 C 
BRANCH  14  15
ATOM     15  C   UNL     1       3.386   4.940  19.958  0.00  0.00    +0.000 C 
BRANCH  15  16
ATOM     16  C   UNL     1       1.868   4.794  20.045  0.00  0.00    +0.000 C 
BRANCH  16  18
ATOM     17  C   UNL     1       1.632   2.766  21.507  0.00  0.00    +0.000 C 
ATOM     18  C   UNL     1       1.457   3.327  20.105  0.00  0.00    +0.000 C 
ENDBRANCH  16  18
ENDBRANCH  15  16
ENDBRANCH  14  15
ENDBRANCH  12  14
ENDBRANCH   1  12
TORSDOF 5
ENDMDL
MODEL 9
REMARK VINA RESULT:      -6.5      1.975      5.428
REMARK  Name = 
REMARK  7 active torsions:
REMARK  status: ('A' for Active; 'I' for Inactive)
REMARK    1  A    between atoms: C_1  and  C_2
REMARK    2  A    between atoms: C_2  and  C_3
REMARK    3  A    between atoms: C_3  and  C_4
REMARK    4  A    between atoms: C_4  and  C_5
REMARK    5  A    between atoms: C_5  and  N_6
REMARK    6  A    between atoms: N_6  and  C_7
REMARK    7  A    between atoms: C_9  and  C_10
REMARK                            x       y       z     vdW  Elec       q    Type
REMARK                         _______ _______ _______ _____ _____    ______ ____
ROOT
ATOM      1  C   UNL     1       5.627   3.990  17.016  0.00  0.00    +0.000 A 
ATOM      2  N   UNL     1       6.696   4.527  17.698  0.00  0.00    +0.000 N 
ATOM      3  C   UNL     1       6.564   5.187  18.900  0.00  0.00    +0.000 A 
ATOM      4  C   UNL     1       7.802   5.773  19.528  0.00  0.00    +0.000 C 
ATOM      5  N   UNL     1       5.434   5.351  19.526  0.00  0.00    +0.000 NA
ATOM      6  C   UNL     1       4.339   4.818  18.911  0.00  0.00    +0.000 A 
ATOM      7  N   UNL     1       3.113   4.872  19.359  0.00  0.00    +0.000 NA
ATOM      8  C   UNL     1       2.372   4.205  18.388  0.00  0.00    +0.000 A 
ATOM      9  C   UNL     1       3.081   3.736  17.347  0.00  0.00    +0.000 A 
ATOM     10  C   UNL     1       4.434   4.110  17.617  0.00  0.00    +0.000 A 
ATOM     11  H   UNL     1       7.597   4.479  17.245  0.00  0.00    +0.000 HD
ENDROOT
BRANCH   1  12
ATOM     12  N   UNL     1       5.834   3.400  15.781  0.00  0.00    +0.000 N 
ATOM     13  H   UNL     1       6.059   2.414  15.845  0.00  0.00    +0.000 HD
BRANCH  12  14
ATOM     14  C   UNL     1       6.476   4.085  14.668  0.00  0.00    +0.000 C 
BRANCH  14  15
ATOM     15  C   UNL     1       5.574   4.084  13.444  0.00  0.00    +0.000 C 
BRANCH  15  16
ATOM     16  C   UNL     1       6.273   3.386  12.278  0.00  0.00    +0.000 C 
BRANCH  16  18
ATOM     17  C   UNL     1       4.048   3.128  11.145  0.00  0.00    +0.000 C 
ATOM     18  C   UNL     1       5.329   2.426  11.563  0.00  0.00    +0.000 C 
ENDBRANCH  16  18
ENDBRANCH  15  16
ENDBRANCH  14  15
ENDBRANCH  12  14
ENDBRANCH   1  12
TORSDOF 5
ENDMDL
