MODEL 1
REMARK VINA RESULT:      -6.9      0.000      0.000
REMARK  Name = 
REMARK  8 active torsions:
REMARK  status: ('A' for Active; 'I' for Inactive)
REMARK    1  A    between atoms: C_1  and  C_2
REMARK    2  A    between atoms: C_2  and  O_3
REMARK    3  A    between atoms: C_2  and  C_12
REMARK    4  A    between atoms: O_3  and  C_4
REMARK    5  A    between atoms: N_14  and  C_15
REMARK    6  A    between atoms: C_15  and  C_16
REMARK    7  A    between atoms: C_16  and  C_17
REMARK    8  A    between atoms: C_17  and  N_18
REMARK                            x       y       z     vdW  Elec       q    Type
REMARK                         _______ _______ _______ _____ _____    ______ ____
ROOT
ATOM      1  C   UNL     1       6.869   5.990  17.009  0.00  0.00    +0.000 C 
ATOM      2  O   UNL     1       7.725   5.191  17.402  0.00  0.00    +0.000 OA
ATOM      3  N   UNL     1       6.998   7.342  17.227  0.00  0.00    +0.000 N 
ATOM      4  H   UNL     1       6.210   7.938  16.990  0.00  0.00    +0.000 HD
ENDROOT
BRANCH   1   6
ATOM      5  C   UNL     1       6.221   4.775  14.953  0.00  0.00    +0.000 C 
ATOM      6  C   UNL     1       5.660   5.542  16.164  0.00  0.00    +0.000 C 
BRANCH   6   7
ATOM      7  O   UNL     1       4.741   4.748  16.929  0.00  0.00    +0.000 OA
BRANCH   7   8
ATOM      8  C   UNL     1       3.949   5.410  17.841  0.00  0.00    +0.000 A 
ATOM      9  C   UNL     1       3.393   6.670  17.601  0.00  0.00    +0.000 A 
ATOM     10  C   UNL     1       2.592   7.305  18.549  0.00  0.00    +0.000 A 
ATOM     11  C   UNL     1       2.328   6.680  19.759  0.00  0.00    +0.000 A 
ATOM     12 CL   UNL     1       1.364   7.488  20.929  0.00  0.00    +0.000 Cl
ATOM     13  C   UNL     1       2.844   5.412  20.020  0.00  0.00    +0.000 A 
ATOM     14  C   UNL     1       3.646   4.777  19.060  0.00  0.00    +0.000 A 
ATOM     15 CL   UNL     1       4.273   3.211  19.441  0.00  0.00    +0.000 Cl
ENDBRANCH   7   8
ENDBRANCH   6   7
ENDBRANCH   1   6
BRANCH   3  16
ATOM     16  C   UNL     1       8.109   7.857  18.005  0.00  0.00    +0.000 C 
BRANCH  16  17
ATOM     17  C   UNL     1       8.180   9.382  17.978  0.00  0.00    +0.000 C 
BRANCH  17  18
ATOM     18  C   UNL     1       9.118   9.919  19.055  0.00  0.00    +0.000 C 
BRANCH  18  19
ATOM     19  N   UNL     1       9.662  11.216  18.713  0.00  0.00    +0.000 N 
ATOM     20  C   UNL     1       9.365  12.404  19.318  0.00  0.00    +0.000 A 
ATOM     21  C   UNL     1      10.088  13.344  18.620  0.00  0.00    +0.000 A 
ATOM     22  N   UNL     1      10.809  12.756  17.613  0.00  0.00    +0.000 NA
ATOM     23  C   UNL     1      10.532  11.473  17.695  0.00  0.00    +0.000 A 
ENDBRANCH  18  19
ENDBRANCH  17  18
ENDBRANCH  16  17
ENDBRANCH   3  16
TORSDOF 7
ENDMDL
MODEL 2
REMARK VINA RESULT:      -6.8      1.961      2.814
REMARK  Name = 
REMARK  8 active torsions:
REMARK  status: ('A' for Active; 'I' for Inactive)
REMARK    1  A    between atoms: C_1  and  C_2
REMARK    2  A    between atoms: C_2  and  O_3
REMARK    3  A    between atoms: C_2  and  C_12
REMARK    4  A    between atoms: O_3  and  C_4
REMARK    5  A    between atoms: N_14  and  C_15
REMARK    6  A    between atoms: C_15  and  C_16
REMARK    7  A    between atoms: C_16  and  C_17
REMARK    8  A    between atoms: C_17  and  N_18
REMARK                            x       y       z     vdW  Elec       q    Type
REMARK                         _______ _______ _______ _____ _____    ______ ____
ROOT
ATOM      1  C   UNL     1       6.751   6.689  17.254  0.00  0.00    +0.000 C 
ATOM      2  O   UNL     1       6.155   7.196  16.297  0.00  0.00    +0.000 OA
ATOM      3  N   UNL     1       7.667   7.406  17.988  0.00  0.00    +0.000 N 
ATOM      4  H   UNL     1       8.212   6.906  18.684  0.00  0.00    +0.000 HD
ENDROOT
BRANCH   1   6
ATOM      5  C   UNL     1       7.784   4.561  17.980  0.00  0.00    +0.000 C 
ATOM      6  C   UNL     1       6.434   5.265  17.750  0.00  0.00    +0.000 C 
BRANCH   6   7
ATOM      7  O   UNL     1       5.624   5.282  18.934  0.00  0.00    +0.000 OA
BRANCH   7   8
ATOM      8  C   UNL     1       4.457   4.551  18.907  0.00  0.00    +0.000 A 
ATOM      9  C   UNL     1       4.390   3.200  19.257  0.00  0.00    +0.000 A 
ATOM     10  C   UNL     1       3.187   2.496  19.219  0.00  0.00    +0.000 A 
ATOM     11  C   UNL     1       2.022   3.142  18.834  0.00  0.00    +0.000 A 
ATOM     12 CL   UNL     1       0.553   2.254  18.765  0.00  0.00    +0.000 Cl
ATOM     13  C   UNL     1       2.047   4.495  18.504  0.00  0.00    +0.000 A 
ATOM     14  C   UNL     1       3.260   5.199  18.547  0.00  0.00    +0.000 A 
ATOM     15 CL   UNL     1       3.239   6.873  18.115  0.00  0.00    +0.000 Cl
ENDBRANCH   7   8
ENDBRANCH   6   7
ENDBRANCH   1   6
BRANCH   3  16
ATOM     16  C   UNL     1       8.021   8.759  17.599  0.00  0.00    +0.000 C 
BRANCH  16  17
ATOM     17  C   UNL     1       8.809   9.487  18.686  0.00  0.00    +0.000 C 
BRANCH  17  18
ATOM     18  C   UNL     1       9.119  10.926  18.284  0.00  0.00    +0.000 C 
BRANCH  18  19
ATOM     19  N   UNL     1       9.562  11.727  19.406  0.00  0.00    +0.000 N 
ATOM     20  C   UNL     1      10.309  12.868  19.342  0.00  0.00    +0.000 A 
ATOM     21  C   UNL     1      10.508  13.232  20.653  0.00  0.00    +0.000 A 
ATOM     22  N   UNL     1       9.905  12.341  21.504  0.00  0.00    +0.000 NA
ATOM     23  C   UNL     1       9.342  11.446  20.722  0.00  0.00    +0.000 A 
ENDBRANCH  18  19
ENDBRANCH  17  18
ENDBRANCH  16  17
ENDBRANCH   3  16
TORSDOF 7
ENDMDL
MODEL 3
REMARK VINA RESULT:      -6.5      1.980      2.781
REMARK  Name = 
REMARK  8 active torsions:
REMARK  status: ('A' for Active; 'I' for Inactive)
REMARK    1  A    between atoms: C_1  and  C_2
REMARK    2  A    between atoms: C_2  and  O_3
REMARK    3  A    between atoms: C_2  and  C_12
REMARK    4  A    between atoms: O_3  and  C_4
REMARK    5  A    between atoms: N_14  and  C_15
REMARK    6  A    between atoms: C_15  and  C_16
REMARK    7  A    between atoms: C_16  and  C_17
REMARK    8  A    between atoms: C_17  and  N_18
REMARK                            x       y       z     vdW  Elec       q    Type
REMARK                         _______ _______ _______ _____ _____    ______ ____
ROOT
ATOM      1  C   UNL     1       7.145   6.361  17.094  0.00  0.00    +0.000 C 
ATOM      2  O   UNL     1       7.734   6.333  16.008  0.00  0.00    +0.000 OA
ATOM      3  N   UNL     1       7.200   7.467  17.910  0.00  0.00    +0.000 N 
ATOM      4  H   UNL     1       6.799   7.391  18.840  0.00  0.00    +0.000 HD
ENDROOT
BRANCH   1   6
ATOM      5  C   UNL     1       5.942   5.441  19.050  0.00  0.00    +0.000 C 
ATOM      6  C   UNL     1       6.231   5.210  17.557  0.00  0.00    +0.000 C 
BRANCH   6   7
ATOM      7  O   UNL     1       5.029   5.138  16.777  0.00  0.00    +0.000 OA
BRANCH   7   8
ATOM      8  C   UNL     1       3.964   4.458  17.326  0.00  0.00    +0.000 A 
ATOM      9  C   UNL     1       3.887   3.063  17.370  0.00  0.00    +0.000 A 
ATOM     10  C   UNL     1       2.793   2.411  17.938  0.00  0.00    +0.000 A 
ATOM     11  C   UNL     1       1.755   3.153  18.481  0.00  0.00    +0.000 A 
ATOM     12 CL   UNL     1       0.400   2.337  19.152  0.00  0.00    +0.000 Cl
ATOM     13  C   UNL     1       1.811   4.546  18.478  0.00  0.00    +0.000 A 
ATOM     14  C   UNL     1       2.917   5.195  17.908  0.00  0.00    +0.000 A 
ATOM     15 CL   UNL     1       2.931   6.924  17.918  0.00  0.00    +0.000 Cl
ENDBRANCH   7   8
ENDBRANCH   6   7
ENDBRANCH   1   6
BRANCH   3  16
ATOM     16  C   UNL     1       8.028   8.603  17.550  0.00  0.00    +0.000 C 
BRANCH  16  17
ATOM     17  C   UNL     1       8.726   9.219  18.761  0.00  0.00    +0.000 C 
BRANCH  17  18
ATOM     18  C   UNL     1       9.311  10.590  18.433  0.00  0.00    +0.000 C 
BRANCH  18  19
ATOM     19  N   UNL     1       9.252  11.496  19.561  0.00  0.00    +0.000 N 
ATOM     20  C   UNL     1       9.272  11.148  20.881  0.00  0.00    +0.000 A 
ATOM     21  C   UNL     1       9.151  12.338  21.560  0.00  0.00    +0.000 A 
ATOM     22  N   UNL     1       9.056  13.391  20.687  0.00  0.00    +0.000 NA
ATOM     23  C   UNL     1       9.121  12.851  19.489  0.00  0.00    +0.000 A 
ENDBRANCH  18  19
ENDBRANCH  17  18
ENDBRANCH  16  17
ENDBRANCH   3  16
TORSDOF 7
ENDMDL
MODEL 4
REMARK VINA RESULT:      -6.5      1.583      1.688
REMARK  Name = 
REMARK  8 active torsions:
REMARK  status: ('A' for Active; 'I' for Inactive)
REMARK    1  A    between atoms: C_1  and  C_2
REMARK    2  A    between atoms: C_2  and  O_3
REMARK    3  A    between atoms: C_2  and  C_12
REMARK    4  A    between atoms: O_3  and  C_4
REMARK    5  A    between atoms: N_14  and  C_15
REMARK    6  A    between atoms: C_15  and  C_16
REMARK    7  A    between atoms: C_16  and  C_17
REMARK    8  A    between atoms: C_17  and  N_18
REMARK                            x       y       z     vdW  Elec       q    Type
REMARK                         _______ _______ _______ _____ _____    ______ ____
ROOT
ATOM      1  C   UNL     1       6.729   6.163  16.454  0.00  0.00    +0.000 C 
ATOM      2  O   UNL     1       7.774   5.689  15.994  0.00  0.00    +0.000 OA
ATOM      3  N   UNL     1       6.740   7.299  17.229  0.00  0.00    +0.000 N 
ATOM      4  H   UNL     1       5.871   7.575  17.678  0.00  0.00    +0.000 HD
ENDROOT
BRANCH   1   6
ATOM      5  C   UNL     1       5.266   5.506  14.571  0.00  0.00    +0.000 C 
ATOM      6  C   UNL     1       5.346   5.580  16.106  0.00  0.00    +0.000 C 
BRANCH   6   7
ATOM      7  O   UNL     1       5.138   4.301  16.722  0.00  0.00    +0.000 OA
BRANCH   7   8
ATOM      8  C   UNL     1       4.067   4.185  17.581  0.00  0.00    +0.000 A 
ATOM      9  C   UNL     1       2.801   3.756  17.175  0.00  0.00    +0.000 A 
ATOM     10  C   UNL     1       1.744   3.648  18.078  0.00  0.00    +0.000 A 
ATOM     11  C   UNL     1       1.943   3.966  19.413  0.00  0.00    +0.000 A 
ATOM     12 CL   UNL     1       0.624   3.856  20.509  0.00  0.00    +0.000 Cl
ATOM     13  C   UNL     1       3.200   4.372  19.858  0.00  0.00    +0.000 A 
ATOM     14  C   UNL     1       4.260   4.474  18.945  0.00  0.00    +0.000 A 
ATOM     15 CL   UNL     1       5.795   4.997  19.546  0.00  0.00    +0.000 Cl
ENDBRANCH   7   8
ENDBRANCH   6   7
ENDBRANCH   1   6
BRANCH   3  16
ATOM     16  C   UNL     1       7.997   7.923  17.600  0.00  0.00    +0.000 C 
BRANCH  16  17
ATOM     17  C   UNL     1       7.858   9.429  17.808  0.00  0.00    +0.000 C 
BRANCH  17  18
ATOM     18  C   UNL     1       8.952   9.972  18.723  0.00  0.00    +0.000 C 
BRANCH  18  19
ATOM     19  N   UNL     1       9.509  11.216  18.237  0.00  0.00    +0.000 N 
ATOM     20  C   UNL     1       8.822  12.374  18.005  0.00  0.00    +0.000 A 
ATOM     21  C   UNL     1       9.765  13.248  17.514  0.00  0.00    +0.000 A 
ATOM     22  N   UNL     1      10.996  12.649  17.441  0.00  0.00    +0.000 NA
ATOM     23  C   UNL     1      10.809  11.425  17.885  0.00  0.00    +0.000 A 
ENDBRANCH  18  19
ENDBRANCH  17  18
ENDBRANCH  16  17
ENDBRANCH   3  16
TORSDOF 7
ENDMDL
MODEL 5
REMARK VINA RESULT:      -6.5      4.786      8.291
REMARK  Name = 
REMARK  8 active torsions:
REMARK  status: ('A' for Active; 'I' for Inactive)
REMARK    1  A    between atoms: C_1  and  C_2
REMARK    2  A    between atoms: C_2  and  O_3
REMARK    3  A    between atoms: C_2  and  C_12
REMARK    4  A    between atoms: O_3  and  C_4
REMARK    5  A    between atoms: N_14  and  C_15
REMARK    6  A    between atoms: C_15  and  C_16
REMARK    7  A    between atoms: C_16  and  C_17
REMARK    8  A    between atoms: C_17  and  N_18
REMARK                            x       y       z     vdW  Elec       q    Type
REMARK                         _______ _______ _______ _____ _____    ______ ____
ROOT
ATOM      1  C   UNL     1       6.618   5.525  17.996  0.00  0.00    +0.000 C 
ATOM      2  O   UNL     1       7.535   5.046  18.672  0.00  0.00    +0.000 OA
ATOM      3  N   UNL     1       5.303   5.390  18.376  0.00  0.00    +0.000 N 
ATOM      4  H   UNL     1       4.587   5.698  17.724  0.00  0.00    +0.000 HD
ENDROOT
BRANCH   1   6
ATOM      5  C   UNL     1       7.570   7.680  17.239  0.00  0.00    +0.000 C 
ATOM      6  C   UNL     1       6.889   6.390  16.749  0.00  0.00    +0.000 C 
BRANCH   6   7
ATOM      7  O   UNL     1       7.684   5.691  15.780  0.00  0.00    +0.000 OA
BRANCH   7   8
ATOM      8  C   UNL     1       7.011   4.996  14.800  0.00  0.00    +0.000 A 
ATOM      9  C   UNL     1       5.831   4.286  15.037  0.00  0.00    +0.000 A 
ATOM     10  C   UNL     1       5.177   3.598  14.015  0.00  0.00    +0.000 A 
ATOM     11  C   UNL     1       5.697   3.617  12.729  0.00  0.00    +0.000 A 
ATOM     12 CL   UNL     1       4.896   2.740  11.487  0.00  0.00    +0.000 Cl
ATOM     13  C   UNL     1       6.857   4.337  12.452  0.00  0.00    +0.000 A 
ATOM     14  C   UNL     1       7.507   5.030  13.484  0.00  0.00    +0.000 A 
ATOM     15 CL   UNL     1       8.951   5.896  13.089  0.00  0.00    +0.000 Cl
ENDBRANCH   7   8
ENDBRANCH   6   7
ENDBRANCH   1   6
BRANCH   3  16
ATOM     16  C   UNL     1       4.954   4.601  19.543  0.00  0.00    +0.000 C 
BRANCH  16  17
ATOM     17  C   UNL     1       4.863   3.109  19.229  0.00  0.00    +0.000 C 
BRANCH  17  18
ATOM     18  C   UNL     1       3.892   2.397  20.166  0.00  0.00    +0.000 C 
BRANCH  18  19
ATOM     19  N   UNL     1       2.513   2.559  19.755  0.00  0.00    +0.000 N 
ATOM     20  C   UNL     1       1.494   3.054  20.517  0.00  0.00    +0.000 A 
ATOM     21  C   UNL     1       0.381   2.969  19.712  0.00  0.00    +0.000 A 
ATOM     22  N   UNL     1       0.702   2.435  18.490  0.00  0.00    +0.000 NA
ATOM     23  C   UNL     1       1.994   2.200  18.546  0.00  0.00    +0.000 A 
ENDBRANCH  18  19
ENDBRANCH  17  18
ENDBRANCH  16  17
ENDBRANCH   3  16
TORSDOF 7
ENDMDL
MODEL 6
REMARK VINA RESULT:      -6.4      5.128      7.347
REMARK  Name = 
REMARK  8 active torsions:
REMARK  status: ('A' for Active; 'I' for Inactive)
REMARK    1  A    between atoms: C_1  and  C_2
REMARK    2  A    between atoms: C_2  and  O_3
REMARK    3  A    between atoms: C_2  and  C_12
REMARK    4  A    between atoms: O_3  and  C_4
REMARK    5  A    between atoms: N_14  and  C_15
REMARK    6  A    between atoms: C_15  and  C_16
REMARK    7  A    between atoms: C_16  and  C_17
REMARK    8  A    between atoms: C_17  and  N_18
REMARK                            x       y       z     vdW  Elec       q    Type
REMARK                         _______ _______ _______ _____ _____    ______ ____
ROOT
ATOM      1  C   UNL     1       1.952   7.702  20.190  0.00  0.00    +0.000 C 
ATOM      2  O   UNL     1       1.655   8.584  19.377  0.00  0.00    +0.000 OA
ATOM      3  N   UNL     1       1.761   7.879  21.540  0.00  0.00    +0.000 N 
ATOM      4  H   UNL     1       2.132   7.173  22.169  0.00  0.00    +0.000 HD
ENDROOT
BRANCH   1   6
ATOM      5  C   UNL     1       1.684   5.272  20.570  0.00  0.00    +0.000 C 
ATOM      6  C   UNL     1       2.455   6.316  19.742  0.00  0.00    +0.000 C 
BRANCH   6   7
ATOM      7  O   UNL     1       2.287   6.119  18.331  0.00  0.00    +0.000 OA
BRANCH   7   8
ATOM      8  C   UNL     1       3.413   5.799  17.604  0.00  0.00    +0.000 A 
ATOM      9  C   UNL     1       4.392   6.733  17.255  0.00  0.00    +0.000 A 
ATOM     10  C   UNL     1       5.519   6.367  16.521  0.00  0.00    +0.000 A 
ATOM     11  C   UNL     1       5.687   5.048  16.127  0.00  0.00    +0.000 A 
ATOM     12 CL   UNL     1       7.067   4.617  15.199  0.00  0.00    +0.000 Cl
ATOM     13  C   UNL     1       4.744   4.085  16.481  0.00  0.00    +0.000 A 
ATOM     14  C   UNL     1       3.614   4.459  17.223  0.00  0.00    +0.000 A 
ATOM     15 CL   UNL     1       2.466   3.228  17.623  0.00  0.00    +0.000 Cl
ENDBRANCH   7   8
ENDBRANCH   6   7
ENDBRANCH   1   6
BRANCH   3  16
ATOM     16  C   UNL     1       1.282   9.150  22.053  0.00  0.00    +0.000 C 
BRANCH  16  17
ATOM     17  C   UNL     1      -0.242   9.212  22.118  0.00  0.00    +0.000 C 
BRANCH  17  18
ATOM     18  C   UNL     1      -0.749  10.650  22.051  0.00  0.00    +0.000 C 
BRANCH  18  19
ATOM     19  N   UNL     1      -0.534  11.247  20.750  0.00  0.00    +0.000 N 
ATOM     20  C   UNL     1      -1.049  10.810  19.563  0.00  0.00    +0.000 A 
ATOM     21  C   UNL     1      -0.531  11.666  18.619  0.00  0.00    +0.000 A 
ATOM     22  N   UNL     1       0.282  12.603  19.203  0.00  0.00    +0.000 NA
ATOM     23  C   UNL     1       0.259  12.325  20.488  0.00  0.00    +0.000 A 
ENDBRANCH  18  19
ENDBRANCH  17  18
ENDBRANCH  16  17
ENDBRANCH   3  16
TORSDOF 7
ENDMDL
MODEL 7
REMARK VINA RESULT:      -6.4      4.969      8.172
REMARK  Name = 
REMARK  8 active torsions:
REMARK  status: ('A' for Active; 'I' for Inactive)
REMARK    1  A    between atoms: C_1  and  C_2
REMARK    2  A    between atoms: C_2  and  O_3
REMARK    3  A    between atoms: C_2  and  C_12
REMARK    4  A    between atoms: O_3  and  C_4
REMARK    5  A    between atoms: N_14  and  C_15
REMARK    6  A    between atoms: C_15  and  C_16
REMARK    7  A    between atoms: C_16  and  C_17
REMARK    8  A    between atoms: C_17  and  N_18
REMARK                            x       y       z     vdW  Elec       q    Type
REMARK                         _______ _______ _______ _____ _____    ______ ____
ROOT
ATOM      1  C   UNL     1       6.456   4.977  17.558  0.00  0.00    +0.000 C 
ATOM      2  O   UNL     1       7.325   4.312  18.133  0.00  0.00    +0.000 OA
ATOM      3  N   UNL     1       5.118   4.760  17.794  0.00  0.00    +0.000 N 
ATOM      4  H   UNL     1       4.448   5.250  17.208  0.00  0.00    +0.000 HD
ENDROOT
BRANCH   1   6
ATOM      5  C   UNL     1       7.503   7.217  17.494  0.00  0.00    +0.000 C 
ATOM      6  C   UNL     1       6.809   6.152  16.626  0.00  0.00    +0.000 C 
BRANCH   6   7
ATOM      7  O   UNL     1       7.629   5.731  15.526  0.00  0.00    +0.000 OA
BRANCH   7   8
ATOM      8  C   UNL     1       7.028   4.963  14.553  0.00  0.00    +0.000 A 
ATOM      9  C   UNL     1       5.892   4.183  14.786  0.00  0.00    +0.000 A 
ATOM     10  C   UNL     1       5.310   3.422  13.772  0.00  0.00    +0.000 A 
ATOM     11  C   UNL     1       5.859   3.437  12.499  0.00  0.00    +0.000 A 
ATOM     12 CL   UNL     1       5.149   2.471  11.267  0.00  0.00    +0.000 Cl
ATOM     13  C   UNL     1       6.976   4.224  12.225  0.00  0.00    +0.000 A 
ATOM     14  C   UNL     1       7.554   4.990  13.249  0.00  0.00    +0.000 A 
ATOM     15 CL   UNL     1       8.947   5.938  12.860  0.00  0.00    +0.000 Cl
ENDBRANCH   7   8
ENDBRANCH   6   7
ENDBRANCH   1   6
BRANCH   3  16
ATOM     16  C   UNL     1       4.692   3.681  18.665  0.00  0.00    +0.000 C 
BRANCH  16  17
ATOM     17  C   UNL     1       4.084   2.514  17.889  0.00  0.00    +0.000 C 
BRANCH  17  18
ATOM     18  C   UNL     1       2.730   2.105  18.461  0.00  0.00    +0.000 C 
BRANCH  18  19
ATOM     19  N   UNL     1       2.338   2.927  19.587  0.00  0.00    +0.000 N 
ATOM     20  C   UNL     1       2.638   2.698  20.900  0.00  0.00    +0.000 A 
ATOM     21  C   UNL     1       2.016   3.716  21.585  0.00  0.00    +0.000 A 
ATOM     22  N   UNL     1       1.349   4.548  20.722  0.00  0.00    +0.000 NA
ATOM     23  C   UNL     1       1.564   4.047  19.525  0.00  0.00    +0.000 A 
ENDBRANCH  18  19
ENDBRANCH  17  18
ENDBRANCH  16  17
ENDBRANCH   3  16
TORSDOF 7
ENDMDL
MODEL 8
REMARK VINA RESULT:      -6.4      3.903      7.660
REMARK  Name = 
REMARK  8 active torsions:
REMARK  status: ('A' for Active; 'I' for Inactive)
REMARK    1  A    between atoms: C_1  and  C_2
REMARK    2  A    between atoms: C_2  and  O_3
REMARK    3  A    between atoms: C_2  and  C_12
REMARK    4  A    between atoms: O_3  and  C_4
REMARK    5  A    between atoms: N_14  and  C_15
REMARK    6  A    between atoms: C_15  and  C_16
REMARK    7  A    between atoms: C_16  and  C_17
REMARK    8  A    between atoms: C_17  and  N_18
REMARK                            x       y       z     vdW  Elec       q    Type
REMARK                         _______ _______ _______ _____ _____    ______ ____
ROOT
ATOM      1  C   UNL     1       5.798   6.800  16.824  0.00  0.00    +0.000 C 
ATOM      2  O   UNL     1       5.359   7.246  15.758  0.00  0.00    +0.000 OA
ATOM      3  N   UNL     1       4.974   6.592  17.906  0.00  0.00    +0.000 N 
ATOM      4  H   UNL     1       5.406   6.339  18.790  0.00  0.00    +0.000 HD
ENDROOT
BRANCH   1   6
ATOM      5  C   UNL     1       7.659   6.616  18.443  0.00  0.00    +0.000 C 
ATOM      6  C   UNL     1       7.264   6.352  16.979  0.00  0.00    +0.000 C 
BRANCH   6   7
ATOM      7  O   UNL     1       7.442   4.977  16.610  0.00  0.00    +0.000 OA
BRANCH   7   8
ATOM      8  C   UNL     1       6.903   4.575  15.408  0.00  0.00    +0.000 A 
ATOM      9  C   UNL     1       7.487   4.863  14.171  0.00  0.00    +0.000 A 
ATOM     10  C   UNL     1       6.910   4.434  12.976  0.00  0.00    +0.000 A 
ATOM     11  C   UNL     1       5.734   3.700  13.002  0.00  0.00    +0.000 A 
ATOM     12 CL   UNL     1       5.020   3.204  11.520  0.00  0.00    +0.000 Cl
ATOM     13  C   UNL     1       5.139   3.372  14.219  0.00  0.00    +0.000 A 
ATOM     14  C   UNL     1       5.726   3.803  15.418  0.00  0.00    +0.000 A 
ATOM     15 CL   UNL     1       4.940   3.382  16.899  0.00  0.00    +0.000 Cl
ENDBRANCH   7   8
ENDBRANCH   6   7
ENDBRANCH   1   6
BRANCH   3  16
ATOM     16  C   UNL     1       3.576   6.976  17.847  0.00  0.00    +0.000 C 
BRANCH  16  17
ATOM     17  C   UNL     1       2.791   6.496  19.066  0.00  0.00    +0.000 C 
BRANCH  17  18
ATOM     18  C   UNL     1       3.381   5.212  19.643  0.00  0.00    +0.000 C 
BRANCH  18  19
ATOM     19  N   UNL     1       2.584   4.047  19.319  0.00  0.00    +0.000 N 
ATOM     20  C   UNL     1       2.749   2.788  19.822  0.00  0.00    +0.000 A 
ATOM     21  C   UNL     1       1.793   2.029  19.187  0.00  0.00    +0.000 A 
ATOM     22  N   UNL     1       1.060   2.794  18.317  0.00  0.00    +0.000 NA
ATOM     23  C   UNL     1       1.560   4.007  18.420  0.00  0.00    +0.000 A 
ENDBRANCH  18  19
ENDBRANCH  17  18
ENDBRANCH  16  17
ENDBRANCH   3  16
TORSDOF 7
ENDMDL
MODEL 9
REMARK VINA RESULT:      -6.3      1.950      2.404
REMARK  Name = 
REMARK  8 active torsions:
REMARK  status: ('A' for Active; 'I' for Inactive)
REMARK    1  A    between atoms: C_1  and  C_2
REMARK    2  A    between atoms: C_2  and  O_3
REMARK    3  A    between atoms: C_2  and  C_12
REMARK    4  A    between atoms: O_3  and  C_4
REMARK    5  A    between atoms: N_14  and  C_15
REMARK    6  A    between atoms: C_15  and  C_16
REMARK    7  A    between atoms: C_16  and  C_17
REMARK    8  A    between atoms: C_17  and  N_18
REMARK                            x       y       z     vdW  Elec       q    Type
REMARK                         _______ _______ _______ _____ _____    ______ ____
ROOT
ATOM      1  C   UNL     1       6.255   6.468  17.168  0.00  0.00    +0.000 C 
ATOM      2  O   UNL     1       6.009   6.842  16.016  0.00  0.00    +0.000 OA
ATOM      3  N   UNL     1       7.101   7.180  17.987  0.00  0.00    +0.000 N 
ATOM      4  H   UNL     1       7.361   6.765  18.877  0.00  0.00    +0.000 HD
ENDROOT
BRANCH   1   6
ATOM      5  C   UNL     1       6.121   5.092  19.220  0.00  0.00    +0.000 C 
ATOM      6  C   UNL     1       5.556   5.247  17.797  0.00  0.00    +0.000 C 
BRANCH   6   7
ATOM      7  O   UNL     1       4.128   5.392  17.794  0.00  0.00    +0.000 OA
BRANCH   7   8
ATOM      8  C   UNL     1       3.429   4.746  18.789  0.00  0.00    +0.000 A 
ATOM      9  C   UNL     1       2.906   5.401  19.908  0.00  0.00    +0.000 A 
ATOM     10  C   UNL     1       2.200   4.710  20.892  0.00  0.00    +0.000 A 
ATOM     11  C   UNL     1       2.002   3.343  20.768  0.00  0.00    +0.000 A 
ATOM     12 CL   UNL     1       1.155   2.502  22.003  0.00  0.00    +0.000 Cl
ATOM     13  C   UNL     1       2.486   2.663  19.652  0.00  0.00    +0.000 A 
ATOM     14  C   UNL     1       3.192   3.365  18.663  0.00  0.00    +0.000 A 
ATOM     15 CL   UNL     1       3.785   2.471  17.307  0.00  0.00    +0.000 Cl
ENDBRANCH   7   8
ENDBRANCH   6   7
ENDBRANCH   1   6
BRANCH   3  16
ATOM     16  C   UNL     1       7.797   8.350  17.483  0.00  0.00    +0.000 C 
BRANCH  16  17
ATOM     17  C   UNL     1       8.625   9.042  18.563  0.00  0.00    +0.000 C 
BRANCH  17  18
ATOM     18  C   UNL     1       9.051  10.443  18.131  0.00  0.00    +0.000 C 
BRANCH  18  19
ATOM     19  N   UNL     1       9.844  11.112  19.141  0.00  0.00    +0.000 N 
ATOM     20  C   UNL     1       9.402  11.559  20.353  0.00  0.00    +0.000 A 
ATOM     21  C   UNL     1      10.499  12.156  20.928  0.00  0.00    +0.000 A 
ATOM     22  N   UNL     1      11.587  12.083  20.097  0.00  0.00    +0.000 NA
ATOM     23  C   UNL     1      11.161  11.446  19.028  0.00  0.00    +0.000 A 
ENDBRANCH  18  19
ENDBRANCH  17  18
ENDBRANCH  16  17
ENDBRANCH   3  16
TORSDOF 7
ENDMDL
