MODEL 1
REMARK VINA RESULT:      -8.6      0.000      0.000
REMARK  Name = 
REMARK  8 active torsions:
REMARK  status: ('A' for Active; 'I' for Inactive)
REMARK    1  A    between atoms: C_1  and  C_2
REMARK    2  A    between atoms: C_2  and  O_3
REMARK    3  A    between atoms: C_2  and  C_20
REMARK    4  A    between atoms: O_3  and  C_4
REMARK    5  A    between atoms: C_4  and  C_6
REMARK    6  A    between atoms: N_11  and  C_12
REMARK    7  A    between atoms: C_12  and  C_13
REMARK    8  A    between atoms: N_22  and  C_23
REMARK                            x       y       z     vdW  Elec       q    Type
REMARK                         _______ _______ _______ _____ _____    ______ ____
ROOT
ATOM      1  C   UNL     1       4.076   2.882  19.121  0.00  0.00    +0.000 C 
ATOM      2  O   UNL     1       3.576   1.993  18.429  0.00  0.00    +0.000 OA
ENDROOT
BRANCH   1   3
ATOM      3  C   UNL     1       4.987   3.945  18.498  0.00  0.00    +0.000 A 
ATOM      4  C   UNL     1       5.871   4.713  19.405  0.00  0.00    +0.000 A 
ATOM      5  C   UNL     1       6.687   5.604  18.827  0.00  0.00    +0.000 A 
ATOM      6  C   UNL     1       6.561   5.924  17.389  0.00  0.00    +0.000 A 
ATOM      7  O   UNL     1       7.236   6.855  16.926  0.00  0.00    +0.000 OA
ATOM      8  N   UNL     1       5.623   5.194  16.677  0.00  0.00    +0.000 N 
ATOM      9  N   UNL     1       4.872   4.159  17.218  0.00  0.00    +0.000 NA
BRANCH   8  10
ATOM     10  C   UNL     1       5.240   5.645  15.336  0.00  0.00    +0.000 C 
BRANCH  10  11
ATOM     11  C   UNL     1       5.925   4.869  14.238  0.00  0.00    +0.000 A 
ATOM     12  C   UNL     1       7.211   5.244  13.826  0.00  0.00    +0.000 A 
ATOM     13  C   UNL     1       7.767   4.712  12.663  0.00  0.00    +0.000 A 
ATOM     14  C   UNL     1       7.081   3.731  11.955  0.00  0.00    +0.000 A 
ATOM     15  C   UNL     1       5.848   3.269  12.417  0.00  0.00    +0.000 A 
ATOM     16  C   UNL     1       5.259   3.851  13.542  0.00  0.00    +0.000 A 
ENDBRANCH  10  11
ENDBRANCH   8  10
ENDBRANCH   1   3
BRANCH   1  17
ATOM     17  O   UNL     1       3.961   3.042  20.458  0.00  0.00    +0.000 OA
BRANCH  17  19
ATOM     18  C   UNL     1       1.626   2.500  20.925  0.00  0.00    +0.000 C 
ATOM     19  C   UNL     1       2.721   3.583  20.939  0.00  0.00    +0.000 C 
BRANCH  19  20
ATOM     20  C   UNL     1       2.182   4.767  20.099  0.00  0.00    +0.000 C 
ATOM     21  O   UNL     1       1.297   4.547  19.256  0.00  0.00    +0.000 OA
ATOM     22  N   UNL     1       2.710   6.029  20.334  0.00  0.00    +0.000 N 
ATOM     23  H   UNL     1       3.642   6.060  20.729  0.00  0.00    +0.000 HD
BRANCH  22  24
ATOM     24  C   UNL     1       2.246   7.180  19.630  0.00  0.00    +0.000 A 
ATOM     25  C   UNL     1       2.627   7.438  18.302  0.00  0.00    +0.000 A 
ATOM     26  C   UNL     1       2.325   8.641  17.669  0.00  0.00    +0.000 A 
ATOM     27  C   UNL     1       1.638   9.622  18.367  0.00  0.00    +0.000 A 
ATOM     28  C   UNL     1       1.198   9.358  19.663  0.00  0.00    +0.000 A 
ATOM     29 CL   UNL     1       0.400  10.605  20.545  0.00  0.00    +0.000 Cl
ATOM     30  C   UNL     1       1.459   8.127  20.286  0.00  0.00    +0.000 A 
ENDBRANCH  22  24
ENDBRANCH  19  20
ENDBRANCH  17  19
ENDBRANCH   1  17
TORSDOF 7
ENDMDL
MODEL 2
REMARK VINA RESULT:      -8.5      2.077      3.363
REMARK  Name = 
REMARK  8 active torsions:
REMARK  status: ('A' for Active; 'I' for Inactive)
REMARK    1  A    between atoms: C_1  and  C_2
REMARK    2  A    between atoms: C_2  and  O_3
REMARK    3  A    between atoms: C_2  and  C_20
REMARK    4  A    between atoms: O_3  and  C_4
REMARK    5  A    between atoms: C_4  and  C_6
REMARK    6  A    between atoms: N_11  and  C_12
REMARK    7  A    between atoms: C_12  and  C_13
REMARK    8  A    between atoms: N_22  and  C_23
REMARK                            x       y       z     vdW  Elec       q    Type
REMARK                         _______ _______ _______ _____ _____    ______ ____
ROOT
ATOM      1  C   UNL     1       4.243   2.255  20.023  0.00  0.00    +0.000 C 
ATOM      2  O   UNL     1       5.194   1.765  20.636  0.00  0.00    +0.000 OA
ENDROOT
BRANCH   1   3
ATOM      3  C   UNL     1       4.466   3.054  18.735  0.00  0.00    +0.000 A 
ATOM      4  C   UNL     1       3.435   2.955  17.676  0.00  0.00    +0.000 A 
ATOM      5  C   UNL     1       3.636   3.699  16.580  0.00  0.00    +0.000 A 
ATOM      6  C   UNL     1       4.910   4.418  16.376  0.00  0.00    +0.000 A 
ATOM      7  O   UNL     1       5.111   4.975  15.287  0.00  0.00    +0.000 OA
ATOM      8  N   UNL     1       5.829   4.345  17.411  0.00  0.00    +0.000 N 
ATOM      9  N   UNL     1       5.585   3.710  18.621  0.00  0.00    +0.000 NA
BRANCH   8  10
ATOM     10  C   UNL     1       7.208   4.782  17.170  0.00  0.00    +0.000 C 
BRANCH  10  11
ATOM     11  C   UNL     1       7.489   6.163  17.708  0.00  0.00    +0.000 A 
ATOM     12  C   UNL     1       7.141   7.286  16.944  0.00  0.00    +0.000 A 
ATOM     13  C   UNL     1       7.603   8.554  17.295  0.00  0.00    +0.000 A 
ATOM     14  C   UNL     1       8.337   8.722  18.465  0.00  0.00    +0.000 A 
ATOM     15  C   UNL     1       8.596   7.628  19.291  0.00  0.00    +0.000 A 
ATOM     16  C   UNL     1       8.194   6.348  18.905  0.00  0.00    +0.000 A 
ENDBRANCH  10  11
ENDBRANCH   8  10
ENDBRANCH   1   3
BRANCH   1  17
ATOM     17  O   UNL     1       2.938   2.221  20.372  0.00  0.00    +0.000 OA
BRANCH  17  19
ATOM     18  C   UNL     1       1.362   2.710  22.171  0.00  0.00    +0.000 C 
ATOM     19  C   UNL     1       2.479   3.252  21.260  0.00  0.00    +0.000 C 
BRANCH  19  20
ATOM     20  C   UNL     1       1.898   4.492  20.538  0.00  0.00    +0.000 C 
ATOM     21  O   UNL     1       0.717   4.461  20.153  0.00  0.00    +0.000 OA
ATOM     22  N   UNL     1       2.725   5.592  20.359  0.00  0.00    +0.000 N 
ATOM     23  H   UNL     1       3.722   5.408  20.346  0.00  0.00    +0.000 HD
BRANCH  22  24
ATOM     24  C   UNL     1       2.260   6.788  19.736  0.00  0.00    +0.000 A 
ATOM     25  C   UNL     1       2.534   7.073  18.387  0.00  0.00    +0.000 A 
ATOM     26  C   UNL     1       2.238   8.311  17.821  0.00  0.00    +0.000 A 
ATOM     27  C   UNL     1       1.669   9.300  18.608  0.00  0.00    +0.000 A 
ATOM     28  C   UNL     1       1.334   9.013  19.931  0.00  0.00    +0.000 A 
ATOM     29 CL   UNL     1       0.685  10.266  20.919  0.00  0.00    +0.000 Cl
ATOM     30  C   UNL     1       1.587   7.749  20.489  0.00  0.00    +0.000 A 
ENDBRANCH  22  24
ENDBRANCH  19  20
ENDBRANCH  17  19
ENDBRANCH   1  17
TORSDOF 7
ENDMDL
MODEL 3
REMARK VINA RESULT:      -8.2      1.094      1.565
REMARK  Name = 
REMARK  8 active torsions:
REMARK  status: ('A' for Active; 'I' for Inactive)
REMARK    1  A    between atoms: C_1  and  C_2
REMARK    2  A    between atoms: C_2  and  O_3
REMARK    3  A    between atoms: C_2  and  C_20
REMARK    4  A    between atoms: O_3  and  C_4
REMARK    5  A    between atoms: C_4  and  C_6
REMARK    6  A    between atoms: N_11  and  C_12
REMARK    7  A    between atoms: C_12  and  C_13
REMARK    8  A    between atoms: N_22  and  C_23
REMARK                            x       y       z     vdW  Elec       q    Type
REMARK                         _______ _______ _______ _____ _____    ______ ____
ROOT
ATOM      1  C   UNL     1       4.777   3.205  19.315  0.00  0.00    +0.000 C 
ATOM      2  O   UNL     1       5.134   2.793  20.421  0.00  0.00    +0.000 OA
ENDROOT
BRANCH   1   3
ATOM      3  C   UNL     1       5.610   4.243  18.556  0.00  0.00    +0.000 A 
ATOM      4  C   UNL     1       6.571   5.058  19.334  0.00  0.00    +0.000 A 
ATOM      5  C   UNL     1       7.316   5.925  18.636  0.00  0.00    +0.000 A 
ATOM      6  C   UNL     1       7.046   6.176  17.205  0.00  0.00    +0.000 A 
ATOM      7  O   UNL     1       7.662   7.087  16.634  0.00  0.00    +0.000 OA
ATOM      8  N   UNL     1       6.049   5.407  16.625  0.00  0.00    +0.000 N 
ATOM      9  N   UNL     1       5.366   4.394  17.285  0.00  0.00    +0.000 NA
BRANCH   8  10
ATOM     10  C   UNL     1       5.530   5.792  15.309  0.00  0.00    +0.000 C 
BRANCH  10  11
ATOM     11  C   UNL     1       6.055   4.922  14.194  0.00  0.00    +0.000 A 
ATOM     12  C   UNL     1       7.317   5.189  13.644  0.00  0.00    +0.000 A 
ATOM     13  C   UNL     1       7.724   4.568  12.464  0.00  0.00    +0.000 A 
ATOM     14  C   UNL     1       6.911   3.604  11.875  0.00  0.00    +0.000 A 
ATOM     15  C   UNL     1       5.701   3.249  12.474  0.00  0.00    +0.000 A 
ATOM     16  C   UNL     1       5.262   3.921  13.617  0.00  0.00    +0.000 A 
ENDBRANCH  10  11
ENDBRANCH   8  10
ENDBRANCH   1   3
BRANCH   1  17
ATOM     17  O   UNL     1       3.651   2.877  18.644  0.00  0.00    +0.000 OA
BRANCH  17  19
ATOM     18  C   UNL     1       1.250   2.433  18.616  0.00  0.00    +0.000 C 
ATOM     19  C   UNL     1       2.403   3.218  19.267  0.00  0.00    +0.000 C 
BRANCH  19  20
ATOM     20  C   UNL     1       2.035   4.718  19.157  0.00  0.00    +0.000 C 
ATOM     21  O   UNL     1       1.598   5.149  18.076  0.00  0.00    +0.000 OA
ATOM     22  N   UNL     1       2.201   5.517  20.279  0.00  0.00    +0.000 N 
ATOM     23  H   UNL     1       2.886   5.204  20.957  0.00  0.00    +0.000 HD
BRANCH  22  24
ATOM     24  C   UNL     1       1.853   6.901  20.275  0.00  0.00    +0.000 A 
ATOM     25  C   UNL     1       1.078   7.471  21.299  0.00  0.00    +0.000 A 
ATOM     26  C   UNL     1       0.587   8.772  21.214  0.00  0.00    +0.000 A 
ATOM     27  C   UNL     1       0.857   9.528  20.083  0.00  0.00    +0.000 A 
ATOM     28  C   UNL     1       1.677   8.999  19.087  0.00  0.00    +0.000 A 
ATOM     29 CL   UNL     1       1.956   9.920  17.658  0.00  0.00    +0.000 Cl
ATOM     30  C   UNL     1       2.213   7.705  19.194  0.00  0.00    +0.000 A 
ENDBRANCH  22  24
ENDBRANCH  19  20
ENDBRANCH  17  19
ENDBRANCH   1  17
TORSDOF 7
ENDMDL
MODEL 4
REMARK VINA RESULT:      -8.1      3.831      7.173
REMARK  Name = 
REMARK  8 active torsions:
REMARK  status: ('A' for Active; 'I' for Inactive)
REMARK    1  A    between atoms: C_1  and  C_2
REMARK    2  A    between atoms: C_2  and  O_3
REMARK    3  A    between atoms: C_2  and  C_20
REMARK    4  A    between atoms: O_3  and  C_4
REMARK    5  A    between atoms: C_4  and  C_6
REMARK    6  A    between atoms: N_11  and  C_12
REMARK    7  A    between atoms: C_12  and  C_13
REMARK    8  A    between atoms: N_22  and  C_23
REMARK                            x       y       z     vdW  Elec       q    Type
REMARK                         _______ _______ _______ _____ _____    ______ ____
ROOT
ATOM      1  C   UNL     1       6.001   5.106  17.235  0.00  0.00    +0.000 C 
ATOM      2  O   UNL     1       6.692   4.381  16.517  0.00  0.00    +0.000 OA
ENDROOT
BRANCH   1   3
ATOM      3  C   UNL     1       4.630   4.642  17.735  0.00  0.00    +0.000 A 
ATOM      4  C   UNL     1       3.877   3.685  16.892  0.00  0.00    +0.000 A 
ATOM      5  C   UNL     1       2.701   3.263  17.376  0.00  0.00    +0.000 A 
ATOM      6  C   UNL     1       2.119   3.873  18.590  0.00  0.00    +0.000 A 
ATOM      7  O   UNL     1       0.968   3.556  18.922  0.00  0.00    +0.000 OA
ATOM      8  N   UNL     1       2.893   4.829  19.228  0.00  0.00    +0.000 N 
ATOM      9  N   UNL     1       4.179   5.175  18.835  0.00  0.00    +0.000 NA
BRANCH   8  10
ATOM     10  C   UNL     1       2.276   5.676  20.253  0.00  0.00    +0.000 C 
BRANCH  10  11
ATOM     11  C   UNL     1       2.026   7.086  19.777  0.00  0.00    +0.000 A 
ATOM     12  C   UNL     1       1.501   8.034  20.668  0.00  0.00    +0.000 A 
ATOM     13  C   UNL     1       1.035   9.262  20.203  0.00  0.00    +0.000 A 
ATOM     14  C   UNL     1       1.175   9.591  18.859  0.00  0.00    +0.000 A 
ATOM     15  C   UNL     1       1.797   8.701  17.983  0.00  0.00    +0.000 A 
ATOM     16  C   UNL     1       2.202   7.442  18.433  0.00  0.00    +0.000 A 
ENDBRANCH  10  11
ENDBRANCH   8  10
ENDBRANCH   1   3
BRANCH   1  17
ATOM     17  O   UNL     1       6.284   6.364  17.642  0.00  0.00    +0.000 OA
BRANCH  17  19
ATOM     18  C   UNL     1       8.043   6.084  19.312  0.00  0.00    +0.000 C 
ATOM     19  C   UNL     1       7.659   6.655  17.934  0.00  0.00    +0.000 C 
BRANCH  19  20
ATOM     20  C   UNL     1       7.986   8.168  17.976  0.00  0.00    +0.000 C 
ATOM     21  O   UNL     1       7.421   8.925  17.169  0.00  0.00    +0.000 OA
ATOM     22  N   UNL     1       8.893   8.615  18.926  0.00  0.00    +0.000 N 
ATOM     23  H   UNL     1       9.564   7.935  19.263  0.00  0.00    +0.000 HD
BRANCH  22  24
ATOM     24  C   UNL     1       9.224   9.997  19.057  0.00  0.00    +0.000 A 
ATOM     25  C   UNL     1       9.765  10.732  17.989  0.00  0.00    +0.000 A 
ATOM     26  C   UNL     1      10.253  12.026  18.157  0.00  0.00    +0.000 A 
ATOM     27  C   UNL     1      10.219  12.607  19.415  0.00  0.00    +0.000 A 
ATOM     28  C   UNL     1       9.628  11.916  20.472  0.00  0.00    +0.000 A 
ATOM     29 CL   UNL     1       9.646  12.619  22.044  0.00  0.00    +0.000 Cl
ATOM     30  C   UNL     1       9.092  10.630  20.293  0.00  0.00    +0.000 A 
ENDBRANCH  22  24
ENDBRANCH  19  20
ENDBRANCH  17  19
ENDBRANCH   1  17
TORSDOF 7
ENDMDL
MODEL 5
REMARK VINA RESULT:      -8.0      3.991      7.307
REMARK  Name = 
REMARK  8 active torsions:
REMARK  status: ('A' for Active; 'I' for Inactive)
REMARK    1  A    between atoms: C_1  and  C_2
REMARK    2  A    between atoms: C_2  and  O_3
REMARK    3  A    between atoms: C_2  and  C_20
REMARK    4  A    between atoms: O_3  and  C_4
REMARK    5  A    between atoms: C_4  and  C_6
REMARK    6  A    between atoms: N_11  and  C_12
REMARK    7  A    between atoms: C_12  and  C_13
REMARK    8  A    between atoms: N_22  and  C_23
REMARK                            x       y       z     vdW  Elec       q    Type
REMARK                         _______ _______ _______ _____ _____    ______ ____
ROOT
ATOM      1  C   UNL     1       5.997   5.382  17.093  0.00  0.00    +0.000 C 
ATOM      2  O   UNL     1       6.643   4.677  16.315  0.00  0.00    +0.000 OA
ENDROOT
BRANCH   1   3
ATOM      3  C   UNL     1       4.642   4.916  17.637  0.00  0.00    +0.000 A 
ATOM      4  C   UNL     1       3.870   3.947  16.825  0.00  0.00    +0.000 A 
ATOM      5  C   UNL     1       2.711   3.524  17.346  0.00  0.00    +0.000 A 
ATOM      6  C   UNL     1       2.161   4.144  18.569  0.00  0.00    +0.000 A 
ATOM      7  O   UNL     1       1.021   3.825  18.937  0.00  0.00    +0.000 OA
ATOM      8  N   UNL     1       2.948   5.111  19.175  0.00  0.00    +0.000 N 
ATOM      9  N   UNL     1       4.221   5.458  18.743  0.00  0.00    +0.000 NA
BRANCH   8  10
ATOM     10  C   UNL     1       2.355   5.966  20.209  0.00  0.00    +0.000 C 
BRANCH  10  11
ATOM     11  C   UNL     1       2.036   7.354  19.711  0.00  0.00    +0.000 A 
ATOM     12  C   UNL     1       1.426   8.274  20.574  0.00  0.00    +0.000 A 
ATOM     13  C   UNL     1       0.901   9.469  20.082  0.00  0.00    +0.000 A 
ATOM     14  C   UNL     1       1.066   9.794  18.740  0.00  0.00    +0.000 A 
ATOM     15  C   UNL     1       1.769   8.936  17.893  0.00  0.00    +0.000 A 
ATOM     16  C   UNL     1       2.234   7.709  18.370  0.00  0.00    +0.000 A 
ENDBRANCH  10  11
ENDBRANCH   8  10
ENDBRANCH   1   3
BRANCH   1  17
ATOM     17  O   UNL     1       6.318   6.616  17.539  0.00  0.00    +0.000 OA
BRANCH  17  19
ATOM     18  C   UNL     1       8.089   6.157  19.156  0.00  0.00    +0.000 C 
ATOM     19  C   UNL     1       7.702   6.856  17.840  0.00  0.00    +0.000 C 
BRANCH  19  20
ATOM     20  C   UNL     1       8.058   8.353  18.012  0.00  0.00    +0.000 C 
ATOM     21  O   UNL     1       7.524   9.185  17.260  0.00  0.00    +0.000 OA
ATOM     22  N   UNL     1       8.956   8.701  19.011  0.00  0.00    +0.000 N 
ATOM     23  H   UNL     1       9.607   7.980  19.302  0.00  0.00    +0.000 HD
BRANCH  22  24
ATOM     24  C   UNL     1       9.312  10.059  19.261  0.00  0.00    +0.000 A 
ATOM     25  C   UNL     1       9.061  10.673  20.500  0.00  0.00    +0.000 A 
ATOM     26  C   UNL     1       9.242  12.041  20.695  0.00  0.00    +0.000 A 
ATOM     27  C   UNL     1       9.671  12.827  19.637  0.00  0.00    +0.000 A 
ATOM     28  C   UNL     1       9.985  12.224  18.420  0.00  0.00    +0.000 A 
ATOM     29 CL   UNL     1      10.458  13.215  17.093  0.00  0.00    +0.000 Cl
ATOM     30  C   UNL     1       9.850  10.838  18.236  0.00  0.00    +0.000 A 
ENDBRANCH  22  24
ENDBRANCH  19  20
ENDBRANCH  17  19
ENDBRANCH   1  17
TORSDOF 7
ENDMDL
MODEL 6
REMARK VINA RESULT:      -7.9      0.825      1.304
REMARK  Name = 
REMARK  8 active torsions:
REMARK  status: ('A' for Active; 'I' for Inactive)
REMARK    1  A    between atoms: C_1  and  C_2
REMARK    2  A    between atoms: C_2  and  O_3
REMARK    3  A    between atoms: C_2  and  C_20
REMARK    4  A    between atoms: O_3  and  C_4
REMARK    5  A    between atoms: C_4  and  C_6
REMARK    6  A    between atoms: N_11  and  C_12
REMARK    7  A    between atoms: C_12  and  C_13
REMARK    8  A    between atoms: N_22  and  C_23
REMARK                            x       y       z     vdW  Elec       q    Type
REMARK                         _______ _______ _______ _____ _____    ______ ____
ROOT
ATOM      1  C   UNL     1       4.667   3.213  19.384  0.00  0.00    +0.000 C 
ATOM      2  O   UNL     1       5.184   2.388  20.141  0.00  0.00    +0.000 OA
ENDROOT
BRANCH   1   3
ATOM      3  C   UNL     1       5.527   4.208  18.599  0.00  0.00    +0.000 A 
ATOM      4  C   UNL     1       6.608   4.910  19.329  0.00  0.00    +0.000 A 
ATOM      5  C   UNL     1       7.372   5.741  18.607  0.00  0.00    +0.000 A 
ATOM      6  C   UNL     1       7.020   6.068  17.209  0.00  0.00    +0.000 A 
ATOM      7  O   UNL     1       7.668   6.948  16.624  0.00  0.00    +0.000 OA
ATOM      8  N   UNL     1       5.923   5.407  16.680  0.00  0.00    +0.000 N 
ATOM      9  N   UNL     1       5.207   4.429  17.356  0.00  0.00    +0.000 NA
BRANCH   8  10
ATOM     10  C   UNL     1       5.345   5.884  15.420  0.00  0.00    +0.000 C 
BRANCH  10  11
ATOM     11  C   UNL     1       5.868   5.142  14.216  0.00  0.00    +0.000 A 
ATOM     12  C   UNL     1       5.099   4.117  13.647  0.00  0.00    +0.000 A 
ATOM     13  C   UNL     1       5.651   3.258  12.699  0.00  0.00    +0.000 A 
ATOM     14  C   UNL     1       6.948   3.474  12.242  0.00  0.00    +0.000 A 
ATOM     15  C   UNL     1       7.685   4.559  12.719  0.00  0.00    +0.000 A 
ATOM     16  C   UNL     1       7.157   5.378  13.720  0.00  0.00    +0.000 A 
ENDBRANCH  10  11
ENDBRANCH   8  10
ENDBRANCH   1   3
BRANCH   1  17
ATOM     17  O   UNL     1       3.348   3.406  19.162  0.00  0.00    +0.000 OA
BRANCH  17  19
ATOM     18  C   UNL     1       1.405   3.616  20.625  0.00  0.00    +0.000 C 
ATOM     19  C   UNL     1       2.665   4.296  20.058  0.00  0.00    +0.000 C 
BRANCH  19  20
ATOM     20  C   UNL     1       2.196   5.615  19.397  0.00  0.00    +0.000 C 
ATOM     21  O   UNL     1       1.771   5.581  18.229  0.00  0.00    +0.000 OA
ATOM     22  N   UNL     1       2.262   6.782  20.145  0.00  0.00    +0.000 N 
ATOM     23  H   UNL     1       2.942   6.796  20.896  0.00  0.00    +0.000 HD
BRANCH  22  24
ATOM     24  C   UNL     1       1.818   8.034  19.626  0.00  0.00    +0.000 A 
ATOM     25  C   UNL     1       2.242   8.507  18.372  0.00  0.00    +0.000 A 
ATOM     26  C   UNL     1       1.956   9.799  17.937  0.00  0.00    +0.000 A 
ATOM     27  C   UNL     1       1.243  10.653  18.764  0.00  0.00    +0.000 A 
ATOM     28  C   UNL     1       0.761  10.179  19.983  0.00  0.00    +0.000 A 
ATOM     29 CL   UNL     1      -0.070  11.264  21.032  0.00  0.00    +0.000 Cl
ATOM     30  C   UNL     1       1.006   8.861  20.403  0.00  0.00    +0.000 A 
ENDBRANCH  22  24
ENDBRANCH  19  20
ENDBRANCH  17  19
ENDBRANCH   1  17
TORSDOF 7
ENDMDL
MODEL 7
REMARK VINA RESULT:      -7.8      3.610      6.177
REMARK  Name = 
REMARK  8 active torsions:
REMARK  status: ('A' for Active; 'I' for Inactive)
REMARK    1  A    between atoms: C_1  and  C_2
REMARK    2  A    between atoms: C_2  and  O_3
REMARK    3  A    between atoms: C_2  and  C_20
REMARK    4  A    between atoms: O_3  and  C_4
REMARK    5  A    between atoms: C_4  and  C_6
REMARK    6  A    between atoms: N_11  and  C_12
REMARK    7  A    between atoms: C_12  and  C_13
REMARK    8  A    between atoms: N_22  and  C_23
REMARK                            x       y       z     vdW  Elec       q    Type
REMARK                         _______ _______ _______ _____ _____    ______ ____
ROOT
ATOM      1  C   UNL     1       2.224   8.357  18.129  0.00  0.00    +0.000 C 
ATOM      2  O   UNL     1       1.911   9.083  17.183  0.00  0.00    +0.000 OA
ENDROOT
BRANCH   1   3
ATOM      3  C   UNL     1       3.383   7.362  18.007  0.00  0.00    +0.000 A 
ATOM      4  C   UNL     1       4.180   7.382  16.759  0.00  0.00    +0.000 A 
ATOM      5  C   UNL     1       5.213   6.532  16.699  0.00  0.00    +0.000 A 
ATOM      6  C   UNL     1       5.413   5.510  17.747  0.00  0.00    +0.000 A 
ATOM      7  O   UNL     1       6.293   4.653  17.582  0.00  0.00    +0.000 OA
ATOM      8  N   UNL     1       4.531   5.545  18.816  0.00  0.00    +0.000 N 
ATOM      9  N   UNL     1       3.547   6.511  18.979  0.00  0.00    +0.000 NA
BRANCH   8  10
ATOM     10  C   UNL     1       4.482   4.403  19.735  0.00  0.00    +0.000 C 
BRANCH  10  11
ATOM     11  C   UNL     1       3.164   3.672  19.693  0.00  0.00    +0.000 A 
ATOM     12  C   UNL     1       2.790   2.987  18.528  0.00  0.00    +0.000 A 
ATOM     13  C   UNL     1       1.489   2.512  18.370  0.00  0.00    +0.000 A 
ATOM     14  C   UNL     1       0.577   2.637  19.413  0.00  0.00    +0.000 A 
ATOM     15  C   UNL     1       0.969   3.218  20.620  0.00  0.00    +0.000 A 
ATOM     16  C   UNL     1       2.251   3.755  20.754  0.00  0.00    +0.000 A 
ENDBRANCH  10  11
ENDBRANCH   8  10
ENDBRANCH   1   3
BRANCH   1  17
ATOM     17  O   UNL     1       1.621   8.279  19.336  0.00  0.00    +0.000 OA
BRANCH  17  19
ATOM     18  C   UNL     1       0.558   9.256  21.305  0.00  0.00    +0.000 C 
ATOM     19  C   UNL     1       1.212   9.518  19.936  0.00  0.00    +0.000 C 
BRANCH  19  20
ATOM     20  C   UNL     1       0.180  10.312  19.098  0.00  0.00    +0.000 C 
ATOM     21  O   UNL     1       0.460  11.471  18.748  0.00  0.00    +0.000 OA
ATOM     22  N   UNL     1      -1.013   9.687  18.765  0.00  0.00    +0.000 N 
ATOM     23  H   UNL     1      -1.315   8.939  19.379  0.00  0.00    +0.000 HD
BRANCH  22  24
ATOM     24  C   UNL     1      -2.003  10.333  17.966  0.00  0.00    +0.000 A 
ATOM     25  C   UNL     1      -3.001  11.141  18.537  0.00  0.00    +0.000 A 
ATOM     26  C   UNL     1      -4.070  11.629  17.789  0.00  0.00    +0.000 A 
ATOM     27  C   UNL     1      -4.165  11.303  16.445  0.00  0.00    +0.000 A 
ATOM     28  C   UNL     1      -3.150  10.555  15.850  0.00  0.00    +0.000 A 
ATOM     29 CL   UNL     1      -3.306  10.102  14.195  0.00  0.00    +0.000 Cl
ATOM     30  C   UNL     1      -2.046  10.103  16.591  0.00  0.00    +0.000 A 
ENDBRANCH  22  24
ENDBRANCH  19  20
ENDBRANCH  17  19
ENDBRANCH   1  17
TORSDOF 7
ENDMDL
MODEL 8
REMARK VINA RESULT:      -7.8      3.707      6.021
REMARK  Name = 
REMARK  8 active torsions:
REMARK  status: ('A' for Active; 'I' for Inactive)
REMARK    1  A    between atoms: C_1  and  C_2
REMARK    2  A    between atoms: C_2  and  O_3
REMARK    3  A    between atoms: C_2  and  C_20
REMARK    4  A    between atoms: O_3  and  C_4
REMARK    5  A    between atoms: C_4  and  C_6
REMARK    6  A    between atoms: N_11  and  C_12
REMARK    7  A    between atoms: C_12  and  C_13
REMARK    8  A    between atoms: N_22  and  C_23
REMARK                            x       y       z     vdW  Elec       q    Type
REMARK                         _______ _______ _______ _____ _____    ______ ____
ROOT
ATOM      1  C   UNL     1       1.563   8.175  20.395  0.00  0.00    +0.000 C 
ATOM      2  O   UNL     1       1.518   8.440  21.598  0.00  0.00    +0.000 OA
ENDROOT
BRANCH   1   3
ATOM      3  C   UNL     1       1.981   6.782  19.912  0.00  0.00    +0.000 A 
ATOM      4  C   UNL     1       1.638   5.624  20.769  0.00  0.00    +0.000 A 
ATOM      5  C   UNL     1       1.976   4.416  20.299  0.00  0.00    +0.000 A 
ATOM      6  C   UNL     1       2.812   4.282  19.088  0.00  0.00    +0.000 A 
ATOM      7  O   UNL     1       3.222   3.156  18.770  0.00  0.00    +0.000 OA
ATOM      8  N   UNL     1       3.142   5.459  18.436  0.00  0.00    +0.000 N 
ATOM      9  N   UNL     1       2.677   6.712  18.813  0.00  0.00    +0.000 NA
BRANCH   8  10
ATOM     10  C   UNL     1       4.191   5.435  17.412  0.00  0.00    +0.000 C 
BRANCH  10  11
ATOM     11  C   UNL     1       5.513   5.963  17.913  0.00  0.00    +0.000 A 
ATOM     12  C   UNL     1       6.136   7.021  17.235  0.00  0.00    +0.000 A 
ATOM     13  C   UNL     1       7.456   7.367  17.520  0.00  0.00    +0.000 A 
ATOM     14  C   UNL     1       8.133   6.720  18.548  0.00  0.00    +0.000 A 
ATOM     15  C   UNL     1       7.486   5.741  19.304  0.00  0.00    +0.000 A 
ATOM     16  C   UNL     1       6.188   5.346  18.974  0.00  0.00    +0.000 A 
ENDBRANCH  10  11
ENDBRANCH   8  10
ENDBRANCH   1   3
BRANCH   1  17
ATOM     17  O   UNL     1       1.318   9.011  19.362  0.00  0.00    +0.000 OA
BRANCH  17  19
ATOM     18  C   UNL     1      -0.658  10.114  18.443  0.00  0.00    +0.000 C 
ATOM     19  C   UNL     1       0.366  10.062  19.593  0.00  0.00    +0.000 C 
BRANCH  19  20
ATOM     20  C   UNL     1       0.997  11.472  19.689  0.00  0.00    +0.000 C 
ATOM     21  O   UNL     1       1.417  11.865  20.790  0.00  0.00    +0.000 OA
ATOM     22  N   UNL     1       1.074  12.235  18.532  0.00  0.00    +0.000 N 
ATOM     23  H   UNL     1       0.398  12.021  17.807  0.00  0.00    +0.000 HD
BRANCH  22  24
ATOM     24  C   UNL     1       1.672  13.530  18.524  0.00  0.00    +0.000 A 
ATOM     25  C   UNL     1       3.046  13.708  18.291  0.00  0.00    +0.000 A 
ATOM     26  C   UNL     1       3.667  14.944  18.455  0.00  0.00    +0.000 A 
ATOM     27  C   UNL     1       2.916  16.032  18.873  0.00  0.00    +0.000 A 
ATOM     28  C   UNL     1       1.541  15.887  19.048  0.00  0.00    +0.000 A 
ATOM     29 CL   UNL     1       0.625  17.227  19.627  0.00  0.00    +0.000 Cl
ATOM     30  C   UNL     1       0.904  14.653  18.835  0.00  0.00    +0.000 A 
ENDBRANCH  22  24
ENDBRANCH  19  20
ENDBRANCH  17  19
ENDBRANCH   1  17
TORSDOF 7
ENDMDL
MODEL 9
REMARK VINA RESULT:      -7.7      1.142      1.594
REMARK  Name = 
REMARK  8 active torsions:
REMARK  status: ('A' for Active; 'I' for Inactive)
REMARK    1  A    between atoms: C_1  and  C_2
REMARK    2  A    between atoms: C_2  and  O_3
REMARK    3  A    between atoms: C_2  and  C_20
REMARK    4  A    between atoms: O_3  and  C_4
REMARK    5  A    between atoms: C_4  and  C_6
REMARK    6  A    between atoms: N_11  and  C_12
REMARK    7  A    between atoms: C_12  and  C_13
REMARK    8  A    between atoms: N_22  and  C_23
REMARK                            x       y       z     vdW  Elec       q    Type
REMARK                         _______ _______ _______ _____ _____    ______ ____
ROOT
ATOM      1  C   UNL     1       2.552   3.366  18.348  0.00  0.00    +0.000 C 
ATOM      2  O   UNL     1       1.612   3.546  17.572  0.00  0.00    +0.000 OA
ENDROOT
BRANCH   1   3
ATOM      3  C   UNL     1       3.955   3.885  18.018  0.00  0.00    +0.000 A 
ATOM      4  C   UNL     1       4.945   3.943  19.118  0.00  0.00    +0.000 A 
ATOM      5  C   UNL     1       6.175   4.359  18.790  0.00  0.00    +0.000 A 
ATOM      6  C   UNL     1       6.456   4.905  17.446  0.00  0.00    +0.000 A 
ATOM      7  O   UNL     1       7.567   5.411  17.230  0.00  0.00    +0.000 OA
ATOM      8  N   UNL     1       5.407   4.879  16.541  0.00  0.00    +0.000 N 
ATOM      9  N   UNL     1       4.167   4.313  16.806  0.00  0.00    +0.000 NA
BRANCH   8  10
ATOM     10  C   UNL     1       5.517   5.655  15.302  0.00  0.00    +0.000 C 
BRANCH  10  11
ATOM     11  C   UNL     1       6.057   4.845  14.148  0.00  0.00    +0.000 A 
ATOM     12  C   UNL     1       7.322   5.146  13.624  0.00  0.00    +0.000 A 
ATOM     13  C   UNL     1       7.742   4.588  12.418  0.00  0.00    +0.000 A 
ATOM     14  C   UNL     1       6.939   3.652  11.773  0.00  0.00    +0.000 A 
ATOM     15  C   UNL     1       5.726   3.262  12.342  0.00  0.00    +0.000 A 
ATOM     16  C   UNL     1       5.273   3.872  13.514  0.00  0.00    +0.000 A 
ENDBRANCH  10  11
ENDBRANCH   8  10
ENDBRANCH   1   3
BRANCH   1  17
ATOM     17  O   UNL     1       2.530   2.692  19.519  0.00  0.00    +0.000 OA
BRANCH  17  19
ATOM     18  C   UNL     1       1.771   2.702  21.840  0.00  0.00    +0.000 C 
ATOM     19  C   UNL     1       2.484   3.480  20.719  0.00  0.00    +0.000 C 
BRANCH  19  20
ATOM     20  C   UNL     1       1.728   4.822  20.561  0.00  0.00    +0.000 C 
ATOM     21  O   UNL     1       0.497   4.799  20.396  0.00  0.00    +0.000 OA
ATOM     22  N   UNL     1       2.463   5.998  20.620  0.00  0.00    +0.000 N 
ATOM     23  H   UNL     1       3.444   5.928  20.376  0.00  0.00    +0.000 HD
BRANCH  22  24
ATOM     24  C   UNL     1       1.842   7.279  20.520  0.00  0.00    +0.000 A 
ATOM     25  C   UNL     1       0.966   7.755  21.510  0.00  0.00    +0.000 A 
ATOM     26  C   UNL     1       0.222   8.920  21.337  0.00  0.00    +0.000 A 
ATOM     27  C   UNL     1       0.334   9.628  20.151  0.00  0.00    +0.000 A 
ATOM     28  C   UNL     1       1.245   9.204  19.184  0.00  0.00    +0.000 A 
ATOM     29 CL   UNL     1       1.333  10.054  17.689  0.00  0.00    +0.000 Cl
ATOM     30  C   UNL     1       2.032   8.057  19.378  0.00  0.00    +0.000 A 
ENDBRANCH  22  24
ENDBRANCH  19  20
ENDBRANCH  17  19
ENDBRANCH   1  17
TORSDOF 7
ENDMDL
