MODEL 1
REMARK VINA RESULT:      -7.4      0.000      0.000
REMARK  Name = 
REMARK  5 active torsions:
REMARK  status: ('A' for Active; 'I' for Inactive)
REMARK    1  A    between atoms: C_1  and  C_2
REMARK    2  A    between atoms: C_2  and  C_4
REMARK    3  A    between atoms: C_4  and  C_5
REMARK    4  A    between atoms: C_14  and  O_15
REMARK    5  A    between atoms: C_18  and  C_19
REMARK                            x       y       z     vdW  Elec       q    Type
REMARK                         _______ _______ _______ _____ _____    ______ ____
ROOT
ATOM      1  C   UNL     1       6.419   5.327  17.105  0.00  0.00    +0.000 C 
ATOM      2  C   UNL     1       7.046   5.712  15.754  0.00  0.00    +0.000 C 
ATOM      3  C   UNL     1       5.565   4.086  16.890  0.00  0.00    +0.000 C 
ATOM      4  C   UNL     1       4.249   4.385  16.200  0.00  0.00    +0.000 C 
ATOM      5  C   UNL     1       3.316   5.084  17.174  0.00  0.00    +0.000 C 
ATOM      6  C   UNL     1       3.975   6.409  17.659  0.00  0.00    +0.000 C 
ATOM      7  C   UNL     1       3.272   7.065  18.881  0.00  0.00    +0.000 C 
ATOM      8  C   UNL     1       2.186   6.222  19.558  0.00  0.00    +0.000 C 
ATOM      9  C   UNL     1       2.625   4.763  19.632  0.00  0.00    +0.000 C 
ATOM     10  C   UNL     1       1.833   3.927  20.655  0.00  0.00    +0.000 C 
ATOM     11  C   UNL     1       2.405   2.507  20.798  0.00  0.00    +0.000 C 
ATOM     12  C   UNL     1       2.578   1.790  19.460  0.00  0.00    +0.000 C 
ATOM     13  C   UNL     1       3.256   2.682  18.416  0.00  0.00    +0.000 C 
ATOM     14  C   UNL     1       2.626   4.105  18.232  0.00  0.00    +0.000 C 
ATOM     15  C   UNL     1       1.188   3.857  17.675  0.00  0.00    +0.000 C 
ATOM     16  C   UNL     1       5.549   6.474  17.736  0.00  0.00    +0.000 C 
ENDROOT
BRANCH   1  18
ATOM     17  C   UNL     1       7.645   5.581  19.436  0.00  0.00    +0.000 C 
ATOM     18  C   UNL     1       7.559   4.906  18.082  0.00  0.00    +0.000 C 
ATOM     19  O   UNL     1       8.410   4.061  17.786  0.00  0.00    +0.000 OA
ENDBRANCH   1  18
BRANCH  11  20
ATOM     20  O   UNL     1       3.660   2.558  21.477  0.00  0.00    +0.000 OA
ATOM     21  H   UNL     1       4.006   1.653  21.592  0.00  0.00    +0.000 HD
ENDBRANCH  11  20
TORSDOF 2
ENDMDL
MODEL 2
REMARK VINA RESULT:      -7.3      1.921      5.328
REMARK  Name = 
REMARK  5 active torsions:
REMARK  status: ('A' for Active; 'I' for Inactive)
REMARK    1  A    between atoms: C_1  and  C_2
REMARK    2  A    between atoms: C_2  and  C_4
REMARK    3  A    between atoms: C_4  and  C_5
REMARK    4  A    between atoms: C_14  and  O_15
REMARK    5  A    between atoms: C_18  and  C_19
REMARK                            x       y       z     vdW  Elec       q    Type
REMARK                         _______ _______ _______ _____ _____    ______ ____
ROOT
ATOM      1  C   UNL     1       2.381   3.450  19.632  0.00  0.00    +0.000 C 
ATOM      2  C   UNL     1       2.082   3.031  21.082  0.00  0.00    +0.000 C 
ATOM      3  C   UNL     1       3.859   3.206  19.368  0.00  0.00    +0.000 C 
ATOM      4  C   UNL     1       4.756   4.248  20.007  0.00  0.00    +0.000 C 
ATOM      5  C   UNL     1       4.643   5.552  19.234  0.00  0.00    +0.000 C 
ATOM      6  C   UNL     1       3.164   6.037  19.255  0.00  0.00    +0.000 C 
ATOM      7  C   UNL     1       2.852   7.186  18.254  0.00  0.00    +0.000 C 
ATOM      8  C   UNL     1       3.966   7.522  17.255  0.00  0.00    +0.000 C 
ATOM      9  C   UNL     1       4.625   6.241  16.756  0.00  0.00    +0.000 C 
ATOM     10  C   UNL     1       5.433   6.424  15.457  0.00  0.00    +0.000 C 
ATOM     11  C   UNL     1       5.955   5.084  14.915  0.00  0.00    +0.000 C 
ATOM     12  C   UNL     1       6.703   4.260  15.962  0.00  0.00    +0.000 C 
ATOM     13  C   UNL     1       5.941   4.193  17.288  0.00  0.00    +0.000 C 
ATOM     14  C   UNL     1       5.468   5.571  17.866  0.00  0.00    +0.000 C 
ATOM     15  C   UNL     1       6.777   6.359  18.194  0.00  0.00    +0.000 C 
ATOM     16  C   UNL     1       2.023   4.951  19.332  0.00  0.00    +0.000 C 
ENDROOT
BRANCH   1  18
ATOM     17  C   UNL     1       2.333   1.915  17.478  0.00  0.00    +0.000 C 
ATOM     18  C   UNL     1       1.604   2.501  18.668  0.00  0.00    +0.000 C 
ATOM     19  O   UNL     1       0.410   2.228  18.826  0.00  0.00    +0.000 OA
ENDBRANCH   1  18
BRANCH  11  20
ATOM     20  O   UNL     1       4.869   4.318  14.393  0.00  0.00    +0.000 OA
ATOM     21  H   UNL     1       4.703   3.551  14.972  0.00  0.00    +0.000 HD
ENDBRANCH  11  20
TORSDOF 2
ENDMDL
MODEL 3
REMARK VINA RESULT:      -7.1      1.078      5.200
REMARK  Name = 
REMARK  5 active torsions:
REMARK  status: ('A' for Active; 'I' for Inactive)
REMARK    1  A    between atoms: C_1  and  C_2
REMARK    2  A    between atoms: C_2  and  C_4
REMARK    3  A    between atoms: C_4  and  C_5
REMARK    4  A    between atoms: C_14  and  O_15
REMARK    5  A    between atoms: C_18  and  C_19
REMARK                            x       y       z     vdW  Elec       q    Type
REMARK                         _______ _______ _______ _____ _____    ______ ____
ROOT
ATOM      1  C   UNL     1       2.380   3.721  20.052  0.00  0.00    +0.000 C 
ATOM      2  C   UNL     1       1.010   4.031  20.681  0.00  0.00    +0.000 C 
ATOM      3  C   UNL     1       3.196   5.005  20.049  0.00  0.00    +0.000 C 
ATOM      4  C   UNL     1       2.761   5.981  18.973  0.00  0.00    +0.000 C 
ATOM      5  C   UNL     1       3.214   5.471  17.616  0.00  0.00    +0.000 C 
ATOM      6  C   UNL     1       2.581   4.073  17.353  0.00  0.00    +0.000 C 
ATOM      7  C   UNL     1       3.197   3.306  16.149  0.00  0.00    +0.000 C 
ATOM      8  C   UNL     1       4.460   3.926  15.539  0.00  0.00    +0.000 C 
ATOM      9  C   UNL     1       5.368   4.456  16.643  0.00  0.00    +0.000 C 
ATOM     10  C   UNL     1       6.822   4.694  16.191  0.00  0.00    +0.000 C 
ATOM     11  C   UNL     1       7.729   5.087  17.367  0.00  0.00    +0.000 C 
ATOM     12  C   UNL     1       7.174   6.245  18.195  0.00  0.00    +0.000 C 
ATOM     13  C   UNL     1       5.693   6.050  18.530  0.00  0.00    +0.000 C 
ATOM     14  C   UNL     1       4.764   5.712  17.314  0.00  0.00    +0.000 C 
ATOM     15  C   UNL     1       4.805   6.973  16.392  0.00  0.00    +0.000 C 
ATOM     16  C   UNL     1       2.278   3.146  18.592  0.00  0.00    +0.000 C 
ENDROOT
BRANCH   1  18
ATOM     17  C   UNL     1       4.396   2.058  20.458  0.00  0.00    +0.000 C 
ATOM     18  C   UNL     1       3.140   2.724  20.979  0.00  0.00    +0.000 C 
ATOM     19  O   UNL     1       2.744   2.439  22.113  0.00  0.00    +0.000 OA
ENDBRANCH   1  18
BRANCH  11  20
ATOM     20  O   UNL     1       7.943   3.956  18.212  0.00  0.00    +0.000 OA
ATOM     21  H   UNL     1       7.923   4.238  19.146  0.00  0.00    +0.000 HD
ENDBRANCH  11  20
TORSDOF 2
ENDMDL
MODEL 4
REMARK VINA RESULT:      -6.8      1.283      1.485
REMARK  Name = 
REMARK  5 active torsions:
REMARK  status: ('A' for Active; 'I' for Inactive)
REMARK    1  A    between atoms: C_1  and  C_2
REMARK    2  A    between atoms: C_2  and  C_4
REMARK    3  A    between atoms: C_4  and  C_5
REMARK    4  A    between atoms: C_14  and  O_15
REMARK    5  A    between atoms: C_18  and  C_19
REMARK                            x       y       z     vdW  Elec       q    Type
REMARK                         _______ _______ _______ _____ _____    ______ ____
ROOT
ATOM      1  C   UNL     1       5.256   5.925  16.663  0.00  0.00    +0.000 C 
ATOM      2  C   UNL     1       5.206   6.577  15.270  0.00  0.00    +0.000 C 
ATOM      3  C   UNL     1       4.828   4.473  16.517  0.00  0.00    +0.000 C 
ATOM      4  C   UNL     1       3.331   4.311  16.336  0.00  0.00    +0.000 C 
ATOM      5  C   UNL     1       2.631   4.578  17.657  0.00  0.00    +0.000 C 
ATOM      6  C   UNL     1       2.956   6.026  18.130  0.00  0.00    +0.000 C 
ATOM      7  C   UNL     1       2.560   6.324  19.604  0.00  0.00    +0.000 C 
ATOM      8  C   UNL     1       2.115   5.113  20.433  0.00  0.00    +0.000 C 
ATOM      9  C   UNL     1       2.995   3.909  20.115  0.00  0.00    +0.000 C 
ATOM     10  C   UNL     1       2.929   2.794  21.176  0.00  0.00    +0.000 C 
ATOM     11  C   UNL     1       3.937   1.671  20.888  0.00  0.00    +0.000 C 
ATOM     12  C   UNL     1       3.847   1.131  19.462  0.00  0.00    +0.000 C 
ATOM     13  C   UNL     1       3.788   2.257  18.427  0.00  0.00    +0.000 C 
ATOM     14  C   UNL     1       2.713   3.366  18.694  0.00  0.00    +0.000 C 
ATOM     15  C   UNL     1       1.332   2.644  18.583  0.00  0.00    +0.000 C 
ATOM     16  C   UNL     1       4.346   6.650  17.721  0.00  0.00    +0.000 C 
ENDROOT
BRANCH   1  18
ATOM     17  C   UNL     1       7.134   4.905  18.222  0.00  0.00    +0.000 C 
ATOM     18  C   UNL     1       6.738   5.896  17.147  0.00  0.00    +0.000 C 
ATOM     19  O   UNL     1       7.596   6.666  16.705  0.00  0.00    +0.000 OA
ENDBRANCH   1  18
BRANCH  11  20
ATOM     20  O   UNL     1       5.264   2.137  21.139  0.00  0.00    +0.000 OA
ATOM     21  H   UNL     1       5.735   1.492  21.700  0.00  0.00    +0.000 HD
ENDBRANCH  11  20
TORSDOF 2
ENDMDL
MODEL 5
REMARK VINA RESULT:      -6.7      1.112      1.233
REMARK  Name = 
REMARK  5 active torsions:
REMARK  status: ('A' for Active; 'I' for Inactive)
REMARK    1  A    between atoms: C_1  and  C_2
REMARK    2  A    between atoms: C_2  and  C_4
REMARK    3  A    between atoms: C_4  and  C_5
REMARK    4  A    between atoms: C_14  and  O_15
REMARK    5  A    between atoms: C_18  and  C_19
REMARK                            x       y       z     vdW  Elec       q    Type
REMARK                         _______ _______ _______ _____ _____    ______ ____
ROOT
ATOM      1  C   UNL     1       6.515   5.689  17.659  0.00  0.00    +0.000 C 
ATOM      2  C   UNL     1       7.451   5.609  16.441  0.00  0.00    +0.000 C 
ATOM      3  C   UNL     1       5.808   4.349  17.796  0.00  0.00    +0.000 C 
ATOM      4  C   UNL     1       4.703   4.154  16.777  0.00  0.00    +0.000 C 
ATOM      5  C   UNL     1       3.516   5.027  17.147  0.00  0.00    +0.000 C 
ATOM      6  C   UNL     1       3.961   6.519  17.170  0.00  0.00    +0.000 C 
ATOM      7  C   UNL     1       2.933   7.484  17.827  0.00  0.00    +0.000 C 
ATOM      8  C   UNL     1       1.751   6.817  18.539  0.00  0.00    +0.000 C 
ATOM      9  C   UNL     1       2.227   5.585  19.302  0.00  0.00    +0.000 C 
ATOM     10  C   UNL     1       1.239   5.103  20.382  0.00  0.00    +0.000 C 
ATOM     11  C   UNL     1       1.823   3.954  21.219  0.00  0.00    +0.000 C 
ATOM     12  C   UNL     1       2.372   2.809  20.371  0.00  0.00    +0.000 C 
ATOM     13  C   UNL     1       3.253   3.316  19.226  0.00  0.00    +0.000 C 
ATOM     14  C   UNL     1       2.624   4.444  18.337  0.00  0.00    +0.000 C 
ATOM     15  C   UNL     1       1.393   3.785  17.636  0.00  0.00    +0.000 C 
ATOM     16  C   UNL     1       5.455   6.846  17.554  0.00  0.00    +0.000 C 
ENDROOT
BRANCH   1  18
ATOM     17  C   UNL     1       8.388   6.987  19.001  0.00  0.00    +0.000 C 
ATOM     18  C   UNL     1       7.381   5.858  18.944  0.00  0.00    +0.000 C 
ATOM     19  O   UNL     1       7.294   5.092  19.909  0.00  0.00    +0.000 OA
ENDBRANCH   1  18
BRANCH  11  20
ATOM     20  O   UNL     1       2.855   4.454  22.071  0.00  0.00    +0.000 OA
ATOM     21  H   UNL     1       3.657   3.910  21.965  0.00  0.00    +0.000 HD
ENDBRANCH  11  20
TORSDOF 2
ENDMDL
MODEL 6
REMARK VINA RESULT:      -6.6      1.169      1.325
REMARK  Name = 
REMARK  5 active torsions:
REMARK  status: ('A' for Active; 'I' for Inactive)
REMARK    1  A    between atoms: C_1  and  C_2
REMARK    2  A    between atoms: C_2  and  C_4
REMARK    3  A    between atoms: C_4  and  C_5
REMARK    4  A    between atoms: C_14  and  O_15
REMARK    5  A    between atoms: C_18  and  C_19
REMARK                            x       y       z     vdW  Elec       q    Type
REMARK                         _______ _______ _______ _____ _____    ______ ____
ROOT
ATOM      1  C   UNL     1       5.289   5.238  17.293  0.00  0.00    +0.000 C 
ATOM      2  C   UNL     1       5.673   5.673  15.868  0.00  0.00    +0.000 C 
ATOM      3  C   UNL     1       4.538   3.918  17.194  0.00  0.00    +0.000 C 
ATOM      4  C   UNL     1       3.113   4.081  16.703  0.00  0.00    +0.000 C 
ATOM      5  C   UNL     1       2.267   4.693  17.806  0.00  0.00    +0.000 C 
ATOM      6  C   UNL     1       2.855   6.080  18.199  0.00  0.00    +0.000 C 
ATOM      7  C   UNL     1       2.275   6.673  19.514  0.00  0.00    +0.000 C 
ATOM      8  C   UNL     1       1.385   5.733  20.336  0.00  0.00    +0.000 C 
ATOM      9  C   UNL     1       1.972   4.325  20.336  0.00  0.00    +0.000 C 
ATOM     10  C   UNL     1       1.422   3.423  21.457  0.00  0.00    +0.000 C 
ATOM     11  C   UNL     1       2.145   2.068  21.507  0.00  0.00    +0.000 C 
ATOM     12  C   UNL     1       2.193   1.360  20.153  0.00  0.00    +0.000 C 
ATOM     13  C   UNL     1       2.622   2.306  19.029  0.00  0.00    +0.000 C 
ATOM     14  C   UNL     1       1.836   3.659  18.946  0.00  0.00    +0.000 C 
ATOM     15  C   UNL     1       0.363   3.267  18.601  0.00  0.00    +0.000 C 
ATOM     16  C   UNL     1       4.410   6.300  18.050  0.00  0.00    +0.000 C 
ENDROOT
BRANCH   1  18
ATOM     17  C   UNL     1       7.819   4.468  17.338  0.00  0.00    +0.000 C 
ATOM     18  C   UNL     1       6.593   4.939  18.092  0.00  0.00    +0.000 C 
ATOM     19  O   UNL     1       6.658   5.049  19.321  0.00  0.00    +0.000 OA
ENDBRANCH   1  18
BRANCH  11  20
ATOM     20  O   UNL     1       3.473   2.247  21.998  0.00  0.00    +0.000 OA
ATOM     21  H   UNL     1       3.443   2.461  22.950  0.00  0.00    +0.000 HD
ENDBRANCH  11  20
TORSDOF 2
ENDMDL
MODEL 7
REMARK VINA RESULT:      -6.0      9.489     12.106
REMARK  Name = 
REMARK  5 active torsions:
REMARK  status: ('A' for Active; 'I' for Inactive)
REMARK    1  A    between atoms: C_1  and  C_2
REMARK    2  A    between atoms: C_2  and  C_4
REMARK    3  A    between atoms: C_4  and  C_5
REMARK    4  A    between atoms: C_14  and  O_15
REMARK    5  A    between atoms: C_18  and  C_19
REMARK                            x       y       z     vdW  Elec       q    Type
REMARK                         _______ _______ _______ _____ _____    ______ ____
ROOT
ATOM      1  C   UNL     1       9.380  16.726  19.369  0.00  0.00    +0.000 C 
ATOM      2  C   UNL     1       9.647  18.012  20.171  0.00  0.00    +0.000 C 
ATOM      3  C   UNL     1       9.405  15.554  20.339  0.00  0.00    +0.000 C 
ATOM      4  C   UNL     1      10.808  15.169  20.767  0.00  0.00    +0.000 C 
ATOM      5  C   UNL     1      11.512  14.471  19.616  0.00  0.00    +0.000 C 
ATOM      6  C   UNL     1      11.574  15.431  18.391  0.00  0.00    +0.000 C 
ATOM      7  C   UNL     1      11.990  14.744  17.059  0.00  0.00    +0.000 C 
ATOM      8  C   UNL     1      12.066  13.213  17.092  0.00  0.00    +0.000 C 
ATOM      9  C   UNL     1      10.905  12.649  17.904  0.00  0.00    +0.000 C 
ATOM     10  C   UNL     1      10.634  11.154  17.645  0.00  0.00    +0.000 C 
ATOM     11  C   UNL     1       9.370  10.668  18.371  0.00  0.00    +0.000 C 
ATOM     12  C   UNL     1       9.356  11.019  19.858  0.00  0.00    +0.000 C 
ATOM     13  C   UNL     1       9.749  12.478  20.104  0.00  0.00    +0.000 C 
ATOM     14  C   UNL     1      11.074  12.948  19.412  0.00  0.00    +0.000 C 
ATOM     15  C   UNL     1      12.213  12.108  20.074  0.00  0.00    +0.000 C 
ATOM     16  C   UNL     1      10.417  16.488  18.213  0.00  0.00    +0.000 C 
ENDROOT
BRANCH   1  18
ATOM     17  C   UNL     1       7.296  15.512  18.283  0.00  0.00    +0.000 C 
ATOM     18  C   UNL     1       7.930  16.787  18.798  0.00  0.00    +0.000 C 
ATOM     19  O   UNL     1       7.288  17.839  18.727  0.00  0.00    +0.000 OA
ENDBRANCH   1  18
BRANCH  11  20
ATOM     20  O   UNL     1       8.211  11.215  17.741  0.00  0.00    +0.000 OA
ATOM     21  H   UNL     1       8.265  11.072  16.777  0.00  0.00    +0.000 HD
ENDBRANCH  11  20
TORSDOF 2
ENDMDL
MODEL 8
REMARK VINA RESULT:      -5.8      9.411     11.770
REMARK  Name = 
REMARK  5 active torsions:
REMARK  status: ('A' for Active; 'I' for Inactive)
REMARK    1  A    between atoms: C_1  and  C_2
REMARK    2  A    between atoms: C_2  and  C_4
REMARK    3  A    between atoms: C_4  and  C_5
REMARK    4  A    between atoms: C_14  and  O_15
REMARK    5  A    between atoms: C_18  and  C_19
REMARK                            x       y       z     vdW  Elec       q    Type
REMARK                         _______ _______ _______ _____ _____    ______ ____
ROOT
ATOM      1  C   UNL     1       8.727  16.815  20.075  0.00  0.00    +0.000 C 
ATOM      2  C   UNL     1       8.878  18.322  19.806  0.00  0.00    +0.000 C 
ATOM      3  C   UNL     1      10.104  16.178  19.969  0.00  0.00    +0.000 C 
ATOM      4  C   UNL     1      10.577  16.022  18.537  0.00  0.00    +0.000 C 
ATOM      5  C   UNL     1       9.803  14.899  17.869  0.00  0.00    +0.000 C 
ATOM      6  C   UNL     1       8.283  15.234  17.894  0.00  0.00    +0.000 C 
ATOM      7  C   UNL     1       7.356  14.041  17.524  0.00  0.00    +0.000 C 
ATOM      8  C   UNL     1       8.043  12.676  17.403  0.00  0.00    +0.000 C 
ATOM      9  C   UNL     1       9.082  12.512  18.507  0.00  0.00    +0.000 C 
ATOM     10  C   UNL     1       9.509  11.052  18.746  0.00  0.00    +0.000 C 
ATOM     11  C   UNL     1      10.444  10.921  19.959  0.00  0.00    +0.000 C 
ATOM     12  C   UNL     1      11.631  11.881  19.911  0.00  0.00    +0.000 C 
ATOM     13  C   UNL     1      11.202  13.305  19.549  0.00  0.00    +0.000 C 
ATOM     14  C   UNL     1      10.301  13.435  18.273  0.00  0.00    +0.000 C 
ATOM     15  C   UNL     1      11.196  12.969  17.080  0.00  0.00    +0.000 C 
ATOM     16  C   UNL     1       7.730  16.105  19.088  0.00  0.00    +0.000 C 
ENDROOT
BRANCH   1  18
ATOM     17  C   UNL     1       8.596  15.311  22.247  0.00  0.00    +0.000 C 
ATOM     18  C   UNL     1       8.267  16.615  21.551  0.00  0.00    +0.000 C 
ATOM     19  O   UNL     1       7.625  17.471  22.168  0.00  0.00    +0.000 OA
ENDBRANCH   1  18
BRANCH  11  20
ATOM     20  O   UNL     1       9.705  11.136  21.163  0.00  0.00    +0.000 OA
ATOM     21  H   UNL     1       9.804  12.065  21.444  0.00  0.00    +0.000 HD
ENDBRANCH  11  20
TORSDOF 2
ENDMDL
MODEL 9
REMARK VINA RESULT:      -5.7      8.943     11.567
REMARK  Name = 
REMARK  5 active torsions:
REMARK  status: ('A' for Active; 'I' for Inactive)
REMARK    1  A    between atoms: C_1  and  C_2
REMARK    2  A    between atoms: C_2  and  C_4
REMARK    3  A    between atoms: C_4  and  C_5
REMARK    4  A    between atoms: C_14  and  O_15
REMARK    5  A    between atoms: C_18  and  C_19
REMARK                            x       y       z     vdW  Elec       q    Type
REMARK                         _______ _______ _______ _____ _____    ______ ____
ROOT
ATOM      1  C   UNL     1       7.808  16.219  19.278  0.00  0.00    +0.000 C 
ATOM      2  C   UNL     1       7.726  17.557  20.032  0.00  0.00    +0.000 C 
ATOM      3  C   UNL     1       8.159  15.133  20.284  0.00  0.00    +0.000 C 
ATOM      4  C   UNL     1       9.618  15.156  20.698  0.00  0.00    +0.000 C 
ATOM      5  C   UNL     1      10.473  14.633  19.557  0.00  0.00    +0.000 C 
ATOM      6  C   UNL     1      10.262  15.529  18.301  0.00  0.00    +0.000 C 
ATOM      7  C   UNL     1      10.836  14.933  16.984  0.00  0.00    +0.000 C 
ATOM      8  C   UNL     1      11.323  13.481  17.066  0.00  0.00    +0.000 C 
ATOM      9  C   UNL     1      10.365  12.654  17.916  0.00  0.00    +0.000 C 
ATOM     10  C   UNL     1      10.507  11.134  17.711  0.00  0.00    +0.000 C 
ATOM     11  C   UNL     1       9.428  10.351  18.476  0.00  0.00    +0.000 C 
ATOM     12  C   UNL     1       9.334  10.739  19.951  0.00  0.00    +0.000 C 
ATOM     13  C   UNL     1       9.320  12.258  20.143  0.00  0.00    +0.000 C 
ATOM     14  C   UNL     1      10.462  13.042  19.411  0.00  0.00    +0.000 C 
ATOM     15  C   UNL     1      11.792  12.565  20.078  0.00  0.00    +0.000 C 
ATOM     16  C   UNL     1       8.861  16.228  18.110  0.00  0.00    +0.000 C 
ENDROOT
BRANCH   1  18
ATOM     17  C   UNL     1       6.239  14.661  17.826  0.00  0.00    +0.000 C 
ATOM     18  C   UNL     1       6.392  15.865  18.732  0.00  0.00    +0.000 C 
ATOM     19  O   UNL     1       5.392  16.544  18.990  0.00  0.00    +0.000 OA
ENDBRANCH   1  18
BRANCH  11  20
ATOM     20  O   UNL     1       8.158  10.542  17.851  0.00  0.00    +0.000 OA
ATOM     21  H   UNL     1       7.495   9.968  18.278  0.00  0.00    +0.000 HD
ENDBRANCH  11  20
TORSDOF 2
ENDMDL
