MODEL 1
REMARK VINA RESULT:      -7.9      0.000      0.000
REMARK  Name = 
REMARK  3 active torsions:
REMARK  status: ('A' for Active; 'I' for Inactive)
REMARK    1  A    between atoms: C_1  and  C_2
REMARK    2  A    between atoms: C_7  and  C_8
REMARK    3  A    between atoms: C_8  and  N_9
REMARK                            x       y       z     vdW  Elec       q    Type
REMARK                         _______ _______ _______ _____ _____    ______ ____
ROOT
ATOM      1  N   UNL     1       2.817   5.982  18.713  0.00  0.00    +0.000 N 
ATOM      2  C   UNL     1       3.869   5.848  17.789  0.00  0.00    +0.000 C 
ATOM      3  N   UNL     1       4.767   6.725  17.488  0.00  0.00    +0.000 NA
ATOM      4  C   UNL     1       5.796   6.288  16.525  0.00  0.00    +0.000 C 
ATOM      5  C   UNL     1       5.320   5.195  15.571  0.00  0.00    +0.000 C 
ATOM      6  C   UNL     1       4.777   4.021  16.372  0.00  0.00    +0.000 C 
ATOM      7  N   UNL     1       3.804   4.550  17.283  0.00  0.00    +0.000 N 
ATOM      8  C   UNL     1       2.842   3.830  17.970  0.00  0.00    +0.000 A 
ATOM      9  C   UNL     1       2.487   2.499  17.902  0.00  0.00    +0.000 A 
ATOM     10  C   UNL     1       1.461   2.055  18.740  0.00  0.00    +0.000 A 
ATOM     11  C   UNL     1       0.821   2.941  19.622  0.00  0.00    +0.000 A 
ATOM     12  C   UNL     1       1.202   4.283  19.694  0.00  0.00    +0.000 A 
ATOM     13  C   UNL     1       2.215   4.723  18.868  0.00  0.00    +0.000 A 
ENDROOT
BRANCH   1  14
ATOM     14  C   UNL     1       2.767   6.995  19.753  0.00  0.00    +0.000 C 
BRANCH  14  21
ATOM     15  C   UNL     1       1.118   8.549  21.864  0.00  0.00    +0.000 C 
ATOM     16  C   UNL     1       1.078   8.856  20.394  0.00  0.00    +0.000 A 
ATOM     17  C   UNL     1       0.221   9.893  19.975  0.00  0.00    +0.000 A 
ATOM     18  C   UNL     1       0.139  10.266  18.636  0.00  0.00    +0.000 A 
ATOM     19  C   UNL     1       0.902   9.598  17.688  0.00  0.00    +0.000 A 
ATOM     20  C   UNL     1       1.728   8.544  18.079  0.00  0.00    +0.000 A 
ATOM     21  C   UNL     1       1.828   8.146  19.428  0.00  0.00    +0.000 A 
ENDBRANCH  14  21
ENDBRANCH   1  14
TORSDOF 2
ENDMDL
MODEL 2
REMARK VINA RESULT:      -7.8      1.935      5.669
REMARK  Name = 
REMARK  3 active torsions:
REMARK  status: ('A' for Active; 'I' for Inactive)
REMARK    1  A    between atoms: C_1  and  C_2
REMARK    2  A    between atoms: C_7  and  C_8
REMARK    3  A    between atoms: C_8  and  N_9
REMARK                            x       y       z     vdW  Elec       q    Type
REMARK                         _______ _______ _______ _____ _____    ______ ____
ROOT
ATOM      1  N   UNL     1       3.304   4.740  18.362  0.00  0.00    +0.000 N 
ATOM      2  C   UNL     1       3.146   3.908  19.485  0.00  0.00    +0.000 C 
ATOM      3  N   UNL     1       3.630   2.725  19.661  0.00  0.00    +0.000 NA
ATOM      4  C   UNL     1       3.357   2.106  20.972  0.00  0.00    +0.000 C 
ATOM      5  C   UNL     1       2.074   2.606  21.632  0.00  0.00    +0.000 C 
ATOM      6  C   UNL     1       2.113   4.124  21.734  0.00  0.00    +0.000 C 
ATOM      7  N   UNL     1       2.401   4.625  20.421  0.00  0.00    +0.000 N 
ATOM      8  C   UNL     1       2.220   5.923  19.976  0.00  0.00    +0.000 A 
ATOM      9  C   UNL     1       1.645   7.017  20.588  0.00  0.00    +0.000 A 
ATOM     10  C   UNL     1       1.613   8.219  19.876  0.00  0.00    +0.000 A 
ATOM     11  C   UNL     1       2.154   8.301  18.583  0.00  0.00    +0.000 A 
ATOM     12  C   UNL     1       2.748   7.190  17.981  0.00  0.00    +0.000 A 
ATOM     13  C   UNL     1       2.781   6.003  18.683  0.00  0.00    +0.000 A 
ENDROOT
BRANCH   1  14
ATOM     14  C   UNL     1       4.335   4.565  17.354  0.00  0.00    +0.000 C 
BRANCH  14  21
ATOM     15  C   UNL     1       5.376   6.817  15.502  0.00  0.00    +0.000 C 
ATOM     16  C   UNL     1       6.060   6.414  16.778  0.00  0.00    +0.000 A 
ATOM     17  C   UNL     1       7.245   7.095  17.117  0.00  0.00    +0.000 A 
ATOM     18  C   UNL     1       7.932   6.808  18.294  0.00  0.00    +0.000 A 
ATOM     19  C   UNL     1       7.453   5.824  19.147  0.00  0.00    +0.000 A 
ATOM     20  C   UNL     1       6.300   5.114  18.809  0.00  0.00    +0.000 A 
ATOM     21  C   UNL     1       5.587   5.384  17.623  0.00  0.00    +0.000 A 
ENDBRANCH  14  21
ENDBRANCH   1  14
TORSDOF 2
ENDMDL
MODEL 3
REMARK VINA RESULT:      -7.5      1.887      6.084
REMARK  Name = 
REMARK  3 active torsions:
REMARK  status: ('A' for Active; 'I' for Inactive)
REMARK    1  A    between atoms: C_1  and  C_2
REMARK    2  A    between atoms: C_7  and  C_8
REMARK    3  A    between atoms: C_8  and  N_9
REMARK                            x       y       z     vdW  Elec       q    Type
REMARK                         _______ _______ _______ _____ _____    ______ ____
ROOT
ATOM      1  N   UNL     1       4.220   4.685  18.610  0.00  0.00    +0.000 N 
ATOM      2  C   UNL     1       3.424   4.050  19.580  0.00  0.00    +0.000 C 
ATOM      3  N   UNL     1       3.677   2.950  20.207  0.00  0.00    +0.000 NA
ATOM      4  C   UNL     1       2.689   2.548  21.225  0.00  0.00    +0.000 C 
ATOM      5  C   UNL     1       1.278   3.066  20.951  0.00  0.00    +0.000 C 
ATOM      6  C   UNL     1       1.316   4.578  20.782  0.00  0.00    +0.000 C 
ATOM      7  N   UNL     1       2.312   4.864  19.791  0.00  0.00    +0.000 N 
ATOM      8  C   UNL     1       2.465   6.051  19.096  0.00  0.00    +0.000 A 
ATOM      9  C   UNL     1       1.692   7.193  19.073  0.00  0.00    +0.000 A 
ATOM     10  C   UNL     1       2.114   8.249  18.262  0.00  0.00    +0.000 A 
ATOM     11  C   UNL     1       3.292   8.144  17.503  0.00  0.00    +0.000 A 
ATOM     12  C   UNL     1       4.076   6.989  17.549  0.00  0.00    +0.000 A 
ATOM     13  C   UNL     1       3.659   5.946  18.349  0.00  0.00    +0.000 A 
ENDROOT
BRANCH   1  14
ATOM     14  C   UNL     1       5.631   4.410  18.403  0.00  0.00    +0.000 C 
BRANCH  14  21
ATOM     15  C   UNL     1       7.611   6.581  17.425  0.00  0.00    +0.000 C 
ATOM     16  C   UNL     1       6.978   5.569  16.513  0.00  0.00    +0.000 A 
ATOM     17  C   UNL     1       7.299   5.646  15.143  0.00  0.00    +0.000 A 
ATOM     18  C   UNL     1       6.781   4.733  14.228  0.00  0.00    +0.000 A 
ATOM     19  C   UNL     1       5.921   3.735  14.663  0.00  0.00    +0.000 A 
ATOM     20  C   UNL     1       5.563   3.666  16.010  0.00  0.00    +0.000 A 
ATOM     21  C   UNL     1       6.072   4.579  16.957  0.00  0.00    +0.000 A 
ENDBRANCH  14  21
ENDBRANCH   1  14
TORSDOF 2
ENDMDL
MODEL 4
REMARK VINA RESULT:      -7.4      0.610      1.566
REMARK  Name = 
REMARK  3 active torsions:
REMARK  status: ('A' for Active; 'I' for Inactive)
REMARK    1  A    between atoms: C_1  and  C_2
REMARK    2  A    between atoms: C_7  and  C_8
REMARK    3  A    between atoms: C_8  and  N_9
REMARK                            x       y       z     vdW  Elec       q    Type
REMARK                         _______ _______ _______ _____ _____    ______ ____
ROOT
ATOM      1  N   UNL     1       2.911   5.992  18.897  0.00  0.00    +0.000 N 
ATOM      2  C   UNL     1       3.891   5.819  17.904  0.00  0.00    +0.000 C 
ATOM      3  N   UNL     1       4.847   6.629  17.594  0.00  0.00    +0.000 NA
ATOM      4  C   UNL     1       5.775   6.160  16.548  0.00  0.00    +0.000 C 
ATOM      5  C   UNL     1       5.147   5.171  15.568  0.00  0.00    +0.000 C 
ATOM      6  C   UNL     1       4.544   4.005  16.337  0.00  0.00    +0.000 C 
ATOM      7  N   UNL     1       3.678   4.564  17.335  0.00  0.00    +0.000 N 
ATOM      8  C   UNL     1       2.694   3.894  18.041  0.00  0.00    +0.000 A 
ATOM      9  C   UNL     1       2.215   2.606  17.924  0.00  0.00    +0.000 A 
ATOM     10  C   UNL     1       1.202   2.207  18.799  0.00  0.00    +0.000 A 
ATOM     11  C   UNL     1       0.698   3.093  19.766  0.00  0.00    +0.000 A 
ATOM     12  C   UNL     1       1.204   4.389  19.885  0.00  0.00    +0.000 A 
ATOM     13  C   UNL     1       2.204   4.784  19.022  0.00  0.00    +0.000 A 
ENDROOT
BRANCH   1  14
ATOM     14  C   UNL     1       3.014   6.942  19.991  0.00  0.00    +0.000 C 
BRANCH  14  21
ATOM     15  C   UNL     1       2.314   8.948  17.739  0.00  0.00    +0.000 C 
ATOM     16  C   UNL     1       1.533   8.836  19.018  0.00  0.00    +0.000 A 
ATOM     17  C   UNL     1       0.445   9.714  19.188  0.00  0.00    +0.000 A 
ATOM     18  C   UNL     1      -0.352   9.664  20.329  0.00  0.00    +0.000 A 
ATOM     19  C   UNL     1      -0.067   8.744  21.327  0.00  0.00    +0.000 A 
ATOM     20  C   UNL     1       1.029   7.891  21.192  0.00  0.00    +0.000 A 
ATOM     21  C   UNL     1       1.852   7.923  20.048  0.00  0.00    +0.000 A 
ENDBRANCH  14  21
ENDBRANCH   1  14
TORSDOF 2
ENDMDL
MODEL 5
REMARK VINA RESULT:      -7.2      1.921      5.987
REMARK  Name = 
REMARK  3 active torsions:
REMARK  status: ('A' for Active; 'I' for Inactive)
REMARK    1  A    between atoms: C_1  and  C_2
REMARK    2  A    between atoms: C_7  and  C_8
REMARK    3  A    between atoms: C_8  and  N_9
REMARK                            x       y       z     vdW  Elec       q    Type
REMARK                         _______ _______ _______ _____ _____    ______ ____
ROOT
ATOM      1  N   UNL     1       2.878   4.897  18.257  0.00  0.00    +0.000 N 
ATOM      2  C   UNL     1       2.818   4.026  19.359  0.00  0.00    +0.000 C 
ATOM      3  N   UNL     1       3.259   2.815  19.428  0.00  0.00    +0.000 NA
ATOM      4  C   UNL     1       3.119   2.153  20.739  0.00  0.00    +0.000 C 
ATOM      5  C   UNL     1       1.956   2.684  21.575  0.00  0.00    +0.000 C 
ATOM      6  C   UNL     1       2.086   4.192  21.727  0.00  0.00    +0.000 C 
ATOM      7  N   UNL     1       2.233   4.735  20.408  0.00  0.00    +0.000 N 
ATOM      8  C   UNL     1       2.065   6.058  20.038  0.00  0.00    +0.000 A 
ATOM      9  C   UNL     1       1.629   7.151  20.758  0.00  0.00    +0.000 A 
ATOM     10  C   UNL     1       1.570   8.382  20.101  0.00  0.00    +0.000 A 
ATOM     11  C   UNL     1       1.949   8.495  18.753  0.00  0.00    +0.000 A 
ATOM     12  C   UNL     1       2.405   7.384  18.040  0.00  0.00    +0.000 A 
ATOM     13  C   UNL     1       2.464   6.168  18.688  0.00  0.00    +0.000 A 
ENDROOT
BRANCH   1  14
ATOM     14  C   UNL     1       3.764   4.718  17.120  0.00  0.00    +0.000 C 
BRANCH  14  21
ATOM     15  C   UNL     1       6.087   3.827  15.277  0.00  0.00    +0.000 C 
ATOM     16  C   UNL     1       6.296   4.431  16.636  0.00  0.00    +0.000 A 
ATOM     17  C   UNL     1       7.625   4.569  17.083  0.00  0.00    +0.000 A 
ATOM     18  C   UNL     1       7.916   5.143  18.318  0.00  0.00    +0.000 A 
ATOM     19  C   UNL     1       6.883   5.578  19.135  0.00  0.00    +0.000 A 
ATOM     20  C   UNL     1       5.559   5.416  18.724  0.00  0.00    +0.000 A 
ATOM     21  C   UNL     1       5.237   4.836  17.480  0.00  0.00    +0.000 A 
ENDBRANCH  14  21
ENDBRANCH   1  14
TORSDOF 2
ENDMDL
MODEL 6
REMARK VINA RESULT:      -7.1      1.687      5.686
REMARK  Name = 
REMARK  3 active torsions:
REMARK  status: ('A' for Active; 'I' for Inactive)
REMARK    1  A    between atoms: C_1  and  C_2
REMARK    2  A    between atoms: C_7  and  C_8
REMARK    3  A    between atoms: C_8  and  N_9
REMARK                            x       y       z     vdW  Elec       q    Type
REMARK                         _______ _______ _______ _____ _____    ______ ____
ROOT
ATOM      1  N   UNL     1       3.103   5.453  17.746  0.00  0.00    +0.000 N 
ATOM      2  C   UNL     1       2.940   4.127  18.185  0.00  0.00    +0.000 C 
ATOM      3  N   UNL     1       3.451   3.060  17.668  0.00  0.00    +0.000 NA
ATOM      4  C   UNL     1       3.164   1.800  18.379  0.00  0.00    +0.000 C 
ATOM      5  C   UNL     1       1.854   1.822  19.164  0.00  0.00    +0.000 C 
ATOM      6  C   UNL     1       1.852   3.008  20.117  0.00  0.00    +0.000 C 
ATOM      7  N   UNL     1       2.157   4.173  19.337  0.00  0.00    +0.000 N 
ATOM      8  C   UNL     1       1.952   5.490  19.709  0.00  0.00    +0.000 A 
ATOM      9  C   UNL     1       1.336   6.032  20.818  0.00  0.00    +0.000 A 
ATOM     10  C   UNL     1       1.289   7.424  20.921  0.00  0.00    +0.000 A 
ATOM     11  C   UNL     1       1.856   8.237  19.925  0.00  0.00    +0.000 A 
ATOM     12  C   UNL     1       2.492   7.676  18.816  0.00  0.00    +0.000 A 
ATOM     13  C   UNL     1       2.540   6.301  18.714  0.00  0.00    +0.000 A 
ENDROOT
BRANCH   1  14
ATOM     14  C   UNL     1       4.160   5.895  16.853  0.00  0.00    +0.000 C 
BRANCH  14  21
ATOM     15  C   UNL     1       6.119   4.083  15.283  0.00  0.00    +0.000 C 
ATOM     16  C   UNL     1       6.447   4.694  16.616  0.00  0.00    +0.000 A 
ATOM     17  C   UNL     1       7.706   4.395  17.171  0.00  0.00    +0.000 A 
ATOM     18  C   UNL     1       8.107   4.938  18.390  0.00  0.00    +0.000 A 
ATOM     19  C   UNL     1       7.249   5.779  19.083  0.00  0.00    +0.000 A 
ATOM     20  C   UNL     1       5.983   6.058  18.566  0.00  0.00    +0.000 A 
ATOM     21  C   UNL     1       5.552   5.520  17.336  0.00  0.00    +0.000 A 
ENDBRANCH  14  21
ENDBRANCH   1  14
TORSDOF 2
ENDMDL
MODEL 7
REMARK VINA RESULT:      -7.1      1.758      4.887
REMARK  Name = 
REMARK  3 active torsions:
REMARK  status: ('A' for Active; 'I' for Inactive)
REMARK    1  A    between atoms: C_1  and  C_2
REMARK    2  A    between atoms: C_7  and  C_8
REMARK    3  A    between atoms: C_8  and  N_9
REMARK                            x       y       z     vdW  Elec       q    Type
REMARK                         _______ _______ _______ _____ _____    ______ ____
ROOT
ATOM      1  N   UNL     1       4.771   4.741  18.654  0.00  0.00    +0.000 N 
ATOM      2  C   UNL     1       5.365   4.773  17.380  0.00  0.00    +0.000 C 
ATOM      3  N   UNL     1       6.105   3.867  16.834  0.00  0.00    +0.000 NA
ATOM      4  C   UNL     1       6.542   4.139  15.452  0.00  0.00    +0.000 C 
ATOM      5  C   UNL     1       6.634   5.627  15.118  0.00  0.00    +0.000 C 
ATOM      6  C   UNL     1       5.304   6.300  15.421  0.00  0.00    +0.000 C 
ATOM      7  N   UNL     1       4.961   5.961  16.772  0.00  0.00    +0.000 N 
ATOM      8  C   UNL     1       4.020   6.594  17.566  0.00  0.00    +0.000 A 
ATOM      9  C   UNL     1       3.265   7.727  17.347  0.00  0.00    +0.000 A 
ATOM     10  C   UNL     1       2.380   8.124  18.352  0.00  0.00    +0.000 A 
ATOM     11  C   UNL     1       2.266   7.384  19.541  0.00  0.00    +0.000 A 
ATOM     12  C   UNL     1       3.023   6.228  19.744  0.00  0.00    +0.000 A 
ATOM     13  C   UNL     1       3.898   5.836  18.752  0.00  0.00    +0.000 A 
ENDROOT
BRANCH   1  14
ATOM     14  C   UNL     1       4.586   3.532  19.439  0.00  0.00    +0.000 C 
BRANCH  14  21
ATOM     15  C   UNL     1       2.624   2.727  17.183  0.00  0.00    +0.000 C 
ATOM     16  C   UNL     1       2.230   2.808  18.631  0.00  0.00    +0.000 A 
ATOM     17  C   UNL     1       0.889   2.519  18.952  0.00  0.00    +0.000 A 
ATOM     18  C   UNL     1       0.441   2.542  20.270  0.00  0.00    +0.000 A 
ATOM     19  C   UNL     1       1.322   2.867  21.291  0.00  0.00    +0.000 A 
ATOM     20  C   UNL     1       2.645   3.191  20.988  0.00  0.00    +0.000 A 
ATOM     21  C   UNL     1       3.124   3.177  19.662  0.00  0.00    +0.000 A 
ENDBRANCH  14  21
ENDBRANCH   1  14
TORSDOF 2
ENDMDL
MODEL 8
REMARK VINA RESULT:      -6.9      1.604      5.576
REMARK  Name = 
REMARK  3 active torsions:
REMARK  status: ('A' for Active; 'I' for Inactive)
REMARK    1  A    between atoms: C_1  and  C_2
REMARK    2  A    between atoms: C_7  and  C_8
REMARK    3  A    between atoms: C_8  and  N_9
REMARK                            x       y       z     vdW  Elec       q    Type
REMARK                         _______ _______ _______ _____ _____    ______ ____
ROOT
ATOM      1  N   UNL     1       3.256   5.939  18.784  0.00  0.00    +0.000 N 
ATOM      2  C   UNL     1       2.455   6.945  19.354  0.00  0.00    +0.000 C 
ATOM      3  N   UNL     1       2.391   8.187  19.010  0.00  0.00    +0.000 NA
ATOM      4  C   UNL     1       1.409   9.008  19.744  0.00  0.00    +0.000 C 
ATOM      5  C   UNL     1       1.113   8.499  21.153  0.00  0.00    +0.000 C 
ATOM      6  C   UNL     1       0.678   7.042  21.087  0.00  0.00    +0.000 C 
ATOM      7  N   UNL     1       1.683   6.338  20.344  0.00  0.00    +0.000 N 
ATOM      8  C   UNL     1       1.870   4.967  20.306  0.00  0.00    +0.000 A 
ATOM      9  C   UNL     1       1.258   3.951  21.008  0.00  0.00    +0.000 A 
ATOM     10  C   UNL     1       1.664   2.640  20.743  0.00  0.00    +0.000 A 
ATOM     11  C   UNL     1       2.659   2.377  19.788  0.00  0.00    +0.000 A 
ATOM     12  C   UNL     1       3.259   3.414  19.071  0.00  0.00    +0.000 A 
ATOM     13  C   UNL     1       2.859   4.708  19.332  0.00  0.00    +0.000 A 
ENDROOT
BRANCH   1  14
ATOM     14  C   UNL     1       3.885   6.037  17.478  0.00  0.00    +0.000 C 
BRANCH  14  21
ATOM     15  C   UNL     1       5.142   4.504  15.100  0.00  0.00    +0.000 C 
ATOM     16  C   UNL     1       5.885   4.814  16.368  0.00  0.00    +0.000 A 
ATOM     17  C   UNL     1       7.213   4.355  16.466  0.00  0.00    +0.000 A 
ATOM     18  C   UNL     1       7.988   4.620  17.592  0.00  0.00    +0.000 A 
ATOM     19  C   UNL     1       7.444   5.337  18.648  0.00  0.00    +0.000 A 
ATOM     20  C   UNL     1       6.119   5.768  18.584  0.00  0.00    +0.000 A 
ATOM     21  C   UNL     1       5.312   5.512  17.456  0.00  0.00    +0.000 A 
ENDBRANCH  14  21
ENDBRANCH   1  14
TORSDOF 2
ENDMDL
MODEL 9
REMARK VINA RESULT:      -6.8      1.244      3.873
REMARK  Name = 
REMARK  3 active torsions:
REMARK  status: ('A' for Active; 'I' for Inactive)
REMARK    1  A    between atoms: C_1  and  C_2
REMARK    2  A    between atoms: C_7  and  C_8
REMARK    3  A    between atoms: C_8  and  N_9
REMARK                            x       y       z     vdW  Elec       q    Type
REMARK                         _______ _______ _______ _____ _____    ______ ____
ROOT
ATOM      1  N   UNL     1       3.370   6.100  18.126  0.00  0.00    +0.000 N 
ATOM      2  C   UNL     1       2.862   4.790  18.199  0.00  0.00    +0.000 C 
ATOM      3  N   UNL     1       1.626   4.432  18.305  0.00  0.00    +0.000 NA
ATOM      4  C   UNL     1       1.375   2.979  18.294  0.00  0.00    +0.000 C 
ATOM      5  C   UNL     1       2.548   2.148  18.808  0.00  0.00    +0.000 C 
ATOM      6  C   UNL     1       3.803   2.499  18.021  0.00  0.00    +0.000 C 
ATOM      7  N   UNL     1       3.948   3.924  18.077  0.00  0.00    +0.000 N 
ATOM      8  C   UNL     1       5.090   4.648  17.784  0.00  0.00    +0.000 A 
ATOM      9  C   UNL     1       6.370   4.235  17.479  0.00  0.00    +0.000 A 
ATOM     10  C   UNL     1       7.328   5.219  17.220  0.00  0.00    +0.000 A 
ATOM     11  C   UNL     1       6.987   6.581  17.267  0.00  0.00    +0.000 A 
ATOM     12  C   UNL     1       5.683   6.986  17.560  0.00  0.00    +0.000 A 
ATOM     13  C   UNL     1       4.738   6.016  17.816  0.00  0.00    +0.000 A 
ENDROOT
BRANCH   1  14
ATOM     14  C   UNL     1       2.574   7.269  17.795  0.00  0.00    +0.000 C 
BRANCH  14  21
ATOM     15  C   UNL     1       1.347  10.112  17.763  0.00  0.00    +0.000 C 
ATOM     16  C   UNL     1       1.422   9.258  18.997  0.00  0.00    +0.000 A 
ATOM     17  C   UNL     1       0.922   9.808  20.194  0.00  0.00    +0.000 A 
ATOM     18  C   UNL     1       0.925   9.080  21.380  0.00  0.00    +0.000 A 
ATOM     19  C   UNL     1       1.440   7.792  21.396  0.00  0.00    +0.000 A 
ATOM     20  C   UNL     1       1.973   7.243  20.228  0.00  0.00    +0.000 A 
ATOM     21  C   UNL     1       1.984   7.960  19.014  0.00  0.00    +0.000 A 
ENDBRANCH  14  21
ENDBRANCH   1  14
TORSDOF 2
ENDMDL
