MODEL 1
REMARK VINA RESULT:      -8.8      0.000      0.000
REMARK  Name = 
REMARK  6 active torsions:
REMARK  status: ('A' for Active; 'I' for Inactive)
REMARK    1  A    between atoms: C_1  and  C_2
REMARK    2  A    between atoms: C_2  and  C_3
REMARK    3  A    between atoms: C_3  and  N_4
REMARK    4  A    between atoms: C_3  and  C_24
REMARK    5  A    between atoms: C_13  and  C_14
REMARK    6  A    between atoms: C_18  and  C_19
REMARK                            x       y       z     vdW  Elec       q    Type
REMARK                         _______ _______ _______ _____ _____    ______ ____
ROOT
ATOM      1  N   UNL     1       5.270   5.488  17.600  0.00  0.00    +0.000 N 
ATOM      2  C   UNL     1       4.456   6.584  17.697  0.00  0.00    +0.000 C 
ATOM      3  O   UNL     1       4.756   7.673  17.215  0.00  0.00    +0.000 OA
ATOM      4  N   UNL     1       3.340   6.332  18.458  0.00  0.00    +0.000 N 
ATOM      5  C   UNL     1       2.440   7.349  18.803  0.00  0.00    +0.000 A 
ATOM      6  C   UNL     1       1.980   8.249  17.848  0.00  0.00    +0.000 A 
ATOM      7  C   UNL     1       1.111   9.226  18.326  0.00  0.00    +0.000 A 
ATOM      8  N   UNL     1       0.446  10.238  17.696  0.00  0.00    +0.000 N 
ATOM      9  N   UNL     1      -0.292  11.001  18.514  0.00  0.00    +0.000 NA
ATOM     10  C   UNL     1      -0.089  10.483  19.739  0.00  0.00    +0.000 A 
ATOM     11  C   UNL     1       0.755   9.327  19.665  0.00  0.00    +0.000 A 
ATOM     12  C   UNL     1       1.254   8.365  20.547  0.00  0.00    +0.000 A 
ATOM     13  N   UNL     1       2.058   7.363  20.099  0.00  0.00    +0.000 NA
ATOM     14  H   UNL     1       4.861   4.562  17.606  0.00  0.00    +0.000 HD
ATOM     15  H   UNL     1       3.485   5.671  19.207  0.00  0.00    +0.000 HD
ATOM     16  H   UNL     1       0.450  10.457  16.706  0.00  0.00    +0.000 HD
ENDROOT
BRANCH  10  17
ATOM     17  C   UNL     1      -0.715  11.100  20.909  0.00  0.00    +0.000 A 
ATOM     18  C   UNL     1      -0.552  10.532  22.173  0.00  0.00    +0.000 A 
ATOM     19  C   UNL     1      -1.171  11.133  23.254  0.00  0.00    +0.000 A 
ATOM     20  N   UNL     1      -1.930  12.246  23.163  0.00  0.00    +0.000 NA
ATOM     21  C   UNL     1      -2.101  12.780  21.935  0.00  0.00    +0.000 A 
ATOM     22  C   UNL     1      -2.973  13.997  21.828  0.00  0.00    +0.000 C 
ATOM     23  C   UNL     1      -1.518  12.239  20.791  0.00  0.00    +0.000 A 
ENDBRANCH  10  17
BRANCH   1  24
ATOM     24  C   UNL     1       6.616   5.574  17.032  0.00  0.00    +0.000 C 
BRANCH  24  25
ATOM     25  C   UNL     1       6.639   5.072  15.591  0.00  0.00    +0.000 A 
ATOM     26  C   UNL     1       5.655   4.194  15.130  0.00  0.00    +0.000 A 
ATOM     27  C   UNL     1       5.705   3.754  13.807  0.00  0.00    +0.000 A 
ATOM     28  C   UNL     1       6.733   4.184  12.985  0.00  0.00    +0.000 A 
ATOM     29  C   UNL     1       7.681   5.043  13.515  0.00  0.00    +0.000 A 
ATOM     30  N   UNL     1       7.661   5.496  14.789  0.00  0.00    +0.000 NA
ENDBRANCH  24  25
BRANCH  24  32
ATOM     31  C   UNL     1       8.168   5.682  19.086  0.00  0.00    +0.000 C 
ATOM     32  C   UNL     1       7.630   4.835  17.937  0.00  0.00    +0.000 C 
ENDBRANCH  24  32
ENDBRANCH   1  24
TORSDOF 4
ENDMDL
MODEL 2
REMARK VINA RESULT:      -8.7      1.931     10.448
REMARK  Name = 
REMARK  6 active torsions:
REMARK  status: ('A' for Active; 'I' for Inactive)
REMARK    1  A    between atoms: C_1  and  C_2
REMARK    2  A    between atoms: C_2  and  C_3
REMARK    3  A    between atoms: C_3  and  N_4
REMARK    4  A    between atoms: C_3  and  C_24
REMARK    5  A    between atoms: C_13  and  C_14
REMARK    6  A    between atoms: C_18  and  C_19
REMARK                            x       y       z     vdW  Elec       q    Type
REMARK                         _______ _______ _______ _____ _____    ______ ____
ROOT
ATOM      1  N   UNL     1      -0.317  11.789  19.834  0.00  0.00    +0.000 N 
ATOM      2  C   UNL     1       0.484  10.693  20.009  0.00  0.00    +0.000 C 
ATOM      3  O   UNL     1       1.062  10.462  21.068  0.00  0.00    +0.000 OA
ATOM      4  N   UNL     1       0.621   9.963  18.853  0.00  0.00    +0.000 N 
ATOM      5  C   UNL     1       1.505   8.880  18.767  0.00  0.00    +0.000 A 
ATOM      6  C   UNL     1       1.545   7.911  19.764  0.00  0.00    +0.000 A 
ATOM      7  C   UNL     1       2.485   6.902  19.571  0.00  0.00    +0.000 A 
ATOM      8  N   UNL     1       2.788   5.791  20.302  0.00  0.00    +0.000 N 
ATOM      9  N   UNL     1       3.791   5.059  19.798  0.00  0.00    +0.000 NA
ATOM     10  C   UNL     1       4.181   5.729  18.698  0.00  0.00    +0.000 A 
ATOM     11  C   UNL     1       3.352   6.879  18.486  0.00  0.00    +0.000 A 
ATOM     12  C   UNL     1       3.223   7.886  17.525  0.00  0.00    +0.000 A 
ATOM     13  N   UNL     1       2.274   8.852  17.657  0.00  0.00    +0.000 NA
ATOM     14  H   UNL     1      -1.081  11.746  19.170  0.00  0.00    +0.000 HD
ATOM     15  H   UNL     1       0.596  10.512  18.006  0.00  0.00    +0.000 HD
ATOM     16  H   UNL     1       2.341   5.472  21.154  0.00  0.00    +0.000 HD
ENDROOT
BRANCH  10  17
ATOM     17  C   UNL     1       5.307   5.239  17.900  0.00  0.00    +0.000 A 
ATOM     18  C   UNL     1       6.583   5.165  18.459  0.00  0.00    +0.000 A 
ATOM     19  C   UNL     1       7.625   4.713  17.671  0.00  0.00    +0.000 A 
ATOM     20  N   UNL     1       7.485   4.333  16.382  0.00  0.00    +0.000 NA
ATOM     21  C   UNL     1       6.251   4.425  15.841  0.00  0.00    +0.000 A 
ATOM     22  C   UNL     1       6.101   4.037  14.399  0.00  0.00    +0.000 C 
ATOM     23  C   UNL     1       5.145   4.874  16.560  0.00  0.00    +0.000 A 
ENDBRANCH  10  17
BRANCH   1  24
ATOM     24  C   UNL     1      -0.433  12.832  20.852  0.00  0.00    +0.000 C 
BRANCH  24  25
ATOM     25  C   UNL     1      -1.784  12.768  21.558  0.00  0.00    +0.000 A 
ATOM     26  C   UNL     1      -1.873  12.326  22.880  0.00  0.00    +0.000 A 
ATOM     27  C   UNL     1      -3.124  12.279  23.496  0.00  0.00    +0.000 A 
ATOM     28  C   UNL     1      -4.249  12.658  22.783  0.00  0.00    +0.000 A 
ATOM     29  C   UNL     1      -4.085  13.072  21.472  0.00  0.00    +0.000 A 
ATOM     30  N   UNL     1      -2.889  13.137  20.844  0.00  0.00    +0.000 NA
ENDBRANCH  24  25
BRANCH  24  32
ATOM     31  C   UNL     1      -0.058  14.216  18.711  0.00  0.00    +0.000 C 
ATOM     32  C   UNL     1      -0.149  14.221  20.234  0.00  0.00    +0.000 C 
ENDBRANCH  24  32
ENDBRANCH   1  24
TORSDOF 4
ENDMDL
MODEL 3
REMARK VINA RESULT:      -8.4      1.878     10.431
REMARK  Name = 
REMARK  6 active torsions:
REMARK  status: ('A' for Active; 'I' for Inactive)
REMARK    1  A    between atoms: C_1  and  C_2
REMARK    2  A    between atoms: C_2  and  C_3
REMARK    3  A    between atoms: C_3  and  N_4
REMARK    4  A    between atoms: C_3  and  C_24
REMARK    5  A    between atoms: C_13  and  C_14
REMARK    6  A    between atoms: C_18  and  C_19
REMARK                            x       y       z     vdW  Elec       q    Type
REMARK                         _______ _______ _______ _____ _____    ______ ____
ROOT
ATOM      1  N   UNL     1      -0.338  12.060  19.411  0.00  0.00    +0.000 N 
ATOM      2  C   UNL     1       0.445  10.966  19.662  0.00  0.00    +0.000 C 
ATOM      3  O   UNL     1       0.996  10.784  20.745  0.00  0.00    +0.000 OA
ATOM      4  N   UNL     1       0.602  10.177  18.548  0.00  0.00    +0.000 N 
ATOM      5  C   UNL     1       1.474   9.081  18.539  0.00  0.00    +0.000 A 
ATOM      6  C   UNL     1       1.480   8.165  19.585  0.00  0.00    +0.000 A 
ATOM      7  C   UNL     1       2.412   7.137  19.468  0.00  0.00    +0.000 A 
ATOM      8  N   UNL     1       2.685   6.062  20.261  0.00  0.00    +0.000 N 
ATOM      9  N   UNL     1       3.691   5.295  19.820  0.00  0.00    +0.000 NA
ATOM     10  C   UNL     1       4.115   5.904  18.697  0.00  0.00    +0.000 A 
ATOM     11  C   UNL     1       3.305   7.049  18.406  0.00  0.00    +0.000 A 
ATOM     12  C   UNL     1       3.210   8.007  17.393  0.00  0.00    +0.000 A 
ATOM     13  N   UNL     1       2.269   8.988  17.451  0.00  0.00    +0.000 NA
ATOM     14  H   UNL     1      -1.086  11.991  18.732  0.00  0.00    +0.000 HD
ATOM     15  H   UNL     1       0.603  10.681  17.674  0.00  0.00    +0.000 HD
ATOM     16  H   UNL     1       2.214   5.792  21.118  0.00  0.00    +0.000 HD
ENDROOT
BRANCH  10  17
ATOM     17  C   UNL     1       5.253   5.361  17.953  0.00  0.00    +0.000 A 
ATOM     18  C   UNL     1       6.513   5.296  18.548  0.00  0.00    +0.000 A 
ATOM     19  C   UNL     1       7.569   4.793  17.810  0.00  0.00    +0.000 A 
ATOM     20  N   UNL     1       7.457   4.356  16.537  0.00  0.00    +0.000 NA
ATOM     21  C   UNL     1       6.239   4.440  15.959  0.00  0.00    +0.000 A 
ATOM     22  C   UNL     1       6.120   3.987  14.534  0.00  0.00    +0.000 C 
ATOM     23  C   UNL     1       5.121   4.936  16.627  0.00  0.00    +0.000 A 
ENDBRANCH  10  17
BRANCH   1  24
ATOM     24  C   UNL     1      -0.466  13.155  20.372  0.00  0.00    +0.000 C 
BRANCH  24  25
ATOM     25  C   UNL     1      -1.671  12.952  21.285  0.00  0.00    +0.000 A 
ATOM     26  C   UNL     1      -2.962  13.223  20.825  0.00  0.00    +0.000 A 
ATOM     27  C   UNL     1      -4.043  13.027  21.686  0.00  0.00    +0.000 A 
ATOM     28  C   UNL     1      -3.814  12.580  22.976  0.00  0.00    +0.000 A 
ATOM     29  C   UNL     1      -2.506  12.345  23.366  0.00  0.00    +0.000 A 
ATOM     30  N   UNL     1      -1.435  12.517  22.559  0.00  0.00    +0.000 NA
ENDBRANCH  24  25
BRANCH  24  32
ATOM     31  C   UNL     1      -0.101  15.703  20.508  0.00  0.00    +0.000 C 
ATOM     32  C   UNL     1      -0.499  14.516  19.636  0.00  0.00    +0.000 C 
ENDBRANCH  24  32
ENDBRANCH   1  24
TORSDOF 4
ENDMDL
MODEL 4
REMARK VINA RESULT:      -8.2      2.270     10.655
REMARK  Name = 
REMARK  6 active torsions:
REMARK  status: ('A' for Active; 'I' for Inactive)
REMARK    1  A    between atoms: C_1  and  C_2
REMARK    2  A    between atoms: C_2  and  C_3
REMARK    3  A    between atoms: C_3  and  N_4
REMARK    4  A    between atoms: C_3  and  C_24
REMARK    5  A    between atoms: C_13  and  C_14
REMARK    6  A    between atoms: C_18  and  C_19
REMARK                            x       y       z     vdW  Elec       q    Type
REMARK                         _______ _______ _______ _____ _____    ______ ____
ROOT
ATOM      1  N   UNL     1      -0.322  12.322  20.940  0.00  0.00    +0.000 N 
ATOM      2  C   UNL     1       0.358  11.136  21.004  0.00  0.00    +0.000 C 
ATOM      3  O   UNL     1       1.026  10.812  21.983  0.00  0.00    +0.000 OA
ATOM      4  N   UNL     1       0.271  10.427  19.831  0.00  0.00    +0.000 N 
ATOM      5  C   UNL     1       1.004   9.250  19.627  0.00  0.00    +0.000 A 
ATOM      6  C   UNL     1       1.046   8.258  20.599  0.00  0.00    +0.000 A 
ATOM      7  C   UNL     1       1.830   7.151  20.283  0.00  0.00    +0.000 A 
ATOM      8  N   UNL     1       2.083   5.994  20.958  0.00  0.00    +0.000 N 
ATOM      9  N   UNL     1       2.926   5.164  20.328  0.00  0.00    +0.000 NA
ATOM     10  C   UNL     1       3.260   5.813  19.198  0.00  0.00    +0.000 A 
ATOM     11  C   UNL     1       2.554   7.056  19.101  0.00  0.00    +0.000 A 
ATOM     12  C   UNL     1       2.434   8.097  18.176  0.00  0.00    +0.000 A 
ATOM     13  N   UNL     1       1.628   9.163  18.432  0.00  0.00    +0.000 NA
ATOM     14  H   UNL     1      -1.158  12.387  20.372  0.00  0.00    +0.000 HD
ATOM     15  H   UNL     1       0.212  10.997  19.001  0.00  0.00    +0.000 HD
ATOM     16  H   UNL     1       1.704   5.706  21.854  0.00  0.00    +0.000 HD
ENDROOT
BRANCH  10  17
ATOM     17  C   UNL     1       4.218   5.216  18.265  0.00  0.00    +0.000 A 
ATOM     18  C   UNL     1       3.767   4.584  17.106  0.00  0.00    +0.000 A 
ATOM     19  C   UNL     1       4.698   4.017  16.255  0.00  0.00    +0.000 A 
ATOM     20  N   UNL     1       6.030   4.036  16.478  0.00  0.00    +0.000 NA
ATOM     21  C   UNL     1       6.460   4.631  17.612  0.00  0.00    +0.000 A 
ATOM     22  C   UNL     1       7.937   4.623  17.877  0.00  0.00    +0.000 C 
ATOM     23  C   UNL     1       5.592   5.224  18.526  0.00  0.00    +0.000 A 
ENDBRANCH  10  17
BRANCH   1  24
ATOM     24  C   UNL     1      -0.192  13.345  21.978  0.00  0.00    +0.000 C 
BRANCH  24  25
ATOM     25  C   UNL     1      -1.425  13.380  22.876  0.00  0.00    +0.000 A 
ATOM     26  C   UNL     1      -2.386  12.369  22.799  0.00  0.00    +0.000 A 
ATOM     27  C   UNL     1      -3.503  12.431  23.634  0.00  0.00    +0.000 A 
ATOM     28  C   UNL     1      -3.642  13.496  24.508  0.00  0.00    +0.000 A 
ATOM     29  C   UNL     1      -2.655  14.468  24.518  0.00  0.00    +0.000 A 
ATOM     30  N   UNL     1      -1.557  14.438  23.730  0.00  0.00    +0.000 NA
ENDBRANCH  24  25
BRANCH  24  32
ATOM     31  C   UNL     1      -0.526  14.936  19.978  0.00  0.00    +0.000 C 
ATOM     32  C   UNL     1       0.122  14.720  21.343  0.00  0.00    +0.000 C 
ENDBRANCH  24  32
ENDBRANCH   1  24
TORSDOF 4
ENDMDL
MODEL 5
REMARK VINA RESULT:      -8.2      6.327      8.835
REMARK  Name = 
REMARK  6 active torsions:
REMARK  status: ('A' for Active; 'I' for Inactive)
REMARK    1  A    between atoms: C_1  and  C_2
REMARK    2  A    between atoms: C_2  and  C_3
REMARK    3  A    between atoms: C_3  and  N_4
REMARK    4  A    between atoms: C_3  and  C_24
REMARK    5  A    between atoms: C_13  and  C_14
REMARK    6  A    between atoms: C_18  and  C_19
REMARK                            x       y       z     vdW  Elec       q    Type
REMARK                         _______ _______ _______ _____ _____    ______ ____
ROOT
ATOM      1  N   UNL     1       9.976  10.586  19.328  0.00  0.00    +0.000 N 
ATOM      2  C   UNL     1       8.911   9.888  18.828  0.00  0.00    +0.000 C 
ATOM      3  O   UNL     1       7.871  10.437  18.473  0.00  0.00    +0.000 OA
ATOM      4  N   UNL     1       9.122   8.531  18.861  0.00  0.00    +0.000 N 
ATOM      5  C   UNL     1       8.111   7.621  18.525  0.00  0.00    +0.000 A 
ATOM      6  C   UNL     1       7.342   7.798  17.380  0.00  0.00    +0.000 A 
ATOM      7  C   UNL     1       6.355   6.838  17.175  0.00  0.00    +0.000 A 
ATOM      8  N   UNL     1       5.448   6.667  16.171  0.00  0.00    +0.000 N 
ATOM      9  N   UNL     1       4.629   5.620  16.343  0.00  0.00    +0.000 NA
ATOM     10  C   UNL     1       4.999   5.090  17.523  0.00  0.00    +0.000 A 
ATOM     11  C   UNL     1       6.120   5.799  18.067  0.00  0.00    +0.000 A 
ATOM     12  C   UNL     1       6.957   5.692  19.181  0.00  0.00    +0.000 A 
ATOM     13  N   UNL     1       7.969   6.581  19.376  0.00  0.00    +0.000 NA
ATOM     14  H   UNL     1      10.912  10.218  19.212  0.00  0.00    +0.000 HD
ATOM     15  H   UNL     1       9.689   8.214  19.633  0.00  0.00    +0.000 HD
ATOM     16  H   UNL     1       5.340   7.230  15.334  0.00  0.00    +0.000 HD
ENDROOT
BRANCH  10  17
ATOM     17  C   UNL     1       4.281   3.935  18.066  0.00  0.00    +0.000 A 
ATOM     18  C   UNL     1       4.046   2.817  17.266  0.00  0.00    +0.000 A 
ATOM     19  C   UNL     1       3.351   1.750  17.806  0.00  0.00    +0.000 A 
ATOM     20  N   UNL     1       2.880   1.722  19.072  0.00  0.00    +0.000 NA
ATOM     21  C   UNL     1       3.093   2.816  19.835  0.00  0.00    +0.000 A 
ATOM     22  C   UNL     1       2.541   2.801  21.230  0.00  0.00    +0.000 C 
ATOM     23  C   UNL     1       3.780   3.936  19.372  0.00  0.00    +0.000 A 
ENDBRANCH  10  17
BRANCH   1  24
ATOM     24  C   UNL     1       9.900  12.021  19.602  0.00  0.00    +0.000 C 
BRANCH  24  25
ATOM     25  C   UNL     1      10.602  12.829  18.514  0.00  0.00    +0.000 A 
ATOM     26  C   UNL     1      11.625  12.255  17.755  0.00  0.00    +0.000 A 
ATOM     27  C   UNL     1      12.247  13.021  16.768  0.00  0.00    +0.000 A 
ATOM     28  C   UNL     1      11.849  14.332  16.571  0.00  0.00    +0.000 A 
ATOM     29  C   UNL     1      10.838  14.837  17.371  0.00  0.00    +0.000 A 
ATOM     30  N   UNL     1      10.207  14.124  18.332  0.00  0.00    +0.000 NA
ENDBRANCH  24  25
BRANCH  24  32
ATOM     31  C   UNL     1       9.508  13.185  21.868  0.00  0.00    +0.000 C 
ATOM     32  C   UNL     1      10.443  12.329  21.017  0.00  0.00    +0.000 C 
ENDBRANCH  24  32
ENDBRANCH   1  24
TORSDOF 4
ENDMDL
MODEL 6
REMARK VINA RESULT:      -8.2      1.896     10.636
REMARK  Name = 
REMARK  6 active torsions:
REMARK  status: ('A' for Active; 'I' for Inactive)
REMARK    1  A    between atoms: C_1  and  C_2
REMARK    2  A    between atoms: C_2  and  C_3
REMARK    3  A    between atoms: C_3  and  N_4
REMARK    4  A    between atoms: C_3  and  C_24
REMARK    5  A    between atoms: C_13  and  C_14
REMARK    6  A    between atoms: C_18  and  C_19
REMARK                            x       y       z     vdW  Elec       q    Type
REMARK                         _______ _______ _______ _____ _____    ______ ____
ROOT
ATOM      1  N   UNL     1      -0.865  11.713  20.649  0.00  0.00    +0.000 N 
ATOM      2  C   UNL     1       0.055  10.699  20.640  0.00  0.00    +0.000 C 
ATOM      3  O   UNL     1       0.775  10.454  21.605  0.00  0.00    +0.000 OA
ATOM      4  N   UNL     1       0.124  10.075  19.418  0.00  0.00    +0.000 N 
ATOM      5  C   UNL     1       1.093   9.101  19.143  0.00  0.00    +0.000 A 
ATOM      6  C   UNL     1       1.347   8.073  20.043  0.00  0.00    +0.000 A 
ATOM      7  C   UNL     1       2.351   7.187  19.662  0.00  0.00    +0.000 A 
ATOM      8  N   UNL     1       2.846   6.064  20.257  0.00  0.00    +0.000 N 
ATOM      9  N   UNL     1       3.849   5.483  19.585  0.00  0.00    +0.000 NA
ATOM     10  C   UNL     1       4.038   6.270  18.510  0.00  0.00    +0.000 A 
ATOM     11  C   UNL     1       3.081   7.336  18.489  0.00  0.00    +0.000 A 
ATOM     12  C   UNL     1       2.741   8.392  17.639  0.00  0.00    +0.000 A 
ATOM     13  N   UNL     1       1.724   9.238  17.956  0.00  0.00    +0.000 NA
ATOM     14  H   UNL     1      -1.694  11.637  20.073  0.00  0.00    +0.000 HD
ATOM     15  H   UNL     1      -0.055  10.678  18.629  0.00  0.00    +0.000 HD
ATOM     16  H   UNL     1       2.537   5.637  21.124  0.00  0.00    +0.000 HD
ENDROOT
BRANCH  10  17
ATOM     17  C   UNL     1       5.103   5.962  17.553  0.00  0.00    +0.000 A 
ATOM     18  C   UNL     1       6.401   6.421  17.778  0.00  0.00    +0.000 A 
ATOM     19  C   UNL     1       7.379   6.126  16.846  0.00  0.00    +0.000 A 
ATOM     20  N   UNL     1       7.155   5.414  15.719  0.00  0.00    +0.000 NA
ATOM     21  C   UNL     1       5.892   4.990  15.497  0.00  0.00    +0.000 A 
ATOM     22  C   UNL     1       5.634   4.229  14.229  0.00  0.00    +0.000 C 
ATOM     23  C   UNL     1       4.845   5.245  16.380  0.00  0.00    +0.000 A 
ENDBRANCH  10  17
BRANCH   1  24
ATOM     24  C   UNL     1      -0.960  12.660  21.760  0.00  0.00    +0.000 C 
BRANCH  24  25
ATOM     25  C   UNL     1      -2.383  12.729  22.306  0.00  0.00    +0.000 A 
ATOM     26  C   UNL     1      -3.452  13.032  21.460  0.00  0.00    +0.000 A 
ATOM     27  C   UNL     1      -4.741  13.088  21.992  0.00  0.00    +0.000 A 
ATOM     28  C   UNL     1      -4.932  12.855  23.343  0.00  0.00    +0.000 A 
ATOM     29  C   UNL     1      -3.822  12.574  24.122  0.00  0.00    +0.000 A 
ATOM     30  N   UNL     1      -2.560  12.504  23.642  0.00  0.00    +0.000 NA
ENDBRANCH  24  25
BRANCH  24  32
ATOM     31  C   UNL     1      -0.303  14.228  19.823  0.00  0.00    +0.000 C 
ATOM     32  C   UNL     1      -0.418  14.044  21.334  0.00  0.00    +0.000 C 
ENDBRANCH  24  32
ENDBRANCH   1  24
TORSDOF 4
ENDMDL
MODEL 7
REMARK VINA RESULT:      -8.1      4.130      9.901
REMARK  Name = 
REMARK  6 active torsions:
REMARK  status: ('A' for Active; 'I' for Inactive)
REMARK    1  A    between atoms: C_1  and  C_2
REMARK    2  A    between atoms: C_2  and  C_3
REMARK    3  A    between atoms: C_3  and  N_4
REMARK    4  A    between atoms: C_3  and  C_24
REMARK    5  A    between atoms: C_13  and  C_14
REMARK    6  A    between atoms: C_18  and  C_19
REMARK                            x       y       z     vdW  Elec       q    Type
REMARK                         _______ _______ _______ _____ _____    ______ ____
ROOT
ATOM      1  N   UNL     1       1.431  14.120  18.284  0.00  0.00    +0.000 N 
ATOM      2  C   UNL     1       1.559  12.907  18.906  0.00  0.00    +0.000 C 
ATOM      3  O   UNL     1       1.911  12.801  20.078  0.00  0.00    +0.000 OA
ATOM      4  N   UNL     1       1.339  11.859  18.045  0.00  0.00    +0.000 N 
ATOM      5  C   UNL     1       1.552  10.530  18.434  0.00  0.00    +0.000 A 
ATOM      6  C   UNL     1       1.067  10.056  19.647  0.00  0.00    +0.000 A 
ATOM      7  C   UNL     1       1.369   8.725  19.926  0.00  0.00    +0.000 A 
ATOM      8  N   UNL     1       1.046   7.921  20.979  0.00  0.00    +0.000 N 
ATOM      9  N   UNL     1       1.552   6.682  20.899  0.00  0.00    +0.000 NA
ATOM     10  C   UNL     1       2.258   6.677  19.754  0.00  0.00    +0.000 A 
ATOM     11  C   UNL     1       2.134   7.934  19.077  0.00  0.00    +0.000 A 
ATOM     12  C   UNL     1       2.561   8.494  17.870  0.00  0.00    +0.000 A 
ATOM     13  N   UNL     1       2.230   9.774  17.544  0.00  0.00    +0.000 NA
ATOM     14  H   UNL     1       0.770  14.222  17.524  0.00  0.00    +0.000 HD
ATOM     15  H   UNL     1       1.619  12.035  17.092  0.00  0.00    +0.000 HD
ATOM     16  H   UNL     1       0.475   8.156  21.783  0.00  0.00    +0.000 HD
ENDROOT
BRANCH  10  17
ATOM     17  C   UNL     1       3.000   5.479  19.355  0.00  0.00    +0.000 A 
ATOM     18  C   UNL     1       4.386   5.431  19.504  0.00  0.00    +0.000 A 
ATOM     19  C   UNL     1       5.056   4.290  19.102  0.00  0.00    +0.000 A 
ATOM     20  N   UNL     1       4.448   3.208  18.569  0.00  0.00    +0.000 NA
ATOM     21  C   UNL     1       3.108   3.268  18.408  0.00  0.00    +0.000 A 
ATOM     22  C   UNL     1       2.435   2.081  17.784  0.00  0.00    +0.000 C 
ATOM     23  C   UNL     1       2.354   4.379  18.782  0.00  0.00    +0.000 A 
ENDBRANCH  10  17
BRANCH   1  24
ATOM     24  C   UNL     1       1.833  15.367  18.934  0.00  0.00    +0.000 C 
BRANCH  24  25
ATOM     25  C   UNL     1       0.970  16.536  18.468  0.00  0.00    +0.000 A 
ATOM     26  C   UNL     1       1.522  17.561  17.696  0.00  0.00    +0.000 A 
ATOM     27  C   UNL     1       0.705  18.616  17.287  0.00  0.00    +0.000 A 
ATOM     28  C   UNL     1      -0.627  18.631  17.663  0.00  0.00    +0.000 A 
ATOM     29  C   UNL     1      -1.101  17.587  18.440  0.00  0.00    +0.000 A 
ATOM     30  N   UNL     1      -0.342  16.545  18.849  0.00  0.00    +0.000 NA
ENDBRANCH  24  25
BRANCH  24  32
ATOM     31  C   UNL     1       4.045  16.240  19.927  0.00  0.00    +0.000 C 
ATOM     32  C   UNL     1       3.344  15.621  18.721  0.00  0.00    +0.000 C 
ENDBRANCH  24  32
ENDBRANCH   1  24
TORSDOF 4
ENDMDL
MODEL 8
REMARK VINA RESULT:      -8.1      2.575      9.884
REMARK  Name = 
REMARK  6 active torsions:
REMARK  status: ('A' for Active; 'I' for Inactive)
REMARK    1  A    between atoms: C_1  and  C_2
REMARK    2  A    between atoms: C_2  and  C_3
REMARK    3  A    between atoms: C_3  and  N_4
REMARK    4  A    between atoms: C_3  and  C_24
REMARK    5  A    between atoms: C_13  and  C_14
REMARK    6  A    between atoms: C_18  and  C_19
REMARK                            x       y       z     vdW  Elec       q    Type
REMARK                         _______ _______ _______ _____ _____    ______ ____
ROOT
ATOM      1  N   UNL     1      -0.345  11.841  19.854  0.00  0.00    +0.000 N 
ATOM      2  C   UNL     1       0.463  10.750  20.022  0.00  0.00    +0.000 C 
ATOM      3  O   UNL     1       1.066  10.530  21.070  0.00  0.00    +0.000 OA
ATOM      4  N   UNL     1       0.577  10.010  18.870  0.00  0.00    +0.000 N 
ATOM      5  C   UNL     1       1.462   8.928  18.774  0.00  0.00    +0.000 A 
ATOM      6  C   UNL     1       1.528   7.969  19.779  0.00  0.00    +0.000 A 
ATOM      7  C   UNL     1       2.467   6.961  19.575  0.00  0.00    +0.000 A 
ATOM      8  N   UNL     1       2.789   5.857  20.309  0.00  0.00    +0.000 N 
ATOM      9  N   UNL     1       3.783   5.124  19.789  0.00  0.00    +0.000 NA
ATOM     10  C   UNL     1       4.146   5.785  18.675  0.00  0.00    +0.000 A 
ATOM     11  C   UNL     1       3.309   6.930  18.470  0.00  0.00    +0.000 A 
ATOM     12  C   UNL     1       3.156   7.928  17.504  0.00  0.00    +0.000 A 
ATOM     13  N   UNL     1       2.206   8.893  17.647  0.00  0.00    +0.000 NA
ATOM     14  H   UNL     1      -1.123  11.790  19.208  0.00  0.00    +0.000 HD
ATOM     15  H   UNL     1       0.532  10.550  18.019  0.00  0.00    +0.000 HD
ATOM     16  H   UNL     1       2.362   5.545  21.173  0.00  0.00    +0.000 HD
ENDROOT
BRANCH  10  17
ATOM     17  C   UNL     1       5.255   5.291  17.857  0.00  0.00    +0.000 A 
ATOM     18  C   UNL     1       6.538   5.196  18.397  0.00  0.00    +0.000 A 
ATOM     19  C   UNL     1       7.565   4.740  17.591  0.00  0.00    +0.000 A 
ATOM     20  N   UNL     1       7.403   4.377  16.300  0.00  0.00    +0.000 NA
ATOM     21  C   UNL     1       6.163   4.489  15.776  0.00  0.00    +0.000 A 
ATOM     22  C   UNL     1       5.989   4.118  14.332  0.00  0.00    +0.000 C 
ATOM     23  C   UNL     1       5.072   4.942  16.514  0.00  0.00    +0.000 A 
ENDBRANCH  10  17
BRANCH   1  24
ATOM     24  C   UNL     1      -0.441  12.894  20.866  0.00  0.00    +0.000 C 
BRANCH  24  25
ATOM     25  C   UNL     1       0.744  13.851  20.781  0.00  0.00    +0.000 A 
ATOM     26  C   UNL     1       1.125  14.400  19.554  0.00  0.00    +0.000 A 
ATOM     27  C   UNL     1       2.214  15.271  19.511  0.00  0.00    +0.000 A 
ATOM     28  C   UNL     1       2.899  15.564  20.678  0.00  0.00    +0.000 A 
ATOM     29  C   UNL     1       2.472  14.972  21.855  0.00  0.00    +0.000 A 
ATOM     30  N   UNL     1       1.418  14.128  21.937  0.00  0.00    +0.000 NA
ENDBRANCH  24  25
BRANCH  24  32
ATOM     31  C   UNL     1      -2.058  12.042  22.683  0.00  0.00    +0.000 C 
ATOM     32  C   UNL     1      -0.606  12.274  22.273  0.00  0.00    +0.000 C 
ENDBRANCH  24  32
ENDBRANCH   1  24
TORSDOF 4
ENDMDL
MODEL 9
REMARK VINA RESULT:      -8.0      0.914      1.170
REMARK  Name = 
REMARK  6 active torsions:
REMARK  status: ('A' for Active; 'I' for Inactive)
REMARK    1  A    between atoms: C_1  and  C_2
REMARK    2  A    between atoms: C_2  and  C_3
REMARK    3  A    between atoms: C_3  and  N_4
REMARK    4  A    between atoms: C_3  and  C_24
REMARK    5  A    between atoms: C_13  and  C_14
REMARK    6  A    between atoms: C_18  and  C_19
REMARK                            x       y       z     vdW  Elec       q    Type
REMARK                         _______ _______ _______ _____ _____    ______ ____
ROOT
ATOM      1  N   UNL     1       5.160   5.460  17.240  0.00  0.00    +0.000 N 
ATOM      2  C   UNL     1       4.409   6.589  17.423  0.00  0.00    +0.000 C 
ATOM      3  O   UNL     1       4.724   7.676  16.943  0.00  0.00    +0.000 OA
ATOM      4  N   UNL     1       3.343   6.370  18.262  0.00  0.00    +0.000 N 
ATOM      5  C   UNL     1       2.522   7.418  18.697  0.00  0.00    +0.000 A 
ATOM      6  C   UNL     1       2.035   8.363  17.801  0.00  0.00    +0.000 A 
ATOM      7  C   UNL     1       1.252   9.367  18.365  0.00  0.00    +0.000 A 
ATOM      8  N   UNL     1       0.591  10.423  17.811  0.00  0.00    +0.000 N 
ATOM      9  N   UNL     1      -0.046  11.199  18.699  0.00  0.00    +0.000 NA
ATOM     10  C   UNL     1       0.225  10.641  19.893  0.00  0.00    +0.000 A 
ATOM     11  C   UNL     1       1.004   9.450  19.730  0.00  0.00    +0.000 A 
ATOM     12  C   UNL     1       1.522   8.443  20.550  0.00  0.00    +0.000 A 
ATOM     13  N   UNL     1       2.240   7.416  20.018  0.00  0.00    +0.000 NA
ATOM     14  H   UNL     1       4.709   4.554  17.257  0.00  0.00    +0.000 HD
ATOM     15  H   UNL     1       3.512   5.684  18.983  0.00  0.00    +0.000 HD
ATOM     16  H   UNL     1       0.531  10.667  16.828  0.00  0.00    +0.000 HD
ENDROOT
BRANCH  10  17
ATOM     17  C   UNL     1      -0.280  11.256  21.122  0.00  0.00    +0.000 A 
ATOM     18  C   UNL     1      -0.907  10.474  22.092  0.00  0.00    +0.000 A 
ATOM     19  C   UNL     1      -1.387  11.091  23.233  0.00  0.00    +0.000 A 
ATOM     20  N   UNL     1      -1.286  12.417  23.470  0.00  0.00    +0.000 NA
ATOM     21  C   UNL     1      -0.696  13.172  22.518  0.00  0.00    +0.000 A 
ATOM     22  C   UNL     1      -0.614  14.650  22.765  0.00  0.00    +0.000 C 
ATOM     23  C   UNL     1      -0.188  12.635  21.338  0.00  0.00    +0.000 A 
ENDBRANCH  10  17
BRANCH   1  24
ATOM     24  C   UNL     1       6.461   5.498  16.572  0.00  0.00    +0.000 C 
BRANCH  24  25
ATOM     25  C   UNL     1       6.393   4.849  15.192  0.00  0.00    +0.000 A 
ATOM     26  C   UNL     1       7.413   5.057  14.261  0.00  0.00    +0.000 A 
ATOM     27  C   UNL     1       7.320   4.450  13.008  0.00  0.00    +0.000 A 
ATOM     28  C   UNL     1       6.217   3.669  12.710  0.00  0.00    +0.000 A 
ATOM     29  C   UNL     1       5.239   3.519  13.679  0.00  0.00    +0.000 A 
ATOM     30  N   UNL     1       5.298   4.085  14.905  0.00  0.00    +0.000 NA
ENDBRANCH  24  25
BRANCH  24  32
ATOM     31  C   UNL     1       7.496   5.331  18.926  0.00  0.00    +0.000 C 
ATOM     32  C   UNL     1       7.547   4.865  17.474  0.00  0.00    +0.000 C 
ENDBRANCH  24  32
ENDBRANCH   1  24
TORSDOF 4
ENDMDL
