MODEL 1
REMARK VINA RESULT:      -8.7      0.000      0.000
REMARK  Name = 
REMARK  9 active torsions:
REMARK  status: ('A' for Active; 'I' for Inactive)
REMARK    1  A    between atoms: C_2  and  O_3
REMARK    2  A    between atoms: C_2  and  C_4
REMARK    3  A    between atoms: C_4  and  N_5
REMARK    4  A    between atoms: C_6  and  C_8
REMARK    5  A    between atoms: C_11  and  N_12
REMARK    6  A    between atoms: C_13  and  C_15
REMARK    7  A    between atoms: C_15  and  N_23
REMARK    8  A    between atoms: C_16  and  C_17
REMARK    9  A    between atoms: C_24  and  C_26
REMARK                            x       y       z     vdW  Elec       q    Type
REMARK                         _______ _______ _______ _____ _____    ______ ____
ROOT
ATOM      1  N   UNL     1       7.268   8.852  17.765  0.00  0.00    +0.000 N 
ATOM      2  C   UNL     1       7.341   7.503  18.061  0.00  0.00    +0.000 C 
ATOM      3  O   UNL     1       8.247   6.942  18.683  0.00  0.00    +0.000 OA
ATOM      4  H   UNL     1       6.475   9.180  17.231  0.00  0.00    +0.000 HD
ENDROOT
BRANCH   1   8
ATOM      5  C   UNL     1      10.152  11.858  18.667  0.00  0.00    +0.000 A 
ATOM      6  C   UNL     1      10.173  10.638  19.350  0.00  0.00    +0.000 A 
ATOM      7  C   UNL     1       9.224   9.649  19.067  0.00  0.00    +0.000 A 
ATOM      8  C   UNL     1       8.234   9.840  18.100  0.00  0.00    +0.000 A 
ATOM      9  C   UNL     1       8.205  11.074  17.430  0.00  0.00    +0.000 A 
ATOM     10  C   UNL     1       9.146  12.080  17.720  0.00  0.00    +0.000 A 
BRANCH   5  12
ATOM     11  N   UNL     1      10.805  14.213  18.595  0.00  0.00    +0.000 N 
ATOM     12  C   UNL     1      11.146  12.930  18.968  0.00  0.00    +0.000 C 
ATOM     13  O   UNL     1      12.202  12.663  19.532  0.00  0.00    +0.000 OA
ATOM     14  H   UNL     1       9.872  14.438  18.264  0.00  0.00    +0.000 HD
BRANCH  11  15
ATOM     15  C   UNL     1      11.710  15.324  18.834  0.00  0.00    +0.000 C 
BRANCH  15  17
ATOM     16  O   UNL     1      11.600  17.421  17.604  0.00  0.00    +0.000 OA
ATOM     17  C   UNL     1      11.839  16.221  17.611  0.00  0.00    +0.000 C 
BRANCH  17  18
ATOM     18  O   UNL     1      12.252  15.556  16.504  0.00  0.00    +0.000 OA
ATOM     19  H   UNL     1      13.162  15.776  16.224  0.00  0.00    +0.000 HD
ENDBRANCH  17  18
ENDBRANCH  15  17
ENDBRANCH  11  15
ENDBRANCH   5  12
ENDBRANCH   1   8
BRANCH   2  20
ATOM     20  C   UNL     1       6.217   6.603  17.574  0.00  0.00    +0.000 C 
ATOM     21  C   UNL     1       5.316   6.049  18.406  0.00  0.00    +0.000 C 
BRANCH  21  22
ATOM     22  C   UNL     1       4.348   4.995  18.066  0.00  0.00    +0.000 A 
ATOM     23  C   UNL     1       4.723   3.645  18.143  0.00  0.00    +0.000 A 
ATOM     24  C   UNL     1       3.769   2.637  17.963  0.00  0.00    +0.000 A 
ATOM     25  C   UNL     1       2.442   2.970  17.704  0.00  0.00    +0.000 A 
ATOM     26  C   UNL     1       2.071   4.311  17.599  0.00  0.00    +0.000 A 
ATOM     27  C   UNL     1       3.021   5.321  17.773  0.00  0.00    +0.000 A 
ENDBRANCH  21  22
BRANCH  20  28
ATOM     28  N   UNL     1       6.332   6.211  16.240  0.00  0.00    +0.000 N 
ATOM     29  C   UNL     1       7.112   5.111  15.891  0.00  0.00    +0.000 C 
ATOM     30  O   UNL     1       7.776   4.445  16.677  0.00  0.00    +0.000 OA
ATOM     31  H   UNL     1       5.412   6.104  15.809  0.00  0.00    +0.000 HD
BRANCH  29  32
ATOM     32  C   UNL     1       7.056   4.736  14.442  0.00  0.00    +0.000 A 
ATOM     33  C   UNL     1       6.161   3.755  13.993  0.00  0.00    +0.000 A 
ATOM     34  C   UNL     1       6.066   3.454  12.632  0.00  0.00    +0.000 A 
ATOM     35  C   UNL     1       6.866   4.127  11.709  0.00  0.00    +0.000 A 
ATOM     36  C   UNL     1       7.765   5.101  12.148  0.00  0.00    +0.000 A 
ATOM     37  C   UNL     1       7.859   5.410  13.510  0.00  0.00    +0.000 A 
ENDBRANCH  29  32
ENDBRANCH  20  28
ENDBRANCH   2  20
TORSDOF 9
ENDMDL
MODEL 2
REMARK VINA RESULT:      -8.6      0.532      1.502
REMARK  Name = 
REMARK  9 active torsions:
REMARK  status: ('A' for Active; 'I' for Inactive)
REMARK    1  A    between atoms: C_2  and  O_3
REMARK    2  A    between atoms: C_2  and  C_4
REMARK    3  A    between atoms: C_4  and  N_5
REMARK    4  A    between atoms: C_6  and  C_8
REMARK    5  A    between atoms: C_11  and  N_12
REMARK    6  A    between atoms: C_13  and  C_15
REMARK    7  A    between atoms: C_15  and  N_23
REMARK    8  A    between atoms: C_16  and  C_17
REMARK    9  A    between atoms: C_24  and  C_26
REMARK                            x       y       z     vdW  Elec       q    Type
REMARK                         _______ _______ _______ _____ _____    ______ ____
ROOT
ATOM      1  N   UNL     1       7.205   8.850  17.783  0.00  0.00    +0.000 N 
ATOM      2  C   UNL     1       7.413   7.516  18.089  0.00  0.00    +0.000 C 
ATOM      3  O   UNL     1       8.416   7.041  18.626  0.00  0.00    +0.000 OA
ATOM      4  H   UNL     1       6.341   9.104  17.326  0.00  0.00    +0.000 HD
ENDROOT
BRANCH   1   8
ATOM      5  C   UNL     1       9.966  12.004  18.553  0.00  0.00    +0.000 A 
ATOM      6  C   UNL     1       8.928  12.189  17.637  0.00  0.00    +0.000 A 
ATOM      7  C   UNL     1       8.022  11.156  17.370  0.00  0.00    +0.000 A 
ATOM      8  C   UNL     1       8.119   9.916  18.007  0.00  0.00    +0.000 A 
ATOM      9  C   UNL     1       9.174   9.727  18.912  0.00  0.00    +0.000 A 
ATOM     10  C   UNL     1      10.100  10.756  19.173  0.00  0.00    +0.000 A 
BRANCH   5  12
ATOM     11  N   UNL     1      10.882  14.212  18.041  0.00  0.00    +0.000 N 
ATOM     12  C   UNL     1      10.952  13.088  18.836  0.00  0.00    +0.000 C 
ATOM     13  O   UNL     1      11.768  12.969  19.744  0.00  0.00    +0.000 OA
ATOM     14  H   UNL     1      10.113  14.356  17.394  0.00  0.00    +0.000 HD
BRANCH  11  15
ATOM     15  C   UNL     1      11.806  15.318  18.230  0.00  0.00    +0.000 C 
BRANCH  15  17
ATOM     16  O   UNL     1      11.877  17.598  17.382  0.00  0.00    +0.000 OA
ATOM     17  C   UNL     1      11.581  16.423  17.208  0.00  0.00    +0.000 C 
BRANCH  17  18
ATOM     18  O   UNL     1      11.010  15.981  16.061  0.00  0.00    +0.000 OA
ATOM     19  H   UNL     1      10.041  15.865  16.116  0.00  0.00    +0.000 HD
ENDBRANCH  17  18
ENDBRANCH  15  17
ENDBRANCH  11  15
ENDBRANCH   5  12
ENDBRANCH   1   8
BRANCH   2  20
ATOM     20  C   UNL     1       6.320   6.523  17.728  0.00  0.00    +0.000 C 
ATOM     21  C   UNL     1       5.578   5.889  18.655  0.00  0.00    +0.000 C 
BRANCH  21  22
ATOM     22  C   UNL     1       4.672   4.754  18.420  0.00  0.00    +0.000 A 
ATOM     23  C   UNL     1       3.703   4.826  17.408  0.00  0.00    +0.000 A 
ATOM     24  C   UNL     1       2.937   3.701  17.084  0.00  0.00    +0.000 A 
ATOM     25  C   UNL     1       3.131   2.504  17.769  0.00  0.00    +0.000 A 
ATOM     26  C   UNL     1       4.073   2.437  18.795  0.00  0.00    +0.000 A 
ATOM     27  C   UNL     1       4.837   3.560  19.126  0.00  0.00    +0.000 A 
ENDBRANCH  21  22
BRANCH  20  28
ATOM     28  N   UNL     1       6.306   6.147  16.385  0.00  0.00    +0.000 N 
ATOM     29  C   UNL     1       7.080   5.077  15.943  0.00  0.00    +0.000 C 
ATOM     30  O   UNL     1       7.845   4.427  16.646  0.00  0.00    +0.000 OA
ATOM     31  H   UNL     1       5.350   6.013  16.052  0.00  0.00    +0.000 HD
BRANCH  29  32
ATOM     32  C   UNL     1       6.883   4.713  14.503  0.00  0.00    +0.000 A 
ATOM     33  C   UNL     1       7.768   5.182  13.522  0.00  0.00    +0.000 A 
ATOM     34  C   UNL     1       7.618   4.788  12.189  0.00  0.00    +0.000 A 
ATOM     35  C   UNL     1       6.583   3.927  11.826  0.00  0.00    +0.000 A 
ATOM     36  C   UNL     1       5.693   3.461  12.795  0.00  0.00    +0.000 A 
ATOM     37  C   UNL     1       5.843   3.848  14.132  0.00  0.00    +0.000 A 
ENDBRANCH  29  32
ENDBRANCH  20  28
ENDBRANCH   2  20
TORSDOF 9
ENDMDL
MODEL 3
REMARK VINA RESULT:      -8.6      7.140     10.817
REMARK  Name = 
REMARK  9 active torsions:
REMARK  status: ('A' for Active; 'I' for Inactive)
REMARK    1  A    between atoms: C_2  and  O_3
REMARK    2  A    between atoms: C_2  and  C_4
REMARK    3  A    between atoms: C_4  and  N_5
REMARK    4  A    between atoms: C_6  and  C_8
REMARK    5  A    between atoms: C_11  and  N_12
REMARK    6  A    between atoms: C_13  and  C_15
REMARK    7  A    between atoms: C_15  and  N_23
REMARK    8  A    between atoms: C_16  and  C_17
REMARK    9  A    between atoms: C_24  and  C_26
REMARK                            x       y       z     vdW  Elec       q    Type
REMARK                         _______ _______ _______ _____ _____    ______ ____
ROOT
ATOM      1  N   UNL     1       1.216   9.040  19.568  0.00  0.00    +0.000 N 
ATOM      2  C   UNL     1       0.902   9.349  20.880  0.00  0.00    +0.000 C 
ATOM      3  O   UNL     1       1.353   8.796  21.887  0.00  0.00    +0.000 OA
ATOM      4  H   UNL     1       0.760   9.562  18.834  0.00  0.00    +0.000 HD
ENDROOT
BRANCH   1   8
ATOM      5  C   UNL     1       3.847   5.993  18.167  0.00  0.00    +0.000 A 
ATOM      6  C   UNL     1       3.113   5.800  19.341  0.00  0.00    +0.000 A 
ATOM      7  C   UNL     1       2.253   6.799  19.814  0.00  0.00    +0.000 A 
ATOM      8  C   UNL     1       2.097   8.010  19.136  0.00  0.00    +0.000 A 
ATOM      9  C   UNL     1       2.851   8.208  17.968  0.00  0.00    +0.000 A 
ATOM     10  C   UNL     1       3.730   7.215  17.494  0.00  0.00    +0.000 A 
BRANCH   5  12
ATOM     11  N   UNL     1       4.950   4.878  16.292  0.00  0.00    +0.000 N 
ATOM     12  C   UNL     1       4.782   4.946  17.658  0.00  0.00    +0.000 C 
ATOM     13  O   UNL     1       5.369   4.202  18.436  0.00  0.00    +0.000 OA
ATOM     14  H   UNL     1       4.572   5.590  15.675  0.00  0.00    +0.000 HD
BRANCH  11  15
ATOM     15  C   UNL     1       5.829   3.884  15.698  0.00  0.00    +0.000 C 
BRANCH  15  17
ATOM     16  O   UNL     1       7.609   5.354  14.926  0.00  0.00    +0.000 OA
ATOM     17  C   UNL     1       6.767   4.503  14.670  0.00  0.00    +0.000 C 
BRANCH  17  18
ATOM     18  O   UNL     1       6.583   4.016  13.419  0.00  0.00    +0.000 OA
ATOM     19  H   UNL     1       5.705   3.615  13.272  0.00  0.00    +0.000 HD
ENDBRANCH  17  18
ENDBRANCH  15  17
ENDBRANCH  11  15
ENDBRANCH   5  12
ENDBRANCH   1   8
BRANCH   2  20
ATOM     20  C   UNL     1      -0.101  10.465  21.129  0.00  0.00    +0.000 C 
ATOM     21  C   UNL     1      -0.108  11.197  22.257  0.00  0.00    +0.000 C 
BRANCH  21  22
ATOM     22  C   UNL     1      -1.164  12.127  22.687  0.00  0.00    +0.000 A 
ATOM     23  C   UNL     1      -2.367  11.630  23.212  0.00  0.00    +0.000 A 
ATOM     24  C   UNL     1      -3.314  12.506  23.755  0.00  0.00    +0.000 A 
ATOM     25  C   UNL     1      -3.067  13.876  23.775  0.00  0.00    +0.000 A 
ATOM     26  C   UNL     1      -1.886  14.376  23.227  0.00  0.00    +0.000 A 
ATOM     27  C   UNL     1      -0.939  13.506  22.678  0.00  0.00    +0.000 A 
ENDBRANCH  21  22
BRANCH  20  28
ATOM     28  N   UNL     1      -1.148  10.512  20.209  0.00  0.00    +0.000 N 
ATOM     29  C   UNL     1      -1.019  11.236  19.027  0.00  0.00    +0.000 C 
ATOM     30  O   UNL     1      -0.040  11.906  18.719  0.00  0.00    +0.000 OA
ATOM     31  H   UNL     1      -1.475   9.573  19.978  0.00  0.00    +0.000 HD
BRANCH  29  32
ATOM     32  C   UNL     1      -2.175  11.108  18.082  0.00  0.00    +0.000 A 
ATOM     33  C   UNL     1      -3.441  11.595  18.435  0.00  0.00    +0.000 A 
ATOM     34  C   UNL     1      -4.500  11.531  17.526  0.00  0.00    +0.000 A 
ATOM     35  C   UNL     1      -4.306  10.978  16.261  0.00  0.00    +0.000 A 
ATOM     36  C   UNL     1      -3.050  10.483  15.904  0.00  0.00    +0.000 A 
ATOM     37  C   UNL     1      -1.984  10.551  16.809  0.00  0.00    +0.000 A 
ENDBRANCH  29  32
ENDBRANCH  20  28
ENDBRANCH   2  20
TORSDOF 9
ENDMDL
MODEL 4
REMARK VINA RESULT:      -8.5      7.418     10.995
REMARK  Name = 
REMARK  9 active torsions:
REMARK  status: ('A' for Active; 'I' for Inactive)
REMARK    1  A    between atoms: C_2  and  O_3
REMARK    2  A    between atoms: C_2  and  C_4
REMARK    3  A    between atoms: C_4  and  N_5
REMARK    4  A    between atoms: C_6  and  C_8
REMARK    5  A    between atoms: C_11  and  N_12
REMARK    6  A    between atoms: C_13  and  C_15
REMARK    7  A    between atoms: C_15  and  N_23
REMARK    8  A    between atoms: C_16  and  C_17
REMARK    9  A    between atoms: C_24  and  C_26
REMARK                            x       y       z     vdW  Elec       q    Type
REMARK                         _______ _______ _______ _____ _____    ______ ____
ROOT
ATOM      1  N   UNL     1       0.866   9.314  19.849  0.00  0.00    +0.000 N 
ATOM      2  C   UNL     1       0.794   9.876  21.111  0.00  0.00    +0.000 C 
ATOM      3  O   UNL     1       1.503   9.586  22.079  0.00  0.00    +0.000 OA
ATOM      4  H   UNL     1       0.212   9.633  19.148  0.00  0.00    +0.000 HD
ENDROOT
BRANCH   1   8
ATOM      5  C   UNL     1       3.500   6.241  18.513  0.00  0.00    +0.000 A 
ATOM      6  C   UNL     1       2.863   6.129  19.753  0.00  0.00    +0.000 A 
ATOM      7  C   UNL     1       2.004   7.138  20.204  0.00  0.00    +0.000 A 
ATOM      8  C   UNL     1       1.751   8.279  19.439  0.00  0.00    +0.000 A 
ATOM      9  C   UNL     1       2.407   8.397  18.203  0.00  0.00    +0.000 A 
ATOM     10  C   UNL     1       3.286   7.394  17.750  0.00  0.00    +0.000 A 
BRANCH   5  12
ATOM     11  N   UNL     1       4.758   5.214  16.686  0.00  0.00    +0.000 N 
ATOM     12  C   UNL     1       4.434   5.183  18.025  0.00  0.00    +0.000 C 
ATOM     13  O   UNL     1       4.887   4.346  18.797  0.00  0.00    +0.000 OA
ATOM     14  H   UNL     1       4.492   5.994  16.094  0.00  0.00    +0.000 HD
BRANCH  11  15
ATOM     15  C   UNL     1       5.649   4.220  16.111  0.00  0.00    +0.000 C 
BRANCH  15  17
ATOM     16  O   UNL     1       7.927   4.391  16.949  0.00  0.00    +0.000 OA
ATOM     17  C   UNL     1       7.095   4.695  16.105  0.00  0.00    +0.000 C 
BRANCH  17  18
ATOM     18  O   UNL     1       7.387   5.502  15.056  0.00  0.00    +0.000 OA
ATOM     19  H   UNL     1       8.197   5.252  14.572  0.00  0.00    +0.000 HD
ENDBRANCH  17  18
ENDBRANCH  15  17
ENDBRANCH  11  15
ENDBRANCH   5  12
ENDBRANCH   1   8
BRANCH   2  20
ATOM     20  C   UNL     1      -0.256  10.948  21.356  0.00  0.00    +0.000 C 
ATOM     21  C   UNL     1      -0.332  11.643  22.505  0.00  0.00    +0.000 C 
BRANCH  21  22
ATOM     22  C   UNL     1      -1.437  12.520  22.923  0.00  0.00    +0.000 A 
ATOM     23  C   UNL     1      -1.290  13.914  22.862  0.00  0.00    +0.000 A 
ATOM     24  C   UNL     1      -2.382  14.750  23.119  0.00  0.00    +0.000 A 
ATOM     25  C   UNL     1      -3.621  14.201  23.440  0.00  0.00    +0.000 A 
ATOM     26  C   UNL     1      -3.764  12.817  23.531  0.00  0.00    +0.000 A 
ATOM     27  C   UNL     1      -2.675  11.977  23.280  0.00  0.00    +0.000 A 
ENDBRANCH  21  22
BRANCH  20  28
ATOM     28  N   UNL     1      -1.270  10.988  20.399  0.00  0.00    +0.000 N 
ATOM     29  C   UNL     1      -1.089  11.683  19.206  0.00  0.00    +0.000 C 
ATOM     30  O   UNL     1      -0.091  12.334  18.918  0.00  0.00    +0.000 OA
ATOM     31  H   UNL     1      -1.602  10.048  20.177  0.00  0.00    +0.000 HD
BRANCH  29  32
ATOM     32  C   UNL     1      -2.213  11.549  18.224  0.00  0.00    +0.000 A 
ATOM     33  C   UNL     1      -1.968  11.114  16.915  0.00  0.00    +0.000 A 
ATOM     34  C   UNL     1      -3.026  10.928  16.022  0.00  0.00    +0.000 A 
ATOM     35  C   UNL     1      -4.336  11.179  16.428  0.00  0.00    +0.000 A 
ATOM     36  C   UNL     1      -4.590  11.620  17.728  0.00  0.00    +0.000 A 
ATOM     37  C   UNL     1      -3.533  11.801  18.628  0.00  0.00    +0.000 A 
ENDBRANCH  29  32
ENDBRANCH  20  28
ENDBRANCH   2  20
TORSDOF 9
ENDMDL
MODEL 5
REMARK VINA RESULT:      -8.4      6.922      9.705
REMARK  Name = 
REMARK  9 active torsions:
REMARK  status: ('A' for Active; 'I' for Inactive)
REMARK    1  A    between atoms: C_2  and  O_3
REMARK    2  A    between atoms: C_2  and  C_4
REMARK    3  A    between atoms: C_4  and  N_5
REMARK    4  A    between atoms: C_6  and  C_8
REMARK    5  A    between atoms: C_11  and  N_12
REMARK    6  A    between atoms: C_13  and  C_15
REMARK    7  A    between atoms: C_15  and  N_23
REMARK    8  A    between atoms: C_16  and  C_17
REMARK    9  A    between atoms: C_24  and  C_26
REMARK                            x       y       z     vdW  Elec       q    Type
REMARK                         _______ _______ _______ _____ _____    ______ ____
ROOT
ATOM      1  N   UNL     1       1.678   8.683  19.244  0.00  0.00    +0.000 N 
ATOM      2  C   UNL     1       2.407   8.717  18.068  0.00  0.00    +0.000 C 
ATOM      3  O   UNL     1       2.364   9.603  17.211  0.00  0.00    +0.000 OA
ATOM      4  H   UNL     1       1.795   7.886  19.854  0.00  0.00    +0.000 HD
ENDROOT
BRANCH   1   8
ATOM      5  C   UNL     1      -1.160  11.546  20.628  0.00  0.00    +0.000 A 
ATOM      6  C   UNL     1      -1.243  11.050  19.324  0.00  0.00    +0.000 A 
ATOM      7  C   UNL     1      -0.310  10.117  18.857  0.00  0.00    +0.000 A 
ATOM      8  C   UNL     1       0.725   9.649  19.671  0.00  0.00    +0.000 A 
ATOM      9  C   UNL     1       0.816  10.164  20.973  0.00  0.00    +0.000 A 
ATOM     10  C   UNL     1      -0.108  11.116  21.445  0.00  0.00    +0.000 A 
BRANCH   5  12
ATOM     11  N   UNL     1      -2.157  12.766  22.498  0.00  0.00    +0.000 N 
ATOM     12  C   UNL     1      -2.136  12.556  21.136  0.00  0.00    +0.000 C 
ATOM     13  O   UNL     1      -2.865  13.164  20.360  0.00  0.00    +0.000 OA
ATOM     14  H   UNL     1      -1.452  12.364  23.106  0.00  0.00    +0.000 HD
BRANCH  11  15
ATOM     15  C   UNL     1      -3.080  13.720  23.090  0.00  0.00    +0.000 C 
BRANCH  15  17
ATOM     16  O   UNL     1      -4.090  11.838  24.257  0.00  0.00    +0.000 OA
ATOM     17  C   UNL     1      -4.081  13.038  24.012  0.00  0.00    +0.000 C 
BRANCH  17  18
ATOM     18  O   UNL     1      -4.982  13.895  24.550  0.00  0.00    +0.000 OA
ATOM     19  H   UNL     1      -5.909  13.705  24.306  0.00  0.00    +0.000 HD
ENDBRANCH  17  18
ENDBRANCH  15  17
ENDBRANCH  11  15
ENDBRANCH   5  12
ENDBRANCH   1   8
BRANCH   2  20
ATOM     20  C   UNL     1       3.348   7.558  17.779  0.00  0.00    +0.000 C 
ATOM     21  C   UNL     1       4.555   7.726  17.210  0.00  0.00    +0.000 C 
BRANCH  21  22
ATOM     22  C   UNL     1       5.427   6.665  16.683  0.00  0.00    +0.000 A 
ATOM     23  C   UNL     1       6.456   6.141  17.479  0.00  0.00    +0.000 A 
ATOM     24  C   UNL     1       7.193   5.035  17.040  0.00  0.00    +0.000 A 
ATOM     25  C   UNL     1       6.910   4.451  15.808  0.00  0.00    +0.000 A 
ATOM     26  C   UNL     1       5.906   4.988  15.001  0.00  0.00    +0.000 A 
ATOM     27  C   UNL     1       5.171   6.095  15.433  0.00  0.00    +0.000 A 
ENDBRANCH  21  22
BRANCH  20  28
ATOM     28  N   UNL     1       2.770   6.298  17.930  0.00  0.00    +0.000 N 
ATOM     29  C   UNL     1       3.126   5.480  19.000  0.00  0.00    +0.000 C 
ATOM     30  O   UNL     1       3.973   5.757  19.841  0.00  0.00    +0.000 OA
ATOM     31  H   UNL     1       1.751   6.355  17.892  0.00  0.00    +0.000 HD
BRANCH  29  32
ATOM     32  C   UNL     1       2.347   4.205  19.101  0.00  0.00    +0.000 A 
ATOM     33  C   UNL     1       1.360   4.048  20.084  0.00  0.00    +0.000 A 
ATOM     34  C   UNL     1       0.592   2.882  20.134  0.00  0.00    +0.000 A 
ATOM     35  C   UNL     1       0.805   1.862  19.207  0.00  0.00    +0.000 A 
ATOM     36  C   UNL     1       1.791   2.006  18.229  0.00  0.00    +0.000 A 
ATOM     37  C   UNL     1       2.558   3.176  18.171  0.00  0.00    +0.000 A 
ENDBRANCH  29  32
ENDBRANCH  20  28
ENDBRANCH   2  20
TORSDOF 9
ENDMDL
MODEL 6
REMARK VINA RESULT:      -8.4      7.257     10.894
REMARK  Name = 
REMARK  9 active torsions:
REMARK  status: ('A' for Active; 'I' for Inactive)
REMARK    1  A    between atoms: C_2  and  O_3
REMARK    2  A    between atoms: C_2  and  C_4
REMARK    3  A    between atoms: C_4  and  N_5
REMARK    4  A    between atoms: C_6  and  C_8
REMARK    5  A    between atoms: C_11  and  N_12
REMARK    6  A    between atoms: C_13  and  C_15
REMARK    7  A    between atoms: C_15  and  N_23
REMARK    8  A    between atoms: C_16  and  C_17
REMARK    9  A    between atoms: C_24  and  C_26
REMARK                            x       y       z     vdW  Elec       q    Type
REMARK                         _______ _______ _______ _____ _____    ______ ____
ROOT
ATOM      1  N   UNL     1       1.098   9.190  19.555  0.00  0.00    +0.000 N 
ATOM      2  C   UNL     1       0.897   9.564  20.872  0.00  0.00    +0.000 C 
ATOM      3  O   UNL     1       1.479   9.103  21.857  0.00  0.00    +0.000 OA
ATOM      4  H   UNL     1       0.540   9.637  18.842  0.00  0.00    +0.000 HD
ENDROOT
BRANCH   1   8
ATOM      5  C   UNL     1       3.796   6.147  18.277  0.00  0.00    +0.000 A 
ATOM      6  C   UNL     1       3.633   7.306  17.513  0.00  0.00    +0.000 A 
ATOM      7  C   UNL     1       2.742   8.306  17.920  0.00  0.00    +0.000 A 
ATOM      8  C   UNL     1       1.994   8.186  19.094  0.00  0.00    +0.000 A 
ATOM      9  C   UNL     1       2.146   7.013  19.848  0.00  0.00    +0.000 A 
ATOM     10  C   UNL     1       3.027   5.994  19.437  0.00  0.00    +0.000 A 
BRANCH   5  12
ATOM     11  N   UNL     1       5.774   5.431  17.033  0.00  0.00    +0.000 N 
ATOM     12  C   UNL     1       4.727   5.062  17.849  0.00  0.00    +0.000 C 
ATOM     13  O   UNL     1       4.558   3.908  18.228  0.00  0.00    +0.000 OA
ATOM     14  H   UNL     1       5.984   6.407  16.848  0.00  0.00    +0.000 HD
BRANCH  11  15
ATOM     15  C   UNL     1       6.728   4.445  16.552  0.00  0.00    +0.000 C 
BRANCH  15  17
ATOM     16  O   UNL     1       6.276   3.750  14.265  0.00  0.00    +0.000 OA
ATOM     17  C   UNL     1       6.872   4.489  15.037  0.00  0.00    +0.000 C 
BRANCH  17  18
ATOM     18  O   UNL     1       7.736   5.442  14.611  0.00  0.00    +0.000 OA
ATOM     19  H   UNL     1       7.305   6.261  14.300  0.00  0.00    +0.000 HD
ENDBRANCH  17  18
ENDBRANCH  15  17
ENDBRANCH  11  15
ENDBRANCH   5  12
ENDBRANCH   1   8
BRANCH   2  20
ATOM     20  C   UNL     1      -0.144  10.635  21.158  0.00  0.00    +0.000 C 
ATOM     21  C   UNL     1      -0.175  11.329  22.309  0.00  0.00    +0.000 C 
BRANCH  21  22
ATOM     22  C   UNL     1      -1.263  12.207  22.770  0.00  0.00    +0.000 A 
ATOM     23  C   UNL     1      -2.452  11.651  23.265  0.00  0.00    +0.000 A 
ATOM     24  C   UNL     1      -3.429  12.473  23.838  0.00  0.00    +0.000 A 
ATOM     25  C   UNL     1      -3.226  13.848  23.916  0.00  0.00    +0.000 A 
ATOM     26  C   UNL     1      -2.057  14.407  23.399  0.00  0.00    +0.000 A 
ATOM     27  C   UNL     1      -1.081  13.591  22.821  0.00  0.00    +0.000 A 
ENDBRANCH  21  22
BRANCH  20  28
ATOM     28  N   UNL     1      -1.194  10.676  20.240  0.00  0.00    +0.000 N 
ATOM     29  C   UNL     1      -1.098  11.454  19.090  0.00  0.00    +0.000 C 
ATOM     30  O   UNL     1      -0.149  12.179  18.811  0.00  0.00    +0.000 OA
ATOM     31  H   UNL     1      -1.480   9.734  19.970  0.00  0.00    +0.000 HD
BRANCH  29  32
ATOM     32  C   UNL     1      -2.248  11.316  18.141  0.00  0.00    +0.000 A 
ATOM     33  C   UNL     1      -3.542  11.688  18.530  0.00  0.00    +0.000 A 
ATOM     34  C   UNL     1      -4.601  11.618  17.620  0.00  0.00    +0.000 A 
ATOM     35  C   UNL     1      -4.378  11.173  16.318  0.00  0.00    +0.000 A 
ATOM     36  C   UNL     1      -3.093  10.794  15.924  0.00  0.00    +0.000 A 
ATOM     37  C   UNL     1      -2.029  10.868  16.829  0.00  0.00    +0.000 A 
ENDBRANCH  29  32
ENDBRANCH  20  28
ENDBRANCH   2  20
TORSDOF 9
ENDMDL
MODEL 7
REMARK VINA RESULT:      -8.4      7.177     10.224
REMARK  Name = 
REMARK  9 active torsions:
REMARK  status: ('A' for Active; 'I' for Inactive)
REMARK    1  A    between atoms: C_2  and  O_3
REMARK    2  A    between atoms: C_2  and  C_4
REMARK    3  A    between atoms: C_4  and  N_5
REMARK    4  A    between atoms: C_6  and  C_8
REMARK    5  A    between atoms: C_11  and  N_12
REMARK    6  A    between atoms: C_13  and  C_15
REMARK    7  A    between atoms: C_15  and  N_23
REMARK    8  A    between atoms: C_16  and  C_17
REMARK    9  A    between atoms: C_24  and  C_26
REMARK                            x       y       z     vdW  Elec       q    Type
REMARK                         _______ _______ _______ _____ _____    ______ ____
ROOT
ATOM      1  N   UNL     1       1.581   8.818  19.347  0.00  0.00    +0.000 N 
ATOM      2  C   UNL     1       2.268   8.601  18.166  0.00  0.00    +0.000 C 
ATOM      3  O   UNL     1       2.087   9.195  17.100  0.00  0.00    +0.000 OA
ATOM      4  H   UNL     1       1.818   8.248  20.147  0.00  0.00    +0.000 HD
ENDROOT
BRANCH   1   8
ATOM      5  C   UNL     1      -1.581  11.587  20.053  0.00  0.00    +0.000 A 
ATOM      6  C   UNL     1      -1.511  10.897  18.839  0.00  0.00    +0.000 A 
ATOM      7  C   UNL     1      -0.470   9.993  18.595  0.00  0.00    +0.000 A 
ATOM      8  C   UNL     1       0.523   9.747  19.546  0.00  0.00    +0.000 A 
ATOM      9  C   UNL     1       0.459  10.456  20.756  0.00  0.00    +0.000 A 
ATOM     10  C   UNL     1      -0.575  11.380  21.003  0.00  0.00    +0.000 A 
BRANCH   5  12
ATOM     11  N   UNL     1      -3.921  12.260  19.825  0.00  0.00    +0.000 N 
ATOM     12  C   UNL     1      -2.673  12.569  20.323  0.00  0.00    +0.000 C 
ATOM     13  O   UNL     1      -2.451  13.587  20.970  0.00  0.00    +0.000 OA
ATOM     14  H   UNL     1      -4.120  11.350  19.421  0.00  0.00    +0.000 HD
BRANCH  11  15
ATOM     15  C   UNL     1      -5.046  13.157  20.025  0.00  0.00    +0.000 C 
BRANCH  15  17
ATOM     16  O   UNL     1      -6.063  12.257  22.045  0.00  0.00    +0.000 OA
ATOM     17  C   UNL     1      -6.148  12.506  20.849  0.00  0.00    +0.000 C 
BRANCH  17  18
ATOM     18  O   UNL     1      -7.258  12.220  20.126  0.00  0.00    +0.000 OA
ATOM     19  H   UNL     1      -7.988  12.858  20.245  0.00  0.00    +0.000 HD
ENDBRANCH  17  18
ENDBRANCH  15  17
ENDBRANCH  11  15
ENDBRANCH   5  12
ENDBRANCH   1   8
BRANCH   2  20
ATOM     20  C   UNL     1       3.344   7.527  18.153  0.00  0.00    +0.000 C 
ATOM     21  C   UNL     1       4.288   7.455  17.198  0.00  0.00    +0.000 C 
BRANCH  21  22
ATOM     22  C   UNL     1       5.215   6.335  16.970  0.00  0.00    +0.000 A 
ATOM     23  C   UNL     1       5.008   5.459  15.893  0.00  0.00    +0.000 A 
ATOM     24  C   UNL     1       5.963   4.483  15.586  0.00  0.00    +0.000 A 
ATOM     25  C   UNL     1       7.122   4.375  16.350  0.00  0.00    +0.000 A 
ATOM     26  C   UNL     1       7.316   5.224  17.438  0.00  0.00    +0.000 A 
ATOM     27  C   UNL     1       6.364   6.198  17.753  0.00  0.00    +0.000 A 
ENDBRANCH  21  22
BRANCH  20  28
ATOM     28  N   UNL     1       3.134   6.493  19.066  0.00  0.00    +0.000 N 
ATOM     29  C   UNL     1       2.377   5.380  18.713  0.00  0.00    +0.000 C 
ATOM     30  O   UNL     1       1.810   5.230  17.636  0.00  0.00    +0.000 OA
ATOM     31  H   UNL     1       4.018   6.170  19.463  0.00  0.00    +0.000 HD
BRANCH  29  32
ATOM     32  C   UNL     1       2.327   4.299  19.750  0.00  0.00    +0.000 A 
ATOM     33  C   UNL     1       1.142   4.037  20.450  0.00  0.00    +0.000 A 
ATOM     34  C   UNL     1       1.083   2.986  21.370  0.00  0.00    +0.000 A 
ATOM     35  C   UNL     1       2.206   2.193  21.600  0.00  0.00    +0.000 A 
ATOM     36  C   UNL     1       3.393   2.452  20.912  0.00  0.00    +0.000 A 
ATOM     37  C   UNL     1       3.455   3.499  19.985  0.00  0.00    +0.000 A 
ENDBRANCH  29  32
ENDBRANCH  20  28
ENDBRANCH   2  20
TORSDOF 9
ENDMDL
MODEL 8
REMARK VINA RESULT:      -8.4      7.069      9.982
REMARK  Name = 
REMARK  9 active torsions:
REMARK  status: ('A' for Active; 'I' for Inactive)
REMARK    1  A    between atoms: C_2  and  O_3
REMARK    2  A    between atoms: C_2  and  C_4
REMARK    3  A    between atoms: C_4  and  N_5
REMARK    4  A    between atoms: C_6  and  C_8
REMARK    5  A    between atoms: C_11  and  N_12
REMARK    6  A    between atoms: C_13  and  C_15
REMARK    7  A    between atoms: C_15  and  N_23
REMARK    8  A    between atoms: C_16  and  C_17
REMARK    9  A    between atoms: C_24  and  C_26
REMARK                            x       y       z     vdW  Elec       q    Type
REMARK                         _______ _______ _______ _____ _____    ______ ____
ROOT
ATOM      1  N   UNL     1       1.739   8.674  19.481  0.00  0.00    +0.000 N 
ATOM      2  C   UNL     1       2.366   8.520  18.257  0.00  0.00    +0.000 C 
ATOM      3  O   UNL     1       2.153   9.187  17.241  0.00  0.00    +0.000 OA
ATOM      4  H   UNL     1       1.997   8.047  20.230  0.00  0.00    +0.000 HD
ENDROOT
BRANCH   1   8
ATOM      5  C   UNL     1      -1.317  11.460  20.512  0.00  0.00    +0.000 A 
ATOM      6  C   UNL     1      -1.288  10.892  19.235  0.00  0.00    +0.000 A 
ATOM      7  C   UNL     1      -0.282   9.983  18.885  0.00  0.00    +0.000 A 
ATOM      8  C   UNL     1       0.716   9.612  19.789  0.00  0.00    +0.000 A 
ATOM      9  C   UNL     1       0.694  10.199  21.064  0.00  0.00    +0.000 A 
ATOM     10  C   UNL     1      -0.304  11.127  21.419  0.00  0.00    +0.000 A 
BRANCH   5  12
ATOM     11  N   UNL     1      -2.508  12.711  22.243  0.00  0.00    +0.000 N 
ATOM     12  C   UNL     1      -2.372  12.444  20.897  0.00  0.00    +0.000 C 
ATOM     13  O   UNL     1      -3.062  12.986  20.041  0.00  0.00    +0.000 OA
ATOM     14  H   UNL     1      -1.837  12.367  22.921  0.00  0.00    +0.000 HD
BRANCH  11  15
ATOM     15  C   UNL     1      -3.514  13.645  22.719  0.00  0.00    +0.000 C 
BRANCH  15  17
ATOM     16  O   UNL     1      -4.457  12.102  24.347  0.00  0.00    +0.000 OA
ATOM     17  C   UNL     1      -4.633  12.936  23.469  0.00  0.00    +0.000 C 
BRANCH  17  18
ATOM     18  O   UNL     1      -5.870  13.320  23.069  0.00  0.00    +0.000 OA
ATOM     19  H   UNL     1      -5.998  14.288  23.041  0.00  0.00    +0.000 HD
ENDBRANCH  17  18
ENDBRANCH  15  17
ENDBRANCH  11  15
ENDBRANCH   5  12
ENDBRANCH   1   8
BRANCH   2  20
ATOM     20  C   UNL     1       3.411   7.424  18.123  0.00  0.00    +0.000 C 
ATOM     21  C   UNL     1       4.288   7.375  17.105  0.00  0.00    +0.000 C 
BRANCH  21  22
ATOM     22  C   UNL     1       5.169   6.247  16.765  0.00  0.00    +0.000 A 
ATOM     23  C   UNL     1       5.043   5.605  15.524  0.00  0.00    +0.000 A 
ATOM     24  C   UNL     1       5.969   4.630  15.138  0.00  0.00    +0.000 A 
ATOM     25  C   UNL     1       7.021   4.290  15.986  0.00  0.00    +0.000 A 
ATOM     26  C   UNL     1       7.132   4.906  17.232  0.00  0.00    +0.000 A 
ATOM     27  C   UNL     1       6.207   5.876  17.625  0.00  0.00    +0.000 A 
ENDBRANCH  21  22
BRANCH  20  28
ATOM     28  N   UNL     1       3.238   6.355  19.003  0.00  0.00    +0.000 N 
ATOM     29  C   UNL     1       2.386   5.302  18.677  0.00  0.00    +0.000 C 
ATOM     30  O   UNL     1       1.705   5.241  17.659  0.00  0.00    +0.000 OA
ATOM     31  H   UNL     1       4.137   5.965  19.288  0.00  0.00    +0.000 HD
BRANCH  29  32
ATOM     32  C   UNL     1       2.381   4.171  19.659  0.00  0.00    +0.000 A 
ATOM     33  C   UNL     1       3.532   3.398  19.863  0.00  0.00    +0.000 A 
ATOM     34  C   UNL     1       3.543   2.387  20.826  0.00  0.00    +0.000 A 
ATOM     35  C   UNL     1       2.404   2.136  21.590  0.00  0.00    +0.000 A 
ATOM     36  C   UNL     1       1.250   2.896  21.390  0.00  0.00    +0.000 A 
ATOM     37  C   UNL     1       1.237   3.914  20.430  0.00  0.00    +0.000 A 
ENDBRANCH  29  32
ENDBRANCH  20  28
ENDBRANCH   2  20
TORSDOF 9
ENDMDL
MODEL 9
REMARK VINA RESULT:      -8.3      7.153      9.988
REMARK  Name = 
REMARK  9 active torsions:
REMARK  status: ('A' for Active; 'I' for Inactive)
REMARK    1  A    between atoms: C_2  and  O_3
REMARK    2  A    between atoms: C_2  and  C_4
REMARK    3  A    between atoms: C_4  and  N_5
REMARK    4  A    between atoms: C_6  and  C_8
REMARK    5  A    between atoms: C_11  and  N_12
REMARK    6  A    between atoms: C_13  and  C_15
REMARK    7  A    between atoms: C_15  and  N_23
REMARK    8  A    between atoms: C_16  and  C_17
REMARK    9  A    between atoms: C_24  and  C_26
REMARK                            x       y       z     vdW  Elec       q    Type
REMARK                         _______ _______ _______ _____ _____    ______ ____
ROOT
ATOM      1  N   UNL     1       1.736   8.878  19.594  0.00  0.00    +0.000 N 
ATOM      2  C   UNL     1       2.241   8.614  18.333  0.00  0.00    +0.000 C 
ATOM      3  O   UNL     1       1.882   9.146  17.280  0.00  0.00    +0.000 OA
ATOM      4  H   UNL     1       2.109   8.356  20.375  0.00  0.00    +0.000 HD
ENDROOT
BRANCH   1   8
ATOM      5  C   UNL     1      -1.373  11.598  20.642  0.00  0.00    +0.000 A 
ATOM      6  C   UNL     1      -1.384  10.967  19.395  0.00  0.00    +0.000 A 
ATOM      7  C   UNL     1      -0.362  10.079  19.038  0.00  0.00    +0.000 A 
ATOM      8  C   UNL     1       0.693   9.792  19.908  0.00  0.00    +0.000 A 
ATOM      9  C   UNL     1       0.710  10.442  21.152  0.00  0.00    +0.000 A 
ATOM     10  C   UNL     1      -0.305  11.349  21.511  0.00  0.00    +0.000 A 
BRANCH   5  12
ATOM     11  N   UNL     1      -3.093  12.318  22.224  0.00  0.00    +0.000 N 
ATOM     12  C   UNL     1      -2.446  12.561  21.032  0.00  0.00    +0.000 C 
ATOM     13  O   UNL     1      -2.712  13.521  20.317  0.00  0.00    +0.000 OA
ATOM     14  H   UNL     1      -2.764  11.608  22.870  0.00  0.00    +0.000 HD
BRANCH  11  15
ATOM     15  C   UNL     1      -4.160  13.191  22.685  0.00  0.00    +0.000 C 
BRANCH  15  17
ATOM     16  O   UNL     1      -5.229  12.084  24.569  0.00  0.00    +0.000 OA
ATOM     17  C   UNL     1      -4.483  12.961  24.154  0.00  0.00    +0.000 C 
BRANCH  17  18
ATOM     18  O   UNL     1      -3.855  13.833  24.981  0.00  0.00    +0.000 OA
ATOM     19  H   UNL     1      -2.960  13.551  25.253  0.00  0.00    +0.000 HD
ENDBRANCH  17  18
ENDBRANCH  15  17
ENDBRANCH  11  15
ENDBRANCH   5  12
ENDBRANCH   1   8
BRANCH   2  20
ATOM     20  C   UNL     1       3.334   7.564  18.207  0.00  0.00    +0.000 C 
ATOM     21  C   UNL     1       4.213   7.548  17.190  0.00  0.00    +0.000 C 
BRANCH  21  22
ATOM     22  C   UNL     1       5.144   6.458  16.858  0.00  0.00    +0.000 A 
ATOM     23  C   UNL     1       6.403   6.397  17.474  0.00  0.00    +0.000 A 
ATOM     24  C   UNL     1       7.233   5.289  17.273  0.00  0.00    +0.000 A 
ATOM     25  C   UNL     1       6.813   4.241  16.457  0.00  0.00    +0.000 A 
ATOM     26  C   UNL     1       5.574   4.312  15.820  0.00  0.00    +0.000 A 
ATOM     27  C   UNL     1       4.744   5.419  16.014  0.00  0.00    +0.000 A 
ENDBRANCH  21  22
BRANCH  20  28
ATOM     28  N   UNL     1       3.207   6.494  19.093  0.00  0.00    +0.000 N 
ATOM     29  C   UNL     1       2.393   5.409  18.778  0.00  0.00    +0.000 C 
ATOM     30  O   UNL     1       1.708   5.317  17.765  0.00  0.00    +0.000 OA
ATOM     31  H   UNL     1       4.123   6.140  19.374  0.00  0.00    +0.000 HD
BRANCH  29  32
ATOM     32  C   UNL     1       2.438   4.283  19.766  0.00  0.00    +0.000 A 
ATOM     33  C   UNL     1       1.327   3.996  20.571  0.00  0.00    +0.000 A 
ATOM     34  C   UNL     1       1.350   2.906  21.444  0.00  0.00    +0.000 A 
ATOM     35  C   UNL     1       2.483   2.097  21.524  0.00  0.00    +0.000 A 
ATOM     36  C   UNL     1       3.597   2.379  20.731  0.00  0.00    +0.000 A 
ATOM     37  C   UNL     1       3.575   3.467  19.850  0.00  0.00    +0.000 A 
ENDBRANCH  29  32
ENDBRANCH  20  28
ENDBRANCH   2  20
TORSDOF 9
ENDMDL
