MODEL 1
REMARK VINA RESULT:      -8.8      0.000      0.000
REMARK  Name = 
REMARK  4 active torsions:
REMARK  status: ('A' for Active; 'I' for Inactive)
REMARK    1  A    between atoms: C_1  and  C_2
REMARK    2  A    between atoms: N_7  and  C_8
REMARK    3  A    between atoms: C_13  and  C_14
REMARK    4  A    between atoms: C_17  and  C_19
REMARK                            x       y       z     vdW  Elec       q    Type
REMARK                         _______ _______ _______ _____ _____    ______ ____
ROOT
ATOM      1  C   UNL     1       2.852   6.975  19.564  0.00  0.00    +0.000 C 
ATOM      2  C   UNL     1       2.176   7.459  18.244  0.00  0.00    +0.000 C 
ATOM      3  N   UNL     1       1.715   8.609  19.012  0.00  0.00    +0.000 N 
ATOM      4  C   UNL     1       0.739   9.531  18.697  0.00  0.00    +0.000 C 
ATOM      5  O   UNL     1       0.206   9.568  17.589  0.00  0.00    +0.000 OA
ATOM      6  C   UNL     1       1.841   7.898  20.273  0.00  0.00    +0.000 C 
ENDROOT
BRANCH   4   7
ATOM      7  C   UNL     1       0.395  10.477  19.753  0.00  0.00    +0.000 A 
ATOM      8  N   UNL     1       0.886  11.699  19.897  0.00  0.00    +0.000 NA
ATOM      9  C   UNL     1       0.230  12.250  20.966  0.00  0.00    +0.000 A 
ATOM     10  C   UNL     1       0.348  13.531  21.526  0.00  0.00    +0.000 A 
ATOM     11  C   UNL     1      -0.450  13.856  22.628  0.00  0.00    +0.000 A 
ATOM     12  C   UNL     1      -1.341  12.924  23.164  0.00  0.00    +0.000 A 
ATOM     13  C   UNL     1      -1.472  11.641  22.617  0.00  0.00    +0.000 A 
ATOM     14  C   UNL     1      -0.669  11.344  21.514  0.00  0.00    +0.000 A 
ATOM     15  N   UNL     1      -0.543  10.227  20.728  0.00  0.00    +0.000 N 
ATOM     16  H   UNL     1      -1.058   9.362  20.815  0.00  0.00    +0.000 HD
ENDBRANCH   4   7
BRANCH   1  22
ATOM     17  C   UNL     1       3.458   4.378  19.117  0.00  0.00    +0.000 A 
ATOM     18  N   UNL     1       3.250   3.081  19.470  0.00  0.00    +0.000 NA
ATOM     19  C   UNL     1       2.545   2.835  20.593  0.00  0.00    +0.000 A 
ATOM     20  C   UNL     1       2.039   3.843  21.377  0.00  0.00    +0.000 A 
ATOM     21  N   UNL     1       2.196   5.141  21.053  0.00  0.00    +0.000 NA
ATOM     22  C   UNL     1       2.895   5.424  19.910  0.00  0.00    +0.000 A 
BRANCH  17  29
ATOM     23  C   UNL     1       6.484   4.203  13.559  0.00  0.00    +0.000 C 
ATOM     24  C   UNL     1       6.915   4.746  14.892  0.00  0.00    +0.000 C 
ATOM     25  O   UNL     1       7.791   5.611  14.947  0.00  0.00    +0.000 OA
ATOM     26  N   UNL     1       6.281   4.257  16.014  0.00  0.00    +0.000 N 
ATOM     27  C   UNL     1       6.625   4.807  17.314  0.00  0.00    +0.000 C 
ATOM     28  C   UNL     1       5.406   5.442  17.987  0.00  0.00    +0.000 C 
ATOM     29  N   UNL     1       4.236   4.569  17.993  0.00  0.00    +0.000 N 
ATOM     30  C   UNL     1       3.923   3.857  16.742  0.00  0.00    +0.000 C 
ATOM     31  C   UNL     1       5.189   3.276  16.069  0.00  0.00    +0.000 C 
ENDBRANCH  17  29
ENDBRANCH   1  22
TORSDOF 3
ENDMDL
MODEL 2
REMARK VINA RESULT:      -8.7      0.155      1.068
REMARK  Name = 
REMARK  4 active torsions:
REMARK  status: ('A' for Active; 'I' for Inactive)
REMARK    1  A    between atoms: C_1  and  C_2
REMARK    2  A    between atoms: N_7  and  C_8
REMARK    3  A    between atoms: C_13  and  C_14
REMARK    4  A    between atoms: C_17  and  C_19
REMARK                            x       y       z     vdW  Elec       q    Type
REMARK                         _______ _______ _______ _____ _____    ______ ____
ROOT
ATOM      1  C   UNL     1       2.869   6.902  19.722  0.00  0.00    +0.000 C 
ATOM      2  C   UNL     1       2.344   7.405  18.342  0.00  0.00    +0.000 C 
ATOM      3  N   UNL     1       1.770   8.527  19.075  0.00  0.00    +0.000 N 
ATOM      4  C   UNL     1       0.818   9.437  18.667  0.00  0.00    +0.000 C 
ATOM      5  O   UNL     1       0.420   9.491  17.505  0.00  0.00    +0.000 OA
ATOM      6  C   UNL     1       1.762   7.788  20.327  0.00  0.00    +0.000 C 
ENDROOT
BRANCH   4   7
ATOM      7  C   UNL     1       0.330  10.351  19.694  0.00  0.00    +0.000 A 
ATOM      8  N   UNL     1      -0.519  10.051  20.666  0.00  0.00    +0.000 NA
ATOM      9  C   UNL     1      -0.633  11.180  21.434  0.00  0.00    +0.000 A 
ATOM     10  C   UNL     1      -1.381  11.398  22.601  0.00  0.00    +0.000 A 
ATOM     11  C   UNL     1      -1.323  12.657  23.208  0.00  0.00    +0.000 A 
ATOM     12  C   UNL     1      -0.542  13.678  22.663  0.00  0.00    +0.000 A 
ATOM     13  C   UNL     1       0.211  13.477  21.498  0.00  0.00    +0.000 A 
ATOM     14  C   UNL     1       0.141  12.211  20.915  0.00  0.00    +0.000 A 
ATOM     15  N   UNL     1       0.739  11.659  19.811  0.00  0.00    +0.000 N 
ATOM     16  H   UNL     1       1.393  12.110  19.186  0.00  0.00    +0.000 HD
ENDBRANCH   4   7
BRANCH   1  22
ATOM     17  C   UNL     1       3.456   4.311  19.219  0.00  0.00    +0.000 A 
ATOM     18  N   UNL     1       3.242   3.008  19.548  0.00  0.00    +0.000 NA
ATOM     19  C   UNL     1       2.545   2.744  20.671  0.00  0.00    +0.000 A 
ATOM     20  C   UNL     1       2.052   3.740  21.479  0.00  0.00    +0.000 A 
ATOM     21  N   UNL     1       2.214   5.042  21.180  0.00  0.00    +0.000 NA
ATOM     22  C   UNL     1       2.906   5.344  20.037  0.00  0.00    +0.000 A 
BRANCH  17  29
ATOM     23  C   UNL     1       6.429   4.233  13.631  0.00  0.00    +0.000 C 
ATOM     24  C   UNL     1       6.879   4.739  14.973  0.00  0.00    +0.000 C 
ATOM     25  O   UNL     1       7.766   5.592  15.040  0.00  0.00    +0.000 OA
ATOM     26  N   UNL     1       6.249   4.231  16.088  0.00  0.00    +0.000 N 
ATOM     27  C   UNL     1       6.611   4.745  17.398  0.00  0.00    +0.000 C 
ATOM     28  C   UNL     1       5.407   5.378  18.097  0.00  0.00    +0.000 C 
ATOM     29  N   UNL     1       4.226   4.519  18.093  0.00  0.00    +0.000 N 
ATOM     30  C   UNL     1       3.893   3.841  16.828  0.00  0.00    +0.000 C 
ATOM     31  C   UNL     1       5.145   3.262  16.130  0.00  0.00    +0.000 C 
ENDBRANCH  17  29
ENDBRANCH   1  22
TORSDOF 3
ENDMDL
MODEL 3
REMARK VINA RESULT:      -8.4      1.705      9.219
REMARK  Name = 
REMARK  4 active torsions:
REMARK  status: ('A' for Active; 'I' for Inactive)
REMARK    1  A    between atoms: C_1  and  C_2
REMARK    2  A    between atoms: N_7  and  C_8
REMARK    3  A    between atoms: C_13  and  C_14
REMARK    4  A    between atoms: C_17  and  C_19
REMARK                            x       y       z     vdW  Elec       q    Type
REMARK                         _______ _______ _______ _____ _____    ______ ____
ROOT
ATOM      1  C   UNL     1       4.305   5.681  18.677  0.00  0.00    +0.000 C 
ATOM      2  C   UNL     1       5.737   5.242  19.114  0.00  0.00    +0.000 C 
ATOM      3  N   UNL     1       6.059   5.208  17.692  0.00  0.00    +0.000 N 
ATOM      4  C   UNL     1       7.137   4.629  17.059  0.00  0.00    +0.000 C 
ATOM      5  O   UNL     1       8.089   4.162  17.681  0.00  0.00    +0.000 OA
ATOM      6  C   UNL     1       4.664   5.054  17.315  0.00  0.00    +0.000 C 
ENDROOT
BRANCH   4   7
ATOM      7  C   UNL     1       7.091   4.627  15.600  0.00  0.00    +0.000 A 
ATOM      8  N   UNL     1       7.733   5.463  14.798  0.00  0.00    +0.000 NA
ATOM      9  C   UNL     1       7.463   5.048  13.520  0.00  0.00    +0.000 A 
ATOM     10  C   UNL     1       7.916   5.563  12.296  0.00  0.00    +0.000 A 
ATOM     11  C   UNL     1       7.494   4.947  11.113  0.00  0.00    +0.000 A 
ATOM     12  C   UNL     1       6.637   3.845  11.148  0.00  0.00    +0.000 A 
ATOM     13  C   UNL     1       6.175   3.317  12.361  0.00  0.00    +0.000 A 
ATOM     14  C   UNL     1       6.616   3.947  13.527  0.00  0.00    +0.000 A 
ATOM     15  N   UNL     1       6.393   3.702  14.858  0.00  0.00    +0.000 N 
ATOM     16  H   UNL     1       5.834   2.959  15.254  0.00  0.00    +0.000 HD
ENDBRANCH   4   7
BRANCH   1  22
ATOM     17  C   UNL     1       2.057   5.959  20.153  0.00  0.00    +0.000 A 
ATOM     18  N   UNL     1       1.135   5.358  20.953  0.00  0.00    +0.000 NA
ATOM     19  C   UNL     1       1.160   4.013  21.048  0.00  0.00    +0.000 A 
ATOM     20  C   UNL     1       2.077   3.247  20.370  0.00  0.00    +0.000 A 
ATOM     21  N   UNL     1       3.025   3.799  19.590  0.00  0.00    +0.000 NA
ATOM     22  C   UNL     1       3.036   5.164  19.484  0.00  0.00    +0.000 A 
BRANCH  17  29
ATOM     23  C   UNL     1       0.812  12.144  20.679  0.00  0.00    +0.000 C 
ATOM     24  C   UNL     1       1.101  11.303  19.467  0.00  0.00    +0.000 C 
ATOM     25  O   UNL     1       1.537  11.832  18.444  0.00  0.00    +0.000 OA
ATOM     26  N   UNL     1       0.883   9.946  19.569  0.00  0.00    +0.000 N 
ATOM     27  C   UNL     1       1.214   9.093  18.440  0.00  0.00    +0.000 C 
ATOM     28  C   UNL     1       2.271   8.054  18.822  0.00  0.00    +0.000 C 
ATOM     29  N   UNL     1       1.945   7.331  20.048  0.00  0.00    +0.000 N 
ATOM     30  C   UNL     1       1.451   8.127  21.186  0.00  0.00    +0.000 C 
ATOM     31  C   UNL     1       0.426   9.198  20.747  0.00  0.00    +0.000 C 
ENDBRANCH  17  29
ENDBRANCH   1  22
TORSDOF 3
ENDMDL
MODEL 4
REMARK VINA RESULT:      -8.2      2.918      9.143
REMARK  Name = 
REMARK  4 active torsions:
REMARK  status: ('A' for Active; 'I' for Inactive)
REMARK    1  A    between atoms: C_1  and  C_2
REMARK    2  A    between atoms: N_7  and  C_8
REMARK    3  A    between atoms: C_13  and  C_14
REMARK    4  A    between atoms: C_17  and  C_19
REMARK                            x       y       z     vdW  Elec       q    Type
REMARK                         _______ _______ _______ _____ _____    ______ ____
ROOT
ATOM      1  C   UNL     1       1.539   9.473  19.539  0.00  0.00    +0.000 C 
ATOM      2  C   UNL     1       1.063   8.307  20.460  0.00  0.00    +0.000 C 
ATOM      3  N   UNL     1       2.121   7.514  19.845  0.00  0.00    +0.000 N 
ATOM      4  C   UNL     1       2.308   6.149  19.864  0.00  0.00    +0.000 C 
ATOM      5  O   UNL     1       1.629   5.405  20.571  0.00  0.00    +0.000 OA
ATOM      6  C   UNL     1       2.160   8.364  18.666  0.00  0.00    +0.000 C 
ENDROOT
BRANCH   4   7
ATOM      7  C   UNL     1       3.378   5.641  19.012  0.00  0.00    +0.000 A 
ATOM      8  N   UNL     1       3.234   5.135  17.796  0.00  0.00    +0.000 NA
ATOM      9  C   UNL     1       4.499   4.861  17.345  0.00  0.00    +0.000 A 
ATOM     10  C   UNL     1       4.917   4.341  16.111  0.00  0.00    +0.000 A 
ATOM     11  C   UNL     1       6.286   4.157  15.891  0.00  0.00    +0.000 A 
ATOM     12  C   UNL     1       7.218   4.479  16.880  0.00  0.00    +0.000 A 
ATOM     13  C   UNL     1       6.818   5.000  18.118  0.00  0.00    +0.000 A 
ATOM     14  C   UNL     1       5.446   5.179  18.310  0.00  0.00    +0.000 A 
ATOM     15  N   UNL     1       4.709   5.669  19.357  0.00  0.00    +0.000 N 
ATOM     16  H   UNL     1       5.063   6.021  20.237  0.00  0.00    +0.000 HD
ENDBRANCH   4   7
BRANCH   1  22
ATOM     17  C   UNL     1       0.565  11.900  18.853  0.00  0.00    +0.000 A 
ATOM     18  N   UNL     1      -0.515  12.625  18.453  0.00  0.00    +0.000 NA
ATOM     19  C   UNL     1      -1.628  11.955  18.090  0.00  0.00    +0.000 A 
ATOM     20  C   UNL     1      -1.700  10.583  18.113  0.00  0.00    +0.000 A 
ATOM     21  N   UNL     1      -0.667   9.826  18.527  0.00  0.00    +0.000 NA
ATOM     22  C   UNL     1       0.474  10.476  18.917  0.00  0.00    +0.000 A 
BRANCH  17  29
ATOM     23  C   UNL     1       5.098  15.611  21.251  0.00  0.00    +0.000 C 
ATOM     24  C   UNL     1       4.757  15.278  19.826  0.00  0.00    +0.000 C 
ATOM     25  O   UNL     1       5.616  15.386  18.949  0.00  0.00    +0.000 OA
ATOM     26  N   UNL     1       3.478  14.835  19.564  0.00  0.00    +0.000 N 
ATOM     27  C   UNL     1       3.133  14.440  18.210  0.00  0.00    +0.000 C 
ATOM     28  C   UNL     1       2.700  12.973  18.153  0.00  0.00    +0.000 C 
ATOM     29  N   UNL     1       1.693  12.635  19.154  0.00  0.00    +0.000 N 
ATOM     30  C   UNL     1       1.908  13.142  20.521  0.00  0.00    +0.000 C 
ATOM     31  C   UNL     1       2.394  14.610  20.529  0.00  0.00    +0.000 C 
ENDBRANCH  17  29
ENDBRANCH   1  22
TORSDOF 3
ENDMDL
MODEL 5
REMARK VINA RESULT:      -8.1      2.795      9.698
REMARK  Name = 
REMARK  4 active torsions:
REMARK  status: ('A' for Active; 'I' for Inactive)
REMARK    1  A    between atoms: C_1  and  C_2
REMARK    2  A    between atoms: N_7  and  C_8
REMARK    3  A    between atoms: C_13  and  C_14
REMARK    4  A    between atoms: C_17  and  C_19
REMARK                            x       y       z     vdW  Elec       q    Type
REMARK                         _______ _______ _______ _____ _____    ______ ____
ROOT
ATOM      1  C   UNL     1       0.304  10.212  18.434  0.00  0.00    +0.000 C 
ATOM      2  C   UNL     1       0.565   9.522  19.808  0.00  0.00    +0.000 C 
ATOM      3  N   UNL     1       1.543   8.700  19.104  0.00  0.00    +0.000 N 
ATOM      4  C   UNL     1       2.146   7.528  19.508  0.00  0.00    +0.000 C 
ATOM      5  O   UNL     1       2.022   7.087  20.649  0.00  0.00    +0.000 OA
ATOM      6  C   UNL     1       0.908   8.933  17.818  0.00  0.00    +0.000 C 
ENDROOT
BRANCH   4   7
ATOM      7  C   UNL     1       2.964   6.856  18.504  0.00  0.00    +0.000 A 
ATOM      8  N   UNL     1       3.800   7.440  17.659  0.00  0.00    +0.000 NA
ATOM      9  C   UNL     1       4.405   6.428  16.960  0.00  0.00    +0.000 A 
ATOM     10  C   UNL     1       5.392   6.492  15.965  0.00  0.00    +0.000 A 
ATOM     11  C   UNL     1       5.855   5.297  15.404  0.00  0.00    +0.000 A 
ATOM     12  C   UNL     1       5.342   4.067  15.819  0.00  0.00    +0.000 A 
ATOM     13  C   UNL     1       4.355   3.985  16.811  0.00  0.00    +0.000 A 
ATOM     14  C   UNL     1       3.915   5.191  17.360  0.00  0.00    +0.000 A 
ATOM     15  N   UNL     1       3.001   5.490  18.337  0.00  0.00    +0.000 N 
ATOM     16  H   UNL     1       2.453   4.835  18.877  0.00  0.00    +0.000 HD
ENDBRANCH   4   7
BRANCH   1  22
ATOM     17  C   UNL     1      -1.924  11.731  18.623  0.00  0.00    +0.000 A 
ATOM     18  N   UNL     1      -3.238  11.875  18.300  0.00  0.00    +0.000 NA
ATOM     19  C   UNL     1      -3.767  11.019  17.402  0.00  0.00    +0.000 A 
ATOM     20  C   UNL     1      -3.027  10.023  16.814  0.00  0.00    +0.000 A 
ATOM     21  N   UNL     1      -1.731   9.825  17.122  0.00  0.00    +0.000 NA
ATOM     22  C   UNL     1      -1.167  10.668  18.043  0.00  0.00    +0.000 A 
BRANCH  17  29
ATOM     23  C   UNL     1       1.216  16.252  21.751  0.00  0.00    +0.000 C 
ATOM     24  C   UNL     1       0.455  15.058  22.257  0.00  0.00    +0.000 C 
ATOM     25  O   UNL     1       0.009  15.058  23.406  0.00  0.00    +0.000 OA
ATOM     26  N   UNL     1       0.267  14.008  21.385  0.00  0.00    +0.000 N 
ATOM     27  C   UNL     1      -0.521  12.866  21.818  0.00  0.00    +0.000 C 
ATOM     28  C   UNL     1      -1.747  12.668  20.924  0.00  0.00    +0.000 C 
ATOM     29  N   UNL     1      -1.423  12.672  19.500  0.00  0.00    +0.000 N 
ATOM     30  C   UNL     1      -0.500  13.717  19.024  0.00  0.00    +0.000 C 
ATOM     31  C   UNL     1       0.696  13.919  19.983  0.00  0.00    +0.000 C 
ENDBRANCH  17  29
ENDBRANCH   1  22
TORSDOF 3
ENDMDL
MODEL 6
REMARK VINA RESULT:      -8.1      1.701      9.273
REMARK  Name = 
REMARK  4 active torsions:
REMARK  status: ('A' for Active; 'I' for Inactive)
REMARK    1  A    between atoms: C_1  and  C_2
REMARK    2  A    between atoms: N_7  and  C_8
REMARK    3  A    between atoms: C_13  and  C_14
REMARK    4  A    between atoms: C_17  and  C_19
REMARK                            x       y       z     vdW  Elec       q    Type
REMARK                         _______ _______ _______ _____ _____    ______ ____
ROOT
ATOM      1  C   UNL     1       4.200   5.728  18.581  0.00  0.00    +0.000 C 
ATOM      2  C   UNL     1       5.639   5.401  19.087  0.00  0.00    +0.000 C 
ATOM      3  N   UNL     1       6.001   5.265  17.681  0.00  0.00    +0.000 N 
ATOM      4  C   UNL     1       7.122   4.691  17.123  0.00  0.00    +0.000 C 
ATOM      5  O   UNL     1       8.079   4.326  17.804  0.00  0.00    +0.000 OA
ATOM      6  C   UNL     1       4.625   5.009  17.286  0.00  0.00    +0.000 C 
ENDROOT
BRANCH   4   7
ATOM      7  C   UNL     1       7.116   4.564  15.669  0.00  0.00    +0.000 A 
ATOM      8  N   UNL     1       6.462   3.650  14.968  0.00  0.00    +0.000 NA
ATOM      9  C   UNL     1       6.678   3.955  13.650  0.00  0.00    +0.000 A 
ATOM     10  C   UNL     1       6.193   3.325  12.493  0.00  0.00    +0.000 A 
ATOM     11  C   UNL     1       6.560   3.841  11.246  0.00  0.00    +0.000 A 
ATOM     12  C   UNL     1       7.397   4.954  11.152  0.00  0.00    +0.000 A 
ATOM     13  C   UNL     1       7.891   5.595  12.296  0.00  0.00    +0.000 A 
ATOM     14  C   UNL     1       7.505   5.065  13.528  0.00  0.00    +0.000 A 
ATOM     15  N   UNL     1       7.770   5.430  14.823  0.00  0.00    +0.000 N 
ATOM     16  H   UNL     1       8.329   6.214  15.131  0.00  0.00    +0.000 HD
ENDBRANCH   4   7
BRANCH   1  22
ATOM     17  C   UNL     1       1.985   6.015  20.106  0.00  0.00    +0.000 A 
ATOM     18  N   UNL     1       1.067   5.412  20.909  0.00  0.00    +0.000 NA
ATOM     19  C   UNL     1       1.068   4.066  20.973  0.00  0.00    +0.000 A 
ATOM     20  C   UNL     1       1.958   3.298  20.261  0.00  0.00    +0.000 A 
ATOM     21  N   UNL     1       2.902   3.850  19.475  0.00  0.00    +0.000 NA
ATOM     22  C   UNL     1       2.937   5.217  19.400  0.00  0.00    +0.000 A 
BRANCH  17  29
ATOM     23  C   UNL     1       0.850  12.207  20.780  0.00  0.00    +0.000 C 
ATOM     24  C   UNL     1       1.124  11.389  19.549  0.00  0.00    +0.000 C 
ATOM     25  O   UNL     1       1.568  11.936  18.538  0.00  0.00    +0.000 OA
ATOM     26  N   UNL     1       0.882  10.034  19.618  0.00  0.00    +0.000 N 
ATOM     27  C   UNL     1       1.197   9.203  18.469  0.00  0.00    +0.000 C 
ATOM     28  C   UNL     1       2.235   8.137  18.825  0.00  0.00    +0.000 C 
ATOM     29  N   UNL     1       1.897   7.391  20.033  0.00  0.00    +0.000 N 
ATOM     30  C   UNL     1       1.419   8.167  21.191  0.00  0.00    +0.000 C 
ATOM     31  C   UNL     1       0.412   9.266  20.779  0.00  0.00    +0.000 C 
ENDBRANCH  17  29
ENDBRANCH   1  22
TORSDOF 3
ENDMDL
MODEL 7
REMARK VINA RESULT:      -8.1      0.929      1.067
REMARK  Name = 
REMARK  4 active torsions:
REMARK  status: ('A' for Active; 'I' for Inactive)
REMARK    1  A    between atoms: C_1  and  C_2
REMARK    2  A    between atoms: N_7  and  C_8
REMARK    3  A    between atoms: C_13  and  C_14
REMARK    4  A    between atoms: C_17  and  C_19
REMARK                            x       y       z     vdW  Elec       q    Type
REMARK                         _______ _______ _______ _____ _____    ______ ____
ROOT
ATOM      1  C   UNL     1       2.646   6.596  20.041  0.00  0.00    +0.000 C 
ATOM      2  C   UNL     1       2.723   7.307  18.654  0.00  0.00    +0.000 C 
ATOM      3  N   UNL     1       1.918   8.364  19.256  0.00  0.00    +0.000 N 
ATOM      4  C   UNL     1       1.221   9.383  18.643  0.00  0.00    +0.000 C 
ATOM      5  O   UNL     1       1.321   9.613  17.439  0.00  0.00    +0.000 OA
ATOM      6  C   UNL     1       1.401   7.473  20.281  0.00  0.00    +0.000 C 
ENDROOT
BRANCH   4   7
ATOM      7  C   UNL     1       0.375  10.189  19.516  0.00  0.00    +0.000 A 
ATOM      8  N   UNL     1       0.643  10.528  20.768  0.00  0.00    +0.000 NA
ATOM      9  C   UNL     1      -0.382  11.343  21.171  0.00  0.00    +0.000 A 
ATOM     10  C   UNL     1      -0.576  12.001  22.395  0.00  0.00    +0.000 A 
ATOM     11  C   UNL     1      -1.718  12.792  22.556  0.00  0.00    +0.000 A 
ATOM     12  C   UNL     1      -2.649  12.921  21.524  0.00  0.00    +0.000 A 
ATOM     13  C   UNL     1      -2.471  12.272  20.295  0.00  0.00    +0.000 A 
ATOM     14  C   UNL     1      -1.320  11.494  20.157  0.00  0.00    +0.000 A 
ATOM     15  N   UNL     1      -0.818  10.749  19.121  0.00  0.00    +0.000 N 
ATOM     16  H   UNL     1      -1.224  10.635  18.202  0.00  0.00    +0.000 HD
ENDBRANCH   4   7
BRANCH   1  22
ATOM     17  C   UNL     1       3.061   4.066  19.184  0.00  0.00    +0.000 A 
ATOM     18  N   UNL     1       2.720   2.753  19.294  0.00  0.00    +0.000 NA
ATOM     19  C   UNL     1       1.918   2.391  20.316  0.00  0.00    +0.000 A 
ATOM     20  C   UNL     1       1.445   3.297  21.234  0.00  0.00    +0.000 A 
ATOM     21  N   UNL     1       1.733   4.609  21.150  0.00  0.00    +0.000 NA
ATOM     22  C   UNL     1       2.533   5.012  20.114  0.00  0.00    +0.000 A 
BRANCH  17  29
ATOM     23  C   UNL     1       6.503   4.488  13.887  0.00  0.00    +0.000 C 
ATOM     24  C   UNL     1       6.848   4.828  15.310  0.00  0.00    +0.000 C 
ATOM     25  O   UNL     1       7.748   5.637  15.544  0.00  0.00    +0.000 OA
ATOM     26  N   UNL     1       6.111   4.226  16.306  0.00  0.00    +0.000 N 
ATOM     27  C   UNL     1       6.372   4.581  17.690  0.00  0.00    +0.000 C 
ATOM     28  C   UNL     1       5.129   5.178  18.353  0.00  0.00    +0.000 C 
ATOM     29  N   UNL     1       3.931   4.367  18.156  0.00  0.00    +0.000 N 
ATOM     30  C   UNL     1       3.691   3.842  16.800  0.00  0.00    +0.000 C 
ATOM     31  C   UNL     1       4.983   3.298  16.148  0.00  0.00    +0.000 C 
ENDBRANCH  17  29
ENDBRANCH   1  22
TORSDOF 3
ENDMDL
MODEL 8
REMARK VINA RESULT:      -8.1      2.786      9.708
REMARK  Name = 
REMARK  4 active torsions:
REMARK  status: ('A' for Active; 'I' for Inactive)
REMARK    1  A    between atoms: C_1  and  C_2
REMARK    2  A    between atoms: N_7  and  C_8
REMARK    3  A    between atoms: C_13  and  C_14
REMARK    4  A    between atoms: C_17  and  C_19
REMARK                            x       y       z     vdW  Elec       q    Type
REMARK                         _______ _______ _______ _____ _____    ______ ____
ROOT
ATOM      1  C   UNL     1       0.373  10.155  18.492  0.00  0.00    +0.000 C 
ATOM      2  C   UNL     1       0.585   9.479  19.882  0.00  0.00    +0.000 C 
ATOM      3  N   UNL     1       1.574   8.638  19.217  0.00  0.00    +0.000 N 
ATOM      4  C   UNL     1       2.151   7.464  19.651  0.00  0.00    +0.000 C 
ATOM      5  O   UNL     1       1.987   7.037  20.793  0.00  0.00    +0.000 OA
ATOM      6  C   UNL     1       0.979   8.863  17.909  0.00  0.00    +0.000 C 
ENDROOT
BRANCH   4   7
ATOM      7  C   UNL     1       2.990   6.770  18.680  0.00  0.00    +0.000 A 
ATOM      8  N   UNL     1       3.081   5.458  18.523  0.00  0.00    +0.000 NA
ATOM      9  C   UNL     1       3.918   5.258  17.457  0.00  0.00    +0.000 A 
ATOM     10  C   UNL     1       4.330   4.061  16.853  0.00  0.00    +0.000 A 
ATOM     11  C   UNL     1       5.197   4.127  15.758  0.00  0.00    +0.000 A 
ATOM     12  C   UNL     1       5.649   5.358  15.278  0.00  0.00    +0.000 A 
ATOM     13  C   UNL     1       5.248   6.564  15.869  0.00  0.00    +0.000 A 
ATOM     14  C   UNL     1       4.377   6.470  16.957  0.00  0.00    +0.000 A 
ATOM     15  N   UNL     1       3.776   7.412  17.751  0.00  0.00    +0.000 N 
ATOM     16  H   UNL     1       3.860   8.416  17.673  0.00  0.00    +0.000 HD
ENDBRANCH   4   7
BRANCH   1  22
ATOM     17  C   UNL     1      -1.840  11.705  18.595  0.00  0.00    +0.000 A 
ATOM     18  N   UNL     1      -3.142  11.860  18.232  0.00  0.00    +0.000 NA
ATOM     19  C   UNL     1      -3.656  10.998  17.332  0.00  0.00    +0.000 A 
ATOM     20  C   UNL     1      -2.912   9.984  16.780  0.00  0.00    +0.000 A 
ATOM     21  N   UNL     1      -1.629   9.774  17.128  0.00  0.00    +0.000 NA
ATOM     22  C   UNL     1      -1.080  10.624  18.052  0.00  0.00    +0.000 A 
BRANCH  17  29
ATOM     23  C   UNL     1       1.237  16.267  21.725  0.00  0.00    +0.000 C 
ATOM     24  C   UNL     1       0.491  15.064  22.230  0.00  0.00    +0.000 C 
ATOM     25  O   UNL     1       0.045  15.058  23.379  0.00  0.00    +0.000 OA
ATOM     26  N   UNL     1       0.318  14.011  21.359  0.00  0.00    +0.000 N 
ATOM     27  C   UNL     1      -0.455  12.859  21.791  0.00  0.00    +0.000 C 
ATOM     28  C   UNL     1      -1.678  12.645  20.896  0.00  0.00    +0.000 C 
ATOM     29  N   UNL     1      -1.353  12.652  19.473  0.00  0.00    +0.000 N 
ATOM     30  C   UNL     1      -0.443  13.709  18.997  0.00  0.00    +0.000 C 
ATOM     31  C   UNL     1       0.749  13.928  19.957  0.00  0.00    +0.000 C 
ENDBRANCH  17  29
ENDBRANCH   1  22
TORSDOF 3
ENDMDL
MODEL 9
REMARK VINA RESULT:      -8.0      2.900      9.151
REMARK  Name = 
REMARK  4 active torsions:
REMARK  status: ('A' for Active; 'I' for Inactive)
REMARK    1  A    between atoms: C_1  and  C_2
REMARK    2  A    between atoms: N_7  and  C_8
REMARK    3  A    between atoms: C_13  and  C_14
REMARK    4  A    between atoms: C_17  and  C_19
REMARK                            x       y       z     vdW  Elec       q    Type
REMARK                         _______ _______ _______ _____ _____    ______ ____
ROOT
ATOM      1  C   UNL     1       1.461   9.519  19.615  0.00  0.00    +0.000 C 
ATOM      2  C   UNL     1       1.010   8.289  20.462  0.00  0.00    +0.000 C 
ATOM      3  N   UNL     1       2.113   7.571  19.836  0.00  0.00    +0.000 N 
ATOM      4  C   UNL     1       2.353   6.214  19.789  0.00  0.00    +0.000 C 
ATOM      5  O   UNL     1       1.688   5.409  20.438  0.00  0.00    +0.000 OA
ATOM      6  C   UNL     1       2.148   8.482  18.704  0.00  0.00    +0.000 C 
ENDROOT
BRANCH   4   7
ATOM      7  C   UNL     1       3.464   5.793  18.941  0.00  0.00    +0.000 A 
ATOM      8  N   UNL     1       4.745   5.792  19.277  0.00  0.00    +0.000 NA
ATOM      9  C   UNL     1       5.417   5.251  18.212  0.00  0.00    +0.000 A 
ATOM     10  C   UNL     1       6.787   4.993  18.055  0.00  0.00    +0.000 A 
ATOM     11  C   UNL     1       7.228   4.421  16.857  0.00  0.00    +0.000 A 
ATOM     12  C   UNL     1       6.325   4.118  15.836  0.00  0.00    +0.000 A 
ATOM     13  C   UNL     1       4.953   4.368  15.976  0.00  0.00    +0.000 A 
ATOM     14  C   UNL     1       4.539   4.933  17.184  0.00  0.00    +0.000 A 
ATOM     15  N   UNL     1       3.307   5.290  17.670  0.00  0.00    +0.000 N 
ATOM     16  H   UNL     1       2.417   5.187  17.204  0.00  0.00    +0.000 HD
ENDBRANCH   4   7
BRANCH   1  22
ATOM     17  C   UNL     1       0.457  11.935  18.935  0.00  0.00    +0.000 A 
ATOM     18  N   UNL     1      -0.638  12.652  18.562  0.00  0.00    +0.000 NA
ATOM     19  C   UNL     1      -1.759  11.975  18.243  0.00  0.00    +0.000 A 
ATOM     20  C   UNL     1      -1.825  10.604  18.283  0.00  0.00    +0.000 A 
ATOM     21  N   UNL     1      -0.777   9.854  18.671  0.00  0.00    +0.000 NA
ATOM     22  C   UNL     1       0.374  10.512  19.017  0.00  0.00    +0.000 A 
BRANCH  17  29
ATOM     23  C   UNL     1       5.030  15.732  21.114  0.00  0.00    +0.000 C 
ATOM     24  C   UNL     1       4.677  15.331  19.710  0.00  0.00    +0.000 C 
ATOM     25  O   UNL     1       5.531  15.389  18.823  0.00  0.00    +0.000 OA
ATOM     26  N   UNL     1       3.394  14.883  19.479  0.00  0.00    +0.000 N 
ATOM     27  C   UNL     1       3.036  14.424  18.148  0.00  0.00    +0.000 C 
ATOM     28  C   UNL     1       2.594  12.959  18.168  0.00  0.00    +0.000 C 
ATOM     29  N   UNL     1       1.592  12.678  19.191  0.00  0.00    +0.000 N 
ATOM     30  C   UNL     1       1.820  13.250  20.530  0.00  0.00    +0.000 C 
ATOM     31  C   UNL     1       2.315  14.713  20.461  0.00  0.00    +0.000 C 
ENDBRANCH  17  29
ENDBRANCH   1  22
TORSDOF 3
ENDMDL
