MODEL 1
REMARK VINA RESULT:      -8.4      0.000      0.000
REMARK  Name = 
REMARK  7 active torsions:
REMARK  status: ('A' for Active; 'I' for Inactive)
REMARK    1  A    between atoms: C_1  and  C_2
REMARK    2  A    between atoms: C_2  and  C_3
REMARK    3  A    between atoms: C_2  and  N_4
REMARK    4  A    between atoms: C_2  and  C_5
REMARK    5  A    between atoms: C_5  and  N_6
REMARK    6  A    between atoms: N_6  and  C_7
REMARK    7  A    between atoms: C_9  and  C_10
REMARK                            x       y       z     vdW  Elec       q    Type
REMARK                         _______ _______ _______ _____ _____    ______ ____
ROOT
ATOM      1  C   UNL     1       3.748   5.630  18.182  0.00  0.00    +0.000 A 
ATOM      2  N   UNL     1       3.218   6.765  18.670  0.00  0.00    +0.000 NA
ATOM      3  C   UNL     1       2.210   6.656  19.552  0.00  0.00    +0.000 A 
ATOM      4  N   UNL     1       1.702   5.490  19.984  0.00  0.00    +0.000 NA
ATOM      5  C   UNL     1       2.241   4.366  19.498  0.00  0.00    +0.000 A 
ATOM      6  C   UNL     1       1.784   3.124  19.911  0.00  0.00    +0.000 A 
ATOM      7  N   UNL     1       2.249   1.919  19.490  0.00  0.00    +0.000 NA
ATOM      8  C   UNL     1       3.254   1.948  18.599  0.00  0.00    +0.000 A 
ATOM      9  C   UNL     1       3.802   3.124  18.120  0.00  0.00    +0.000 A 
ATOM     10  C   UNL     1       3.283   4.361  18.572  0.00  0.00    +0.000 A 
ENDROOT
BRANCH   3  11
ATOM     11  C   UNL     1       1.607   7.894  20.094  0.00  0.00    +0.000 A 
ATOM     12  C   UNL     1       1.449   9.050  19.302  0.00  0.00    +0.000 A 
ATOM     13  C   UNL     1       0.865  10.232  19.789  0.00  0.00    +0.000 A 
ATOM     14  C   UNL     1       0.437  10.225  21.117  0.00  0.00    +0.000 A 
ATOM     15  N   UNL     1      -0.162  11.183  21.893  0.00  0.00    +0.000 N 
ATOM     16  N   UNL     1      -0.422  10.789  23.153  0.00  0.00    +0.000 NA
ATOM     17  C   UNL     1       0.030   9.531  23.183  0.00  0.00    +0.000 A 
ATOM     18  C   UNL     1       0.575   9.121  21.948  0.00  0.00    +0.000 A 
ATOM     19  C   UNL     1       1.164   7.951  21.436  0.00  0.00    +0.000 A 
ATOM     20  H   UNL     1      -0.423  12.123  21.622  0.00  0.00    +0.000 HD
ENDBRANCH   3  11
BRANCH   1  21
ATOM     21  N   UNL     1       4.873   5.712  17.362  0.00  0.00    +0.000 N 
ATOM     22  H   UNL     1       4.790   5.232  16.473  0.00  0.00    +0.000 HD
BRANCH  21  23
ATOM     23  C   UNL     1       5.575   6.981  17.220  0.00  0.00    +0.000 C 
BRANCH  23  25
ATOM     24  C   UNL     1       7.412   5.717  18.428  0.00  0.00    +0.000 C 
ATOM     25  C   UNL     1       7.114   6.724  17.303  0.00  0.00    +0.000 C 
ATOM     26  C   UNL     1       7.840   8.043  17.596  0.00  0.00    +0.000 C 
BRANCH  25  27
ATOM     27  N   UNL     1       7.632   6.162  16.031  0.00  0.00    +0.000 NA
ATOM     28  H   UNL     1       8.483   6.658  15.771  0.00  0.00    +0.000 HD
ATOM     29  H   UNL     1       6.963   6.341  15.283  0.00  0.00    +0.000 HD
ENDBRANCH  25  27
ENDBRANCH  23  25
ENDBRANCH  21  23
ENDBRANCH   1  21
TORSDOF 5
ENDMDL
MODEL 2
REMARK VINA RESULT:      -8.4      2.622      7.904
REMARK  Name = 
REMARK  7 active torsions:
REMARK  status: ('A' for Active; 'I' for Inactive)
REMARK    1  A    between atoms: C_1  and  C_2
REMARK    2  A    between atoms: C_2  and  C_3
REMARK    3  A    between atoms: C_2  and  N_4
REMARK    4  A    between atoms: C_2  and  C_5
REMARK    5  A    between atoms: C_5  and  N_6
REMARK    6  A    between atoms: N_6  and  C_7
REMARK    7  A    between atoms: C_9  and  C_10
REMARK                            x       y       z     vdW  Elec       q    Type
REMARK                         _______ _______ _______ _____ _____    ______ ____
ROOT
ATOM      1  C   UNL     1       0.739   9.467  18.485  0.00  0.00    +0.000 A 
ATOM      2  N   UNL     1       1.453   8.474  17.925  0.00  0.00    +0.000 NA
ATOM      3  C   UNL     1       2.109   7.635  18.745  0.00  0.00    +0.000 A 
ATOM      4  N   UNL     1       2.094   7.718  20.086  0.00  0.00    +0.000 NA
ATOM      5  C   UNL     1       1.375   8.705  20.633  0.00  0.00    +0.000 A 
ATOM      6  C   UNL     1       1.294   8.843  22.011  0.00  0.00    +0.000 A 
ATOM      7  N   UNL     1       0.601   9.800  22.681  0.00  0.00    +0.000 NA
ATOM      8  C   UNL     1      -0.075  10.682  21.925  0.00  0.00    +0.000 A 
ATOM      9  C   UNL     1      -0.081  10.641  20.544  0.00  0.00    +0.000 A 
ATOM     10  C   UNL     1       0.664   9.636  19.879  0.00  0.00    +0.000 A 
ENDROOT
BRANCH   3  11
ATOM     11  C   UNL     1       2.906   6.542  18.147  0.00  0.00    +0.000 A 
ATOM     12  C   UNL     1       2.426   5.218  18.093  0.00  0.00    +0.000 A 
ATOM     13  C   UNL     1       3.158   4.166  17.515  0.00  0.00    +0.000 A 
ATOM     14  C   UNL     1       4.409   4.483  16.986  0.00  0.00    +0.000 A 
ATOM     15  N   UNL     1       5.361   3.719  16.363  0.00  0.00    +0.000 N 
ATOM     16  N   UNL     1       6.459   4.402  15.992  0.00  0.00    +0.000 NA
ATOM     17  C   UNL     1       6.199   5.649  16.394  0.00  0.00    +0.000 A 
ATOM     18  C   UNL     1       4.938   5.765  17.019  0.00  0.00    +0.000 A 
ATOM     19  C   UNL     1       4.186   6.800  17.603  0.00  0.00    +0.000 A 
ATOM     20  H   UNL     1       5.321   2.728  16.158  0.00  0.00    +0.000 HD
ENDBRANCH   3  11
BRANCH   1  21
ATOM     21  N   UNL     1      -0.048  10.274  17.665  0.00  0.00    +0.000 N 
ATOM     22  H   UNL     1       0.437  10.680  16.873  0.00  0.00    +0.000 HD
BRANCH  21  23
ATOM     23  C   UNL     1      -1.394   9.847  17.305  0.00  0.00    +0.000 C 
BRANCH  23  25
ATOM     24  C   UNL     1      -3.377  11.205  18.118  0.00  0.00    +0.000 C 
ATOM     25  C   UNL     1      -2.276  11.110  17.046  0.00  0.00    +0.000 C 
ATOM     26  C   UNL     1      -2.925  11.007  15.659  0.00  0.00    +0.000 C 
BRANCH  25  27
ATOM     27  N   UNL     1      -1.465  12.351  17.106  0.00  0.00    +0.000 NA
ATOM     28  H   UNL     1      -0.572  12.143  17.550  0.00  0.00    +0.000 HD
ATOM     29  H   UNL     1      -1.927  13.030  17.709  0.00  0.00    +0.000 HD
ENDBRANCH  25  27
ENDBRANCH  23  25
ENDBRANCH  21  23
ENDBRANCH   1  21
TORSDOF 5
ENDMDL
MODEL 3
REMARK VINA RESULT:      -8.4      1.023      1.246
REMARK  Name = 
REMARK  7 active torsions:
REMARK  status: ('A' for Active; 'I' for Inactive)
REMARK    1  A    between atoms: C_1  and  C_2
REMARK    2  A    between atoms: C_2  and  C_3
REMARK    3  A    between atoms: C_2  and  N_4
REMARK    4  A    between atoms: C_2  and  C_5
REMARK    5  A    between atoms: C_5  and  N_6
REMARK    6  A    between atoms: N_6  and  C_7
REMARK    7  A    between atoms: C_9  and  C_10
REMARK                            x       y       z     vdW  Elec       q    Type
REMARK                         _______ _______ _______ _____ _____    ______ ____
ROOT
ATOM      1  C   UNL     1       4.063   5.601  18.504  0.00  0.00    +0.000 A 
ATOM      2  N   UNL     1       3.495   6.730  18.964  0.00  0.00    +0.000 NA
ATOM      3  C   UNL     1       2.321   6.622  19.611  0.00  0.00    +0.000 A 
ATOM      4  N   UNL     1       1.682   5.462  19.833  0.00  0.00    +0.000 NA
ATOM      5  C   UNL     1       2.258   4.344  19.378  0.00  0.00    +0.000 A 
ATOM      6  C   UNL     1       1.668   3.106  19.588  0.00  0.00    +0.000 A 
ATOM      7  N   UNL     1       2.155   1.907  19.174  0.00  0.00    +0.000 NA
ATOM      8  C   UNL     1       3.323   1.937  18.512  0.00  0.00    +0.000 A 
ATOM      9  C   UNL     1       4.012   3.107  18.252  0.00  0.00    +0.000 A 
ATOM     10  C   UNL     1       3.468   4.340  18.687  0.00  0.00    +0.000 A 
ENDROOT
BRANCH   3  11
ATOM     11  C   UNL     1       1.677   7.854  20.117  0.00  0.00    +0.000 A 
ATOM     12  C   UNL     1       1.476   8.979  19.291  0.00  0.00    +0.000 A 
ATOM     13  C   UNL     1       0.852  10.154  19.744  0.00  0.00    +0.000 A 
ATOM     14  C   UNL     1       0.428  10.172  21.073  0.00  0.00    +0.000 A 
ATOM     15  N   UNL     1      -0.203  11.132  21.821  0.00  0.00    +0.000 N 
ATOM     16  N   UNL     1      -0.446  10.767  23.093  0.00  0.00    +0.000 NA
ATOM     17  C   UNL     1       0.050   9.528  23.160  0.00  0.00    +0.000 A 
ATOM     18  C   UNL     1       0.606   9.100  21.936  0.00  0.00    +0.000 A 
ATOM     19  C   UNL     1       1.234   7.936  21.458  0.00  0.00    +0.000 A 
ATOM     20  H   UNL     1      -0.497  12.054  21.522  0.00  0.00    +0.000 HD
ENDBRANCH   3  11
BRANCH   1  21
ATOM     21  N   UNL     1       5.336   5.671  17.941  0.00  0.00    +0.000 N 
ATOM     22  H   UNL     1       5.999   4.993  18.300  0.00  0.00    +0.000 HD
BRANCH  21  23
ATOM     23  C   UNL     1       5.483   5.852  16.502  0.00  0.00    +0.000 C 
BRANCH  23  25
ATOM     24  C   UNL     1       6.015   3.687  15.293  0.00  0.00    +0.000 C 
ATOM     25  C   UNL     1       6.624   4.918  15.986  0.00  0.00    +0.000 C 
ATOM     26  C   UNL     1       7.487   4.460  17.169  0.00  0.00    +0.000 C 
BRANCH  25  27
ATOM     27  N   UNL     1       7.488   5.621  15.005  0.00  0.00    +0.000 NA
ATOM     28  H   UNL     1       7.497   6.616  15.224  0.00  0.00    +0.000 HD
ATOM     29  H   UNL     1       7.080   5.541  14.075  0.00  0.00    +0.000 HD
ENDBRANCH  25  27
ENDBRANCH  23  25
ENDBRANCH  21  23
ENDBRANCH   1  21
TORSDOF 5
ENDMDL
MODEL 4
REMARK VINA RESULT:      -8.4      2.496      7.689
REMARK  Name = 
REMARK  7 active torsions:
REMARK  status: ('A' for Active; 'I' for Inactive)
REMARK    1  A    between atoms: C_1  and  C_2
REMARK    2  A    between atoms: C_2  and  C_3
REMARK    3  A    between atoms: C_2  and  N_4
REMARK    4  A    between atoms: C_2  and  C_5
REMARK    5  A    between atoms: C_5  and  N_6
REMARK    6  A    between atoms: N_6  and  C_7
REMARK    7  A    between atoms: C_9  and  C_10
REMARK                            x       y       z     vdW  Elec       q    Type
REMARK                         _______ _______ _______ _____ _____    ______ ____
ROOT
ATOM      1  C   UNL     1       0.605   9.682  19.160  0.00  0.00    +0.000 A 
ATOM      2  N   UNL     1       1.319   8.594  18.821  0.00  0.00    +0.000 NA
ATOM      3  C   UNL     1       1.763   7.803  19.812  0.00  0.00    +0.000 A 
ATOM      4  N   UNL     1       1.535   8.022  21.117  0.00  0.00    +0.000 NA
ATOM      5  C   UNL     1       0.818   9.102  21.444  0.00  0.00    +0.000 A 
ATOM      6  C   UNL     1       0.523   9.384  22.770  0.00  0.00    +0.000 A 
ATOM      7  N   UNL     1      -0.192  10.446  23.224  0.00  0.00    +0.000 NA
ATOM      8  C   UNL     1      -0.662  11.288  22.288  0.00  0.00    +0.000 A 
ATOM      9  C   UNL     1      -0.445  11.108  20.935  0.00  0.00    +0.000 A 
ATOM     10  C   UNL     1       0.316   9.996  20.500  0.00  0.00    +0.000 A 
ENDROOT
BRANCH   3  11
ATOM     11  C   UNL     1       2.558   6.606  19.459  0.00  0.00    +0.000 A 
ATOM     12  C   UNL     1       3.479   6.616  18.392  0.00  0.00    +0.000 A 
ATOM     13  C   UNL     1       4.257   5.497  18.048  0.00  0.00    +0.000 A 
ATOM     14  C   UNL     1       4.083   4.346  18.816  0.00  0.00    +0.000 A 
ATOM     15  N   UNL     1       4.668   3.108  18.758  0.00  0.00    +0.000 N 
ATOM     16  N   UNL     1       4.222   2.244  19.688  0.00  0.00    +0.000 NA
ATOM     17  C   UNL     1       3.317   2.957  20.365  0.00  0.00    +0.000 A 
ATOM     18  C   UNL     1       3.185   4.273  19.872  0.00  0.00    +0.000 A 
ATOM     19  C   UNL     1       2.418   5.406  20.196  0.00  0.00    +0.000 A 
ATOM     20  H   UNL     1       5.379   2.790  18.111  0.00  0.00    +0.000 HD
ENDBRANCH   3  11
BRANCH   1  21
ATOM     21  N   UNL     1       0.029  10.450  18.149  0.00  0.00    +0.000 N 
ATOM     22  H   UNL     1       0.680  10.795  17.452  0.00  0.00    +0.000 HD
BRANCH  21  23
ATOM     23  C   UNL     1      -1.227  10.027  17.543  0.00  0.00    +0.000 C 
BRANCH  23  25
ATOM     24  C   UNL     1      -3.163  11.446  18.364  0.00  0.00    +0.000 C 
ATOM     25  C   UNL     1      -2.104  11.288  17.258  0.00  0.00    +0.000 C 
ATOM     26  C   UNL     1      -2.805  11.129  15.902  0.00  0.00    +0.000 C 
BRANCH  25  27
ATOM     27  N   UNL     1      -1.277  12.519  17.230  0.00  0.00    +0.000 NA
ATOM     28  H   UNL     1      -0.654  12.520  18.037  0.00  0.00    +0.000 HD
ATOM     29  H   UNL     1      -1.879  13.335  17.339  0.00  0.00    +0.000 HD
ENDBRANCH  25  27
ENDBRANCH  23  25
ENDBRANCH  21  23
ENDBRANCH   1  21
TORSDOF 5
ENDMDL
MODEL 5
REMARK VINA RESULT:      -8.3      1.298      1.467
REMARK  Name = 
REMARK  7 active torsions:
REMARK  status: ('A' for Active; 'I' for Inactive)
REMARK    1  A    between atoms: C_1  and  C_2
REMARK    2  A    between atoms: C_2  and  C_3
REMARK    3  A    between atoms: C_2  and  N_4
REMARK    4  A    between atoms: C_2  and  C_5
REMARK    5  A    between atoms: C_5  and  N_6
REMARK    6  A    between atoms: N_6  and  C_7
REMARK    7  A    between atoms: C_9  and  C_10
REMARK                            x       y       z     vdW  Elec       q    Type
REMARK                         _______ _______ _______ _____ _____    ______ ____
ROOT
ATOM      1  C   UNL     1       3.873   5.198  18.633  0.00  0.00    +0.000 A 
ATOM      2  N   UNL     1       3.327   6.426  18.581  0.00  0.00    +0.000 NA
ATOM      3  C   UNL     1       2.426   6.751  19.524  0.00  0.00    +0.000 A 
ATOM      4  N   UNL     1       2.040   5.934  20.517  0.00  0.00    +0.000 NA
ATOM      5  C   UNL     1       2.593   4.717  20.564  0.00  0.00    +0.000 A 
ATOM      6  C   UNL     1       2.260   3.824  21.572  0.00  0.00    +0.000 A 
ATOM      7  N   UNL     1       2.752   2.567  21.724  0.00  0.00    +0.000 NA
ATOM      8  C   UNL     1       3.654   2.168  20.811  0.00  0.00    +0.000 A 
ATOM      9  C   UNL     1       4.075   2.971  19.768  0.00  0.00    +0.000 A 
ATOM     10  C   UNL     1       3.531   4.272  19.634  0.00  0.00    +0.000 A 
ENDROOT
BRANCH   3  11
ATOM     11  C   UNL     1       1.808   8.094  19.478  0.00  0.00    +0.000 A 
ATOM     12  C   UNL     1       1.817   8.875  18.304  0.00  0.00    +0.000 A 
ATOM     13  C   UNL     1       1.222  10.146  18.232  0.00  0.00    +0.000 A 
ATOM     14  C   UNL     1       0.609  10.624  19.390  0.00  0.00    +0.000 A 
ATOM     15  N   UNL     1      -0.052  11.793  19.662  0.00  0.00    +0.000 N 
ATOM     16  N   UNL     1      -0.507  11.888  20.925  0.00  0.00    +0.000 NA
ATOM     17  C   UNL     1      -0.121  10.736  21.480  0.00  0.00    +0.000 A 
ATOM     18  C   UNL     1       0.577   9.906  20.577  0.00  0.00    +0.000 A 
ATOM     19  C   UNL     1       1.180   8.636  20.624  0.00  0.00    +0.000 A 
ATOM     20  H   UNL     1      -0.229  12.565  19.030  0.00  0.00    +0.000 HD
ENDBRANCH   3  11
BRANCH   1  21
ATOM     21  N   UNL     1       4.899   4.880  17.743  0.00  0.00    +0.000 N 
ATOM     22  H   UNL     1       4.804   3.981  17.285  0.00  0.00    +0.000 HD
BRANCH  21  23
ATOM     23  C   UNL     1       5.405   5.895  16.828  0.00  0.00    +0.000 C 
BRANCH  23  25
ATOM     24  C   UNL     1       7.455   4.687  17.706  0.00  0.00    +0.000 C 
ATOM     25  C   UNL     1       6.966   5.876  16.859  0.00  0.00    +0.000 C 
ATOM     26  C   UNL     1       7.483   7.184  17.474  0.00  0.00    +0.000 C 
BRANCH  25  27
ATOM     27  N   UNL     1       7.527   5.732  15.493  0.00  0.00    +0.000 NA
ATOM     28  H   UNL     1       7.733   4.749  15.320  0.00  0.00    +0.000 HD
ATOM     29  H   UNL     1       8.421   6.220  15.439  0.00  0.00    +0.000 HD
ENDBRANCH  25  27
ENDBRANCH  23  25
ENDBRANCH  21  23
ENDBRANCH   1  21
TORSDOF 5
ENDMDL
MODEL 6
REMARK VINA RESULT:      -8.2      1.629      4.369
REMARK  Name = 
REMARK  7 active torsions:
REMARK  status: ('A' for Active; 'I' for Inactive)
REMARK    1  A    between atoms: C_1  and  C_2
REMARK    2  A    between atoms: C_2  and  C_3
REMARK    3  A    between atoms: C_2  and  N_4
REMARK    4  A    between atoms: C_2  and  C_5
REMARK    5  A    between atoms: C_5  and  N_6
REMARK    6  A    between atoms: N_6  and  C_7
REMARK    7  A    between atoms: C_9  and  C_10
REMARK                            x       y       z     vdW  Elec       q    Type
REMARK                         _______ _______ _______ _____ _____    ______ ____
ROOT
ATOM      1  C   UNL     1       3.541   4.793  18.203  0.00  0.00    +0.000 A 
ATOM      2  N   UNL     1       2.808   5.804  18.703  0.00  0.00    +0.000 NA
ATOM      3  C   UNL     1       2.992   7.028  18.179  0.00  0.00    +0.000 A 
ATOM      4  N   UNL     1       3.853   7.307  17.187  0.00  0.00    +0.000 NA
ATOM      5  C   UNL     1       4.572   6.294  16.692  0.00  0.00    +0.000 A 
ATOM      6  C   UNL     1       5.467   6.500  15.653  0.00  0.00    +0.000 A 
ATOM      7  N   UNL     1       6.251   5.555  15.071  0.00  0.00    +0.000 NA
ATOM      8  C   UNL     1       6.128   4.305  15.549  0.00  0.00    +0.000 A 
ATOM      9  C   UNL     1       5.262   3.973  16.574  0.00  0.00    +0.000 A 
ATOM     10  C   UNL     1       4.470   4.987  17.165  0.00  0.00    +0.000 A 
ENDROOT
BRANCH   3  11
ATOM     11  C   UNL     1       2.201   8.155  18.721  0.00  0.00    +0.000 A 
ATOM     12  C   UNL     1       1.890   9.286  17.939  0.00  0.00    +0.000 A 
ATOM     13  C   UNL     1       1.126  10.361  18.427  0.00  0.00    +0.000 A 
ATOM     14  C   UNL     1       0.676  10.270  19.744  0.00  0.00    +0.000 A 
ATOM     15  N   UNL     1      -0.075  11.117  20.516  0.00  0.00    +0.000 N 
ATOM     16  N   UNL     1      -0.301  10.669  21.765  0.00  0.00    +0.000 NA
ATOM     17  C   UNL     1       0.332   9.493  21.791  0.00  0.00    +0.000 A 
ATOM     18  C   UNL     1       0.958   9.186  20.564  0.00  0.00    +0.000 A 
ATOM     19  C   UNL     1       1.725   8.124  20.053  0.00  0.00    +0.000 A 
ATOM     20  H   UNL     1      -0.467  12.012  20.251  0.00  0.00    +0.000 HD
ENDBRANCH   3  11
BRANCH   1  21
ATOM     21  N   UNL     1       3.282   3.495  18.642  0.00  0.00    +0.000 N 
ATOM     22  H   UNL     1       3.819   2.771  18.176  0.00  0.00    +0.000 HD
BRANCH  21  23
ATOM     23  C   UNL     1       3.146   3.225  20.067  0.00  0.00    +0.000 C 
BRANCH  23  25
ATOM     24  C   UNL     1       1.442   2.366  21.738  0.00  0.00    +0.000 C 
ATOM     25  C   UNL     1       1.629   3.154  20.430  0.00  0.00    +0.000 C 
ATOM     26  C   UNL     1       0.864   2.452  19.300  0.00  0.00    +0.000 C 
BRANCH  25  27
ATOM     27  N   UNL     1       1.061   4.511  20.623  0.00  0.00    +0.000 NA
ATOM     28  H   UNL     1       1.223   5.063  19.781  0.00  0.00    +0.000 HD
ATOM     29  H   UNL     1       1.565   4.987  21.371  0.00  0.00    +0.000 HD
ENDBRANCH  25  27
ENDBRANCH  23  25
ENDBRANCH  21  23
ENDBRANCH   1  21
TORSDOF 5
ENDMDL
MODEL 7
REMARK VINA RESULT:      -8.2      0.770      1.103
REMARK  Name = 
REMARK  7 active torsions:
REMARK  status: ('A' for Active; 'I' for Inactive)
REMARK    1  A    between atoms: C_1  and  C_2
REMARK    2  A    between atoms: C_2  and  C_3
REMARK    3  A    between atoms: C_2  and  N_4
REMARK    4  A    between atoms: C_2  and  C_5
REMARK    5  A    between atoms: C_5  and  N_6
REMARK    6  A    between atoms: N_6  and  C_7
REMARK    7  A    between atoms: C_9  and  C_10
REMARK                            x       y       z     vdW  Elec       q    Type
REMARK                         _______ _______ _______ _____ _____    ______ ____
ROOT
ATOM      1  C   UNL     1       3.685   5.581  18.043  0.00  0.00    +0.000 A 
ATOM      2  N   UNL     1       3.181   6.720  18.550  0.00  0.00    +0.000 NA
ATOM      3  C   UNL     1       2.183   6.620  19.445  0.00  0.00    +0.000 A 
ATOM      4  N   UNL     1       1.661   5.458  19.872  0.00  0.00    +0.000 NA
ATOM      5  C   UNL     1       2.174   4.330  19.367  0.00  0.00    +0.000 A 
ATOM      6  C   UNL     1       1.701   3.092  19.775  0.00  0.00    +0.000 A 
ATOM      7  N   UNL     1       2.139   1.883  19.335  0.00  0.00    +0.000 NA
ATOM      8  C   UNL     1       3.132   1.904  18.430  0.00  0.00    +0.000 A 
ATOM      9  C   UNL     1       3.694   3.075  17.956  0.00  0.00    +0.000 A 
ATOM     10  C   UNL     1       3.203   4.317  18.427  0.00  0.00    +0.000 A 
ENDROOT
BRANCH   3  11
ATOM     11  C   UNL     1       1.610   7.862  20.007  0.00  0.00    +0.000 A 
ATOM     12  C   UNL     1       1.482   9.035  19.235  0.00  0.00    +0.000 A 
ATOM     13  C   UNL     1       0.925  10.222  19.742  0.00  0.00    +0.000 A 
ATOM     14  C   UNL     1       0.494  10.202  21.069  0.00  0.00    +0.000 A 
ATOM     15  N   UNL     1      -0.083  11.161  21.860  0.00  0.00    +0.000 N 
ATOM     16  N   UNL     1      -0.356  10.751  23.112  0.00  0.00    +0.000 NA
ATOM     17  C   UNL     1       0.065   9.483  23.121  0.00  0.00    +0.000 A 
ATOM     18  C   UNL     1       0.603   9.081  21.880  0.00  0.00    +0.000 A 
ATOM     19  C   UNL     1       1.164   7.906  21.349  0.00  0.00    +0.000 A 
ATOM     20  H   UNL     1      -0.321  12.112  21.605  0.00  0.00    +0.000 HD
ENDBRANCH   3  11
BRANCH   1  21
ATOM     21  N   UNL     1       4.800   5.652  17.210  0.00  0.00    +0.000 N 
ATOM     22  H   UNL     1       4.593   5.634  16.217  0.00  0.00    +0.000 HD
BRANCH  21  23
ATOM     23  C   UNL     1       5.874   6.589  17.514  0.00  0.00    +0.000 C 
BRANCH  23  25
ATOM     24  C   UNL     1       8.158   6.803  18.598  0.00  0.00    +0.000 C 
ATOM     25  C   UNL     1       6.998   5.837  18.296  0.00  0.00    +0.000 C 
ATOM     26  C   UNL     1       7.519   4.668  17.449  0.00  0.00    +0.000 C 
BRANCH  25  27
ATOM     27  N   UNL     1       6.491   5.308  19.585  0.00  0.00    +0.000 NA
ATOM     28  H   UNL     1       7.264   4.890  20.101  0.00  0.00    +0.000 HD
ATOM     29  H   UNL     1       5.832   4.551  19.406  0.00  0.00    +0.000 HD
ENDBRANCH  25  27
ENDBRANCH  23  25
ENDBRANCH  21  23
ENDBRANCH   1  21
TORSDOF 5
ENDMDL
MODEL 8
REMARK VINA RESULT:      -8.2      1.698      2.120
REMARK  Name = 
REMARK  7 active torsions:
REMARK  status: ('A' for Active; 'I' for Inactive)
REMARK    1  A    between atoms: C_1  and  C_2
REMARK    2  A    between atoms: C_2  and  C_3
REMARK    3  A    between atoms: C_2  and  N_4
REMARK    4  A    between atoms: C_2  and  C_5
REMARK    5  A    between atoms: C_5  and  N_6
REMARK    6  A    between atoms: N_6  and  C_7
REMARK    7  A    between atoms: C_9  and  C_10
REMARK                            x       y       z     vdW  Elec       q    Type
REMARK                         _______ _______ _______ _____ _____    ______ ____
ROOT
ATOM      1  C   UNL     1       4.142   4.948  19.206  0.00  0.00    +0.000 A 
ATOM      2  N   UNL     1       3.671   6.186  18.972  0.00  0.00    +0.000 NA
ATOM      3  C   UNL     1       2.535   6.551  19.589  0.00  0.00    +0.000 A 
ATOM      4  N   UNL     1       1.841   5.764  20.429  0.00  0.00    +0.000 NA
ATOM      5  C   UNL     1       2.321   4.537  20.661  0.00  0.00    +0.000 A 
ATOM      6  C   UNL     1       1.672   3.675  21.532  0.00  0.00    +0.000 A 
ATOM      7  N   UNL     1       2.060   2.411  21.845  0.00  0.00    +0.000 NA
ATOM      8  C   UNL     1       3.186   1.973  21.258  0.00  0.00    +0.000 A 
ATOM      9  C   UNL     1       3.927   2.743  20.381  0.00  0.00    +0.000 A 
ATOM     10  C   UNL     1       3.485   4.052  20.068  0.00  0.00    +0.000 A 
ENDROOT
BRANCH   3  11
ATOM     11  C   UNL     1       1.997   7.906  19.337  0.00  0.00    +0.000 A 
ATOM     12  C   UNL     1       2.170   8.553  18.097  0.00  0.00    +0.000 A 
ATOM     13  C   UNL     1       1.654   9.833  17.829  0.00  0.00    +0.000 A 
ATOM     14  C   UNL     1       0.948  10.459  18.857  0.00  0.00    +0.000 A 
ATOM     15  N   UNL     1       0.326  11.677  18.932  0.00  0.00    +0.000 N 
ATOM     16  N   UNL     1      -0.254  11.927  20.121  0.00  0.00    +0.000 NA
ATOM     17  C   UNL     1       0.011  10.827  20.831  0.00  0.00    +0.000 A 
ATOM     18  C   UNL     1       0.755   9.875  20.101  0.00  0.00    +0.000 A 
ATOM     19  C   UNL     1       1.281   8.595  20.345  0.00  0.00    +0.000 A 
ATOM     20  H   UNL     1       0.257  12.382  18.208  0.00  0.00    +0.000 HD
ENDBRANCH   3  11
BRANCH   1  21
ATOM     21  N   UNL     1       5.381   4.589  18.678  0.00  0.00    +0.000 N 
ATOM     22  H   UNL     1       5.881   3.881  19.204  0.00  0.00    +0.000 HD
BRANCH  21  23
ATOM     23  C   UNL     1       5.526   4.388  17.242  0.00  0.00    +0.000 C 
BRANCH  23  25
ATOM     24  C   UNL     1       7.118   6.362  17.174  0.00  0.00    +0.000 C 
ATOM     25  C   UNL     1       6.941   4.879  16.800  0.00  0.00    +0.000 C 
ATOM     26  C   UNL     1       7.089   4.718  15.281  0.00  0.00    +0.000 C 
BRANCH  25  27
ATOM     27  N   UNL     1       8.012   4.102  17.472  0.00  0.00    +0.000 NA
ATOM     28  H   UNL     1       7.980   3.139  17.142  0.00  0.00    +0.000 HD
ATOM     29  H   UNL     1       7.825   4.062  18.473  0.00  0.00    +0.000 HD
ENDBRANCH  25  27
ENDBRANCH  23  25
ENDBRANCH  21  23
ENDBRANCH   1  21
TORSDOF 5
ENDMDL
MODEL 9
REMARK VINA RESULT:      -8.2      1.720      2.146
REMARK  Name = 
REMARK  7 active torsions:
REMARK  status: ('A' for Active; 'I' for Inactive)
REMARK    1  A    between atoms: C_1  and  C_2
REMARK    2  A    between atoms: C_2  and  C_3
REMARK    3  A    between atoms: C_2  and  N_4
REMARK    4  A    between atoms: C_2  and  C_5
REMARK    5  A    between atoms: C_5  and  N_6
REMARK    6  A    between atoms: N_6  and  C_7
REMARK    7  A    between atoms: C_9  and  C_10
REMARK                            x       y       z     vdW  Elec       q    Type
REMARK                         _______ _______ _______ _____ _____    ______ ____
ROOT
ATOM      1  C   UNL     1       4.091   4.879  18.741  0.00  0.00    +0.000 A 
ATOM      2  N   UNL     1       3.599   6.118  18.563  0.00  0.00    +0.000 NA
ATOM      3  C   UNL     1       2.627   6.531  19.394  0.00  0.00    +0.000 A 
ATOM      4  N   UNL     1       2.119   5.792  20.394  0.00  0.00    +0.000 NA
ATOM      5  C   UNL     1       2.620   4.564  20.568  0.00  0.00    +0.000 A 
ATOM      6  C   UNL     1       2.162   3.750  21.593  0.00  0.00    +0.000 A 
ATOM      7  N   UNL     1       2.590   2.490  21.867  0.00  0.00    +0.000 NA
ATOM      8  C   UNL     1       3.558   2.005  21.071  0.00  0.00    +0.000 A 
ATOM      9  C   UNL     1       4.103   2.725  20.025  0.00  0.00    +0.000 A 
ATOM     10  C   UNL     1       3.623   4.031  19.760  0.00  0.00    +0.000 A 
ENDROOT
BRANCH   3  11
ATOM     11  C   UNL     1       2.066   7.888  19.207  0.00  0.00    +0.000 A 
ATOM     12  C   UNL     1       2.201   8.585  17.989  0.00  0.00    +0.000 A 
ATOM     13  C   UNL     1       1.663   9.867  17.783  0.00  0.00    +0.000 A 
ATOM     14  C   UNL     1       0.975  10.443  18.852  0.00  0.00    +0.000 A 
ATOM     15  N   UNL     1       0.339  11.649  18.989  0.00  0.00    +0.000 N 
ATOM     16  N   UNL     1      -0.215  11.846  20.199  0.00  0.00    +0.000 NA
ATOM     17  C   UNL     1       0.080  10.722  20.860  0.00  0.00    +0.000 A 
ATOM     18  C   UNL     1       0.818   9.809  20.076  0.00  0.00    +0.000 A 
ATOM     19  C   UNL     1       1.366   8.527  20.257  0.00  0.00    +0.000 A 
ATOM     20  H   UNL     1       0.244  12.381  18.294  0.00  0.00    +0.000 HD
ENDBRANCH   3  11
BRANCH   1  21
ATOM     21  N   UNL     1       5.182   4.473  17.975  0.00  0.00    +0.000 N 
ATOM     22  H   UNL     1       5.719   3.708  18.368  0.00  0.00    +0.000 HD
BRANCH  21  23
ATOM     23  C   UNL     1       5.044   4.341  16.530  0.00  0.00    +0.000 C 
BRANCH  23  25
ATOM     24  C   UNL     1       6.443   4.876  14.482  0.00  0.00    +0.000 C 
ATOM     25  C   UNL     1       5.940   5.415  15.833  0.00  0.00    +0.000 C 
ATOM     26  C   UNL     1       7.142   5.739  16.730  0.00  0.00    +0.000 C 
BRANCH  25  27
ATOM     27  N   UNL     1       5.180   6.663  15.578  0.00  0.00    +0.000 NA
ATOM     28  H   UNL     1       5.017   7.140  16.464  0.00  0.00    +0.000 HD
ATOM     29  H   UNL     1       4.258   6.430  15.211  0.00  0.00    +0.000 HD
ENDBRANCH  25  27
ENDBRANCH  23  25
ENDBRANCH  21  23
ENDBRANCH   1  21
TORSDOF 5
ENDMDL
