MODEL 1
REMARK VINA RESULT:      -7.9      0.000      0.000
REMARK  Name = 
REMARK  3 active torsions:
REMARK  status: ('A' for Active; 'I' for Inactive)
REMARK    1  A    between atoms: C_2  and  C_3
REMARK    2  A    between atoms: C_6  and  S_7
REMARK    3  A    between atoms: S_7  and  N_10
REMARK                            x       y       z     vdW  Elec       q    Type
REMARK                         _______ _______ _______ _____ _____    ______ ____
ROOT
ATOM      1  N   UNL     1       3.889   5.520  17.154  0.00  0.00    +0.000 NA
ATOM      2  C   UNL     1       3.656   6.852  17.809  0.00  0.00    +0.000 C 
ATOM      3  C   UNL     1       2.579   6.967  18.862  0.00  0.00    +0.000 C 
ATOM      4  O   UNL     1       2.093   8.042  19.204  0.00  0.00    +0.000 OA
ATOM      5  N   UNL     1       2.233   5.820  19.525  0.00  0.00    +0.000 N 
ATOM      6  C   UNL     1       2.296   4.550  18.832  0.00  0.00    +0.000 C 
ATOM      7  C   UNL     1       2.053   3.404  19.818  0.00  0.00    +0.000 C 
ATOM      8  C   UNL     1       2.010   2.063  19.098  0.00  0.00    +0.000 C 
ATOM      9  C   UNL     1       3.265   1.842  18.267  0.00  0.00    +0.000 C 
ATOM     10  C   UNL     1       3.549   3.008  17.318  0.00  0.00    +0.000 C 
ATOM     11  C   UNL     1       3.636   4.347  18.071  0.00  0.00    +0.000 C 
ATOM     12  H   UNL     1       1.469   5.978  20.173  0.00  0.00    +0.000 HD
ENDROOT
BRANCH   1  13
ATOM     13  S   UNL     1       5.361   5.547  16.264  0.00  0.00    +0.000 S 
ATOM     14  O   UNL     1       5.210   6.468  15.159  0.00  0.00    +0.000 OA
ATOM     15  O   UNL     1       5.848   4.203  16.052  0.00  0.00    +0.000 OA
BRANCH  13  19
ATOM     16  C   UNL     1       7.928   7.942  18.054  0.00  0.00    +0.000 A 
ATOM     17  C   UNL     1       8.247   6.834  18.797  0.00  0.00    +0.000 A 
ATOM     18  C   UNL     1       7.413   5.793  18.318  0.00  0.00    +0.000 A 
ATOM     19  C   UNL     1       6.621   6.316  17.300  0.00  0.00    +0.000 A 
ATOM     20  O   UNL     1       6.961   7.647  17.148  0.00  0.00    +0.000 OA
BRANCH  16  22
ATOM     21  N   UNL     1       8.797  10.371  18.104  0.00  0.00    +0.000 NA
ATOM     22  C   UNL     1       8.411   9.277  18.077  0.00  0.00    +0.000 C 
ENDBRANCH  16  22
ENDBRANCH  13  19
ENDBRANCH   1  13
TORSDOF 3
ENDMDL
MODEL 2
REMARK VINA RESULT:      -7.6      2.859      4.357
REMARK  Name = 
REMARK  3 active torsions:
REMARK  status: ('A' for Active; 'I' for Inactive)
REMARK    1  A    between atoms: C_2  and  C_3
REMARK    2  A    between atoms: C_6  and  S_7
REMARK    3  A    between atoms: S_7  and  N_10
REMARK                            x       y       z     vdW  Elec       q    Type
REMARK                         _______ _______ _______ _____ _____    ______ ____
ROOT
ATOM      1  N   UNL     1       4.681   5.571  16.734  0.00  0.00    +0.000 NA
ATOM      2  C   UNL     1       4.440   6.991  17.162  0.00  0.00    +0.000 C 
ATOM      3  C   UNL     1       3.121   7.341  17.810  0.00  0.00    +0.000 C 
ATOM      4  O   UNL     1       2.700   8.493  17.885  0.00  0.00    +0.000 OA
ATOM      5  N   UNL     1       2.443   6.326  18.430  0.00  0.00    +0.000 N 
ATOM      6  C   UNL     1       2.544   4.979  17.908  0.00  0.00    +0.000 C 
ATOM      7  C   UNL     1       1.867   3.995  18.866  0.00  0.00    +0.000 C 
ATOM      8  C   UNL     1       1.866   2.585  18.290  0.00  0.00    +0.000 C 
ATOM      9  C   UNL     1       3.273   2.140  17.919  0.00  0.00    +0.000 C 
ATOM     10  C   UNL     1       3.980   3.144  17.007  0.00  0.00    +0.000 C 
ATOM     11  C   UNL     1       4.012   4.552  17.626  0.00  0.00    +0.000 C 
ATOM     12  H   UNL     1       1.548   6.638  18.789  0.00  0.00    +0.000 HD
ENDROOT
BRANCH   1  13
ATOM     13  S   UNL     1       6.343   5.342  16.352  0.00  0.00    +0.000 S 
ATOM     14  O   UNL     1       6.835   4.211  17.109  0.00  0.00    +0.000 OA
ATOM     15  O   UNL     1       7.043   6.606  16.365  0.00  0.00    +0.000 OA
BRANCH  13  19
ATOM     16  C   UNL     1       5.738   3.911  12.731  0.00  0.00    +0.000 A 
ATOM     17  C   UNL     1       7.046   4.260  12.514  0.00  0.00    +0.000 A 
ATOM     18  C   UNL     1       7.504   4.825  13.730  0.00  0.00    +0.000 A 
ATOM     19  C   UNL     1       6.449   4.795  14.637  0.00  0.00    +0.000 A 
ATOM     20  O   UNL     1       5.365   4.219  14.000  0.00  0.00    +0.000 OA
BRANCH  16  22
ATOM     21  N   UNL     1       3.954   2.845  11.201  0.00  0.00    +0.000 NA
ATOM     22  C   UNL     1       4.756   3.319  11.892  0.00  0.00    +0.000 C 
ENDBRANCH  16  22
ENDBRANCH  13  19
ENDBRANCH   1  13
TORSDOF 3
ENDMDL
MODEL 3
REMARK VINA RESULT:      -7.5      3.003      5.444
REMARK  Name = 
REMARK  3 active torsions:
REMARK  status: ('A' for Active; 'I' for Inactive)
REMARK    1  A    between atoms: C_2  and  C_3
REMARK    2  A    between atoms: C_6  and  S_7
REMARK    3  A    between atoms: S_7  and  N_10
REMARK                            x       y       z     vdW  Elec       q    Type
REMARK                         _______ _______ _______ _____ _____    ______ ____
ROOT
ATOM      1  N   UNL     1       4.806   4.351  18.314  0.00  0.00    +0.000 NA
ATOM      2  C   UNL     1       5.527   4.989  19.467  0.00  0.00    +0.000 C 
ATOM      3  C   UNL     1       6.991   5.331  19.309  0.00  0.00    +0.000 C 
ATOM      4  O   UNL     1       7.735   5.533  20.266  0.00  0.00    +0.000 OA
ATOM      5  N   UNL     1       7.450   5.527  18.035  0.00  0.00    +0.000 N 
ATOM      6  C   UNL     1       6.863   4.780  16.943  0.00  0.00    +0.000 C 
ATOM      7  C   UNL     1       7.396   5.302  15.605  0.00  0.00    +0.000 C 
ATOM      8  C   UNL     1       6.874   4.464  14.445  0.00  0.00    +0.000 C 
ATOM      9  C   UNL     1       5.355   4.385  14.460  0.00  0.00    +0.000 C 
ATOM     10  C   UNL     1       4.809   3.919  15.811  0.00  0.00    +0.000 C 
ATOM     11  C   UNL     1       5.308   4.805  16.964  0.00  0.00    +0.000 C 
ATOM     12  H   UNL     1       8.449   5.699  18.019  0.00  0.00    +0.000 HD
ENDROOT
BRANCH   1  13
ATOM     13  S   UNL     1       3.108   4.374  18.593  0.00  0.00    +0.000 S 
ATOM     14  O   UNL     1       2.845   3.724  19.859  0.00  0.00    +0.000 OA
ATOM     15  O   UNL     1       2.394   3.990  17.397  0.00  0.00    +0.000 OA
BRANCH  13  19
ATOM     16  C   UNL     1       1.848   7.827  20.014  0.00  0.00    +0.000 A 
ATOM     17  C   UNL     1       2.112   8.296  18.753  0.00  0.00    +0.000 A 
ATOM     18  C   UNL     1       2.603   7.186  18.021  0.00  0.00    +0.000 A 
ATOM     19  C   UNL     1       2.615   6.086  18.874  0.00  0.00    +0.000 A 
ATOM     20  O   UNL     1       2.137   6.503  20.102  0.00  0.00    +0.000 OA
BRANCH  16  22
ATOM     21  N   UNL     1       0.961   8.986  22.142  0.00  0.00    +0.000 NA
ATOM     22  C   UNL     1       1.354   8.462  21.185  0.00  0.00    +0.000 C 
ENDBRANCH  16  22
ENDBRANCH  13  19
ENDBRANCH   1  13
TORSDOF 3
ENDMDL
MODEL 4
REMARK VINA RESULT:      -7.4      3.035      4.287
REMARK  Name = 
REMARK  3 active torsions:
REMARK  status: ('A' for Active; 'I' for Inactive)
REMARK    1  A    between atoms: C_2  and  C_3
REMARK    2  A    between atoms: C_6  and  S_7
REMARK    3  A    between atoms: S_7  and  N_10
REMARK                            x       y       z     vdW  Elec       q    Type
REMARK                         _______ _______ _______ _____ _____    ______ ____
ROOT
ATOM      1  N   UNL     1       3.195   3.703  19.124  0.00  0.00    +0.000 NA
ATOM      2  C   UNL     1       2.592   2.642  20.001  0.00  0.00    +0.000 C 
ATOM      3  C   UNL     1       1.896   3.061  21.274  0.00  0.00    +0.000 C 
ATOM      4  O   UNL     1       1.674   2.284  22.199  0.00  0.00    +0.000 OA
ATOM      5  N   UNL     1       1.402   4.337  21.323  0.00  0.00    +0.000 N 
ATOM      6  C   UNL     1       2.088   5.394  20.610  0.00  0.00    +0.000 C 
ATOM      7  C   UNL     1       1.255   6.679  20.650  0.00  0.00    +0.000 C 
ATOM      8  C   UNL     1       2.002   7.834  19.998  0.00  0.00    +0.000 C 
ATOM      9  C   UNL     1       2.437   7.483  18.583  0.00  0.00    +0.000 C 
ATOM     10  C   UNL     1       3.222   6.171  18.524  0.00  0.00    +0.000 C 
ATOM     11  C   UNL     1       2.432   5.006  19.145  0.00  0.00    +0.000 C 
ATOM     12  H   UNL     1       1.000   4.549  22.229  0.00  0.00    +0.000 HD
ENDROOT
BRANCH   1  13
ATOM     13  S   UNL     1       3.616   3.037  17.594  0.00  0.00    +0.000 S 
ATOM     14  O   UNL     1       2.637   3.472  16.622  0.00  0.00    +0.000 OA
ATOM     15  O   UNL     1       3.960   1.640  17.728  0.00  0.00    +0.000 OA
BRANCH  13  19
ATOM     16  C   UNL     1       6.629   4.614  15.603  0.00  0.00    +0.000 A 
ATOM     17  C   UNL     1       7.173   4.820  16.844  0.00  0.00    +0.000 A 
ATOM     18  C   UNL     1       6.229   4.314  17.771  0.00  0.00    +0.000 A 
ATOM     19  C   UNL     1       5.146   3.820  17.049  0.00  0.00    +0.000 A 
ATOM     20  O   UNL     1       5.417   4.010  15.707  0.00  0.00    +0.000 OA
BRANCH  16  22
ATOM     21  N   UNL     1       7.481   5.167  13.230  0.00  0.00    +0.000 NA
ATOM     22  C   UNL     1       7.092   4.917  14.295  0.00  0.00    +0.000 C 
ENDBRANCH  16  22
ENDBRANCH  13  19
ENDBRANCH   1  13
TORSDOF 3
ENDMDL
MODEL 5
REMARK VINA RESULT:      -7.4      2.647      3.369
REMARK  Name = 
REMARK  3 active torsions:
REMARK  status: ('A' for Active; 'I' for Inactive)
REMARK    1  A    between atoms: C_2  and  C_3
REMARK    2  A    between atoms: C_6  and  S_7
REMARK    3  A    between atoms: S_7  and  N_10
REMARK                            x       y       z     vdW  Elec       q    Type
REMARK                         _______ _______ _______ _____ _____    ______ ____
ROOT
ATOM      1  N   UNL     1       4.346   5.536  18.200  0.00  0.00    +0.000 NA
ATOM      2  C   UNL     1       4.067   6.988  17.930  0.00  0.00    +0.000 C 
ATOM      3  C   UNL     1       2.723   7.555  18.322  0.00  0.00    +0.000 C 
ATOM      4  O   UNL     1       2.281   8.603  17.857  0.00  0.00    +0.000 OA
ATOM      5  N   UNL     1       2.045   6.914  19.323  0.00  0.00    +0.000 N 
ATOM      6  C   UNL     1       2.184   5.480  19.473  0.00  0.00    +0.000 C 
ATOM      7  C   UNL     1       1.496   5.019  20.761  0.00  0.00    +0.000 C 
ATOM      8  C   UNL     1       1.537   3.503  20.889  0.00  0.00    +0.000 C 
ATOM      9  C   UNL     1       2.962   2.978  20.788  0.00  0.00    +0.000 C 
ATOM     10  C   UNL     1       3.679   3.479  19.533  0.00  0.00    +0.000 C 
ATOM     11  C   UNL     1       3.668   5.015  19.444  0.00  0.00    +0.000 C 
ATOM     12  H   UNL     1       1.133   7.328  19.483  0.00  0.00    +0.000 HD
ENDROOT
BRANCH   1  13
ATOM     13  S   UNL     1       6.022   5.207  17.995  0.00  0.00    +0.000 S 
ATOM     14  O   UNL     1       6.344   4.000  18.725  0.00  0.00    +0.000 OA
ATOM     15  O   UNL     1       6.799   6.413  18.173  0.00  0.00    +0.000 OA
BRANCH  13  19
ATOM     16  C   UNL     1       7.124   4.937  14.221  0.00  0.00    +0.000 A 
ATOM     17  C   UNL     1       6.321   3.825  14.201  0.00  0.00    +0.000 A 
ATOM     18  C   UNL     1       5.789   3.707  15.508  0.00  0.00    +0.000 A 
ATOM     19  C   UNL     1       6.293   4.757  16.270  0.00  0.00    +0.000 A 
ATOM     20  O   UNL     1       7.114   5.511  15.452  0.00  0.00    +0.000 OA
BRANCH  16  22
ATOM     21  N   UNL     1       8.577   6.061  12.408  0.00  0.00    +0.000 NA
ATOM     22  C   UNL     1       7.928   5.552  13.226  0.00  0.00    +0.000 C 
ENDBRANCH  16  22
ENDBRANCH  13  19
ENDBRANCH   1  13
TORSDOF 3
ENDMDL
MODEL 6
REMARK VINA RESULT:      -7.4      2.966      5.202
REMARK  Name = 
REMARK  3 active torsions:
REMARK  status: ('A' for Active; 'I' for Inactive)
REMARK    1  A    between atoms: C_2  and  C_3
REMARK    2  A    between atoms: C_6  and  S_7
REMARK    3  A    between atoms: S_7  and  N_10
REMARK                            x       y       z     vdW  Elec       q    Type
REMARK                         _______ _______ _______ _____ _____    ______ ____
ROOT
ATOM      1  N   UNL     1       4.891   4.141  18.257  0.00  0.00    +0.000 NA
ATOM      2  C   UNL     1       5.563   4.801  19.428  0.00  0.00    +0.000 C 
ATOM      3  C   UNL     1       6.997   5.254  19.282  0.00  0.00    +0.000 C 
ATOM      4  O   UNL     1       7.723   5.486  20.245  0.00  0.00    +0.000 OA
ATOM      5  N   UNL     1       7.441   5.516  18.014  0.00  0.00    +0.000 N 
ATOM      6  C   UNL     1       6.911   4.756  16.902  0.00  0.00    +0.000 C 
ATOM      7  C   UNL     1       7.405   5.350  15.580  0.00  0.00    +0.000 C 
ATOM      8  C   UNL     1       6.948   4.506  14.397  0.00  0.00    +0.000 C 
ATOM      9  C   UNL     1       5.438   4.315  14.406  0.00  0.00    +0.000 C 
ATOM     10  C   UNL     1       4.927   3.775  15.743  0.00  0.00    +0.000 C 
ATOM     11  C   UNL     1       5.359   4.666  16.921  0.00  0.00    +0.000 C 
ATOM     12  H   UNL     1       8.425   5.762  18.005  0.00  0.00    +0.000 HD
ENDROOT
BRANCH   1  13
ATOM     13  S   UNL     1       3.196   4.032  18.532  0.00  0.00    +0.000 S 
ATOM     14  O   UNL     1       2.974   3.183  19.683  0.00  0.00    +0.000 OA
ATOM     15  O   UNL     1       2.496   3.798  17.290  0.00  0.00    +0.000 OA
BRANCH  13  19
ATOM     16  C   UNL     1       2.136   7.811  18.888  0.00  0.00    +0.000 A 
ATOM     17  C   UNL     1       1.815   7.465  20.176  0.00  0.00    +0.000 A 
ATOM     18  C   UNL     1       2.119   6.087  20.296  0.00  0.00    +0.000 A 
ATOM     19  C   UNL     1       2.615   5.652  19.070  0.00  0.00    +0.000 A 
ATOM     20  O   UNL     1       2.623   6.738  18.214  0.00  0.00    +0.000 OA
BRANCH  16  22
ATOM     21  N   UNL     1       1.978  10.041  17.599  0.00  0.00    +0.000 NA
ATOM     22  C   UNL     1       2.043   9.036  18.178  0.00  0.00    +0.000 C 
ENDBRANCH  16  22
ENDBRANCH  13  19
ENDBRANCH   1  13
TORSDOF 3
ENDMDL
MODEL 7
REMARK VINA RESULT:      -7.3      2.670      5.259
REMARK  Name = 
REMARK  3 active torsions:
REMARK  status: ('A' for Active; 'I' for Inactive)
REMARK    1  A    between atoms: C_2  and  C_3
REMARK    2  A    between atoms: C_6  and  S_7
REMARK    3  A    between atoms: S_7  and  N_10
REMARK                            x       y       z     vdW  Elec       q    Type
REMARK                         _______ _______ _______ _____ _____    ______ ____
ROOT
ATOM      1  N   UNL     1       5.888   4.354  17.828  0.00  0.00    +0.000 NA
ATOM      2  C   UNL     1       6.454   5.484  18.642  0.00  0.00    +0.000 C 
ATOM      3  C   UNL     1       7.534   6.348  18.034  0.00  0.00    +0.000 C 
ATOM      4  O   UNL     1       8.278   7.056  18.707  0.00  0.00    +0.000 OA
ATOM      5  N   UNL     1       7.588   6.409  16.668  0.00  0.00    +0.000 N 
ATOM      6  C   UNL     1       7.201   5.252  15.887  0.00  0.00    +0.000 C 
ATOM      7  C   UNL     1       7.157   5.615  14.400  0.00  0.00    +0.000 C 
ATOM      8  C   UNL     1       6.855   4.390  13.547  0.00  0.00    +0.000 C 
ATOM      9  C   UNL     1       5.576   3.701  14.002  0.00  0.00    +0.000 C 
ATOM     10  C   UNL     1       5.587   3.385  15.499  0.00  0.00    +0.000 C 
ATOM     11  C   UNL     1       5.846   4.643  16.346  0.00  0.00    +0.000 C 
ATOM     12  H   UNL     1       8.372   6.965  16.348  0.00  0.00    +0.000 HD
ENDROOT
BRANCH   1  13
ATOM     13  S   UNL     1       4.462   3.745  18.573  0.00  0.00    +0.000 S 
ATOM     14  O   UNL     1       4.828   3.144  19.837  0.00  0.00    +0.000 OA
ATOM     15  O   UNL     1       3.658   3.025  17.612  0.00  0.00    +0.000 OA
BRANCH  13  19
ATOM     16  C   UNL     1       2.476   7.140  18.822  0.00  0.00    +0.000 A 
ATOM     17  C   UNL     1       2.075   6.666  20.045  0.00  0.00    +0.000 A 
ATOM     18  C   UNL     1       2.687   5.396  20.189  0.00  0.00    +0.000 A 
ATOM     19  C   UNL     1       3.437   5.152  19.042  0.00  0.00    +0.000 A 
ATOM     20  O   UNL     1       3.297   6.248  18.211  0.00  0.00    +0.000 OA
BRANCH  16  22
ATOM     21  N   UNL     1       1.958   9.320  17.543  0.00  0.00    +0.000 NA
ATOM     22  C   UNL     1       2.186   8.340  18.121  0.00  0.00    +0.000 C 
ENDBRANCH  16  22
ENDBRANCH  13  19
ENDBRANCH   1  13
TORSDOF 3
ENDMDL
MODEL 8
REMARK VINA RESULT:      -7.3      2.520      3.859
REMARK  Name = 
REMARK  3 active torsions:
REMARK  status: ('A' for Active; 'I' for Inactive)
REMARK    1  A    between atoms: C_2  and  C_3
REMARK    2  A    between atoms: C_6  and  S_7
REMARK    3  A    between atoms: S_7  and  N_10
REMARK                            x       y       z     vdW  Elec       q    Type
REMARK                         _______ _______ _______ _____ _____    ______ ____
ROOT
ATOM      1  N   UNL     1       3.259   3.839  18.995  0.00  0.00    +0.000 NA
ATOM      2  C   UNL     1       2.818   2.768  19.953  0.00  0.00    +0.000 C 
ATOM      3  C   UNL     1       2.240   3.179  21.287  0.00  0.00    +0.000 C 
ATOM      4  O   UNL     1       2.166   2.414  22.245  0.00  0.00    +0.000 OA
ATOM      5  N   UNL     1       1.680   4.425  21.366  0.00  0.00    +0.000 N 
ATOM      6  C   UNL     1       2.222   5.501  20.563  0.00  0.00    +0.000 C 
ATOM      7  C   UNL     1       1.324   6.738  20.670  0.00  0.00    +0.000 C 
ATOM      8  C   UNL     1       1.927   7.917  19.919  0.00  0.00    +0.000 C 
ATOM      9  C   UNL     1       2.226   7.556  18.471  0.00  0.00    +0.000 C 
ATOM     10  C   UNL     1       3.075   6.289  18.351  0.00  0.00    +0.000 C 
ATOM     11  C   UNL     1       2.427   5.097  19.075  0.00  0.00    +0.000 C 
ATOM     12  H   UNL     1       1.367   4.637  22.307  0.00  0.00    +0.000 HD
ENDROOT
BRANCH   1  13
ATOM     13  S   UNL     1       3.549   3.160  17.441  0.00  0.00    +0.000 S 
ATOM     14  O   UNL     1       2.458   3.535  16.568  0.00  0.00    +0.000 OA
ATOM     15  O   UNL     1       3.965   1.781  17.562  0.00  0.00    +0.000 OA
BRANCH  13  19
ATOM     16  C   UNL     1       6.550   5.551  16.542  0.00  0.00    +0.000 A 
ATOM     17  C   UNL     1       6.761   4.683  15.502  0.00  0.00    +0.000 A 
ATOM     18  C   UNL     1       5.761   3.687  15.618  0.00  0.00    +0.000 A 
ATOM     19  C   UNL     1       4.981   3.994  16.730  0.00  0.00    +0.000 A 
ATOM     20  O   UNL     1       5.483   5.157  17.284  0.00  0.00    +0.000 OA
BRANCH  16  22
ATOM     21  N   UNL     1       7.793   7.684  17.296  0.00  0.00    +0.000 NA
ATOM     22  C   UNL     1       7.228   6.728  16.956  0.00  0.00    +0.000 C 
ENDBRANCH  16  22
ENDBRANCH  13  19
ENDBRANCH   1  13
TORSDOF 3
ENDMDL
MODEL 9
REMARK VINA RESULT:      -7.2      2.610      3.212
REMARK  Name = 
REMARK  3 active torsions:
REMARK  status: ('A' for Active; 'I' for Inactive)
REMARK    1  A    between atoms: C_2  and  C_3
REMARK    2  A    between atoms: C_6  and  S_7
REMARK    3  A    between atoms: S_7  and  N_10
REMARK                            x       y       z     vdW  Elec       q    Type
REMARK                         _______ _______ _______ _____ _____    ______ ____
ROOT
ATOM      1  N   UNL     1       4.050   5.324  18.436  0.00  0.00    +0.000 NA
ATOM      2  C   UNL     1       3.743   6.632  19.109  0.00  0.00    +0.000 C 
ATOM      3  C   UNL     1       2.373   6.836  19.712  0.00  0.00    +0.000 C 
ATOM      4  O   UNL     1       1.919   7.947  19.976  0.00  0.00    +0.000 OA
ATOM      5  N   UNL     1       1.678   5.713  20.073  0.00  0.00    +0.000 N 
ATOM      6  C   UNL     1       1.850   4.494  19.311  0.00  0.00    +0.000 C 
ATOM      7  C   UNL     1       1.131   3.335  20.009  0.00  0.00    +0.000 C 
ATOM      8  C   UNL     1       1.207   2.064  19.175  0.00  0.00    +0.000 C 
ATOM      9  C   UNL     1       2.647   1.714  18.830  0.00  0.00    +0.000 C 
ATOM     10  C   UNL     1       3.392   2.884  18.184  0.00  0.00    +0.000 C 
ATOM     11  C   UNL     1       3.344   4.145  19.063  0.00  0.00    +0.000 C 
ATOM     12  H   UNL     1       0.752   5.940  20.417  0.00  0.00    +0.000 HD
ENDROOT
BRANCH   1  13
ATOM     13  S   UNL     1       5.740   5.192  18.142  0.00  0.00    +0.000 S 
ATOM     14  O   UNL     1       6.237   4.032  18.848  0.00  0.00    +0.000 OA
ATOM     15  O   UNL     1       6.379   6.480  18.284  0.00  0.00    +0.000 OA
BRANCH  13  19
ATOM     16  C   UNL     1       6.845   4.914  14.369  0.00  0.00    +0.000 A 
ATOM     17  C   UNL     1       5.898   3.925  14.299  0.00  0.00    +0.000 A 
ATOM     18  C   UNL     1       5.336   3.832  15.597  0.00  0.00    +0.000 A 
ATOM     19  C   UNL     1       5.970   4.773  16.403  0.00  0.00    +0.000 A 
ATOM     20  O   UNL     1       6.897   5.437  15.621  0.00  0.00    +0.000 OA
BRANCH  16  22
ATOM     21  N   UNL     1       8.467   5.897  12.620  0.00  0.00    +0.000 NA
ATOM     22  C   UNL     1       7.739   5.449  13.405  0.00  0.00    +0.000 C 
ENDBRANCH  16  22
ENDBRANCH  13  19
ENDBRANCH   1  13
TORSDOF 3
ENDMDL
