MODEL 1
REMARK VINA RESULT:      -7.8      0.000      0.000
REMARK  Name = 
REMARK  5 active torsions:
REMARK  status: ('A' for Active; 'I' for Inactive)
REMARK    1  A    between atoms: C_1  and  N_2
REMARK    2  A    between atoms: C_6  and  C_7
REMARK    3  A    between atoms: C_7  and  O_8
REMARK    4  A    between atoms: O_8  and  C_9
REMARK    5  A    between atoms: C_13  and  C_14
REMARK                            x       y       z     vdW  Elec       q    Type
REMARK                         _______ _______ _______ _____ _____    ______ ____
ROOT
ATOM      1  C   UNL     1       2.916   4.314  17.308  0.00  0.00    +0.000 A 
ATOM      2  C   UNL     1       4.248   4.516  16.957  0.00  0.00    +0.000 A 
ATOM      3  N   UNL     1       4.921   5.670  17.140  0.00  0.00    +0.000 NA
ATOM      4  C   UNL     1       4.226   6.682  17.706  0.00  0.00    +0.000 A 
ATOM      5  C   UNL     1       2.881   6.630  18.085  0.00  0.00    +0.000 A 
ATOM      6  C   UNL     1       2.232   5.398  17.871  0.00  0.00    +0.000 A 
ENDROOT
BRANCH   5   7
ATOM      7  C   UNL     1       2.222   7.814  18.683  0.00  0.00    +0.000 A 
ATOM      8  C   UNL     1       1.845   7.822  20.044  0.00  0.00    +0.000 A 
ATOM      9  C   UNL     1       1.158   8.900  20.612  0.00  0.00    +0.000 A 
ATOM     10  C   UNL     1       0.849  10.006  19.831  0.00  0.00    +0.000 A 
ATOM     11 CL   UNL     1      -0.006  11.329  20.522  0.00  0.00    +0.000 Cl
ATOM     12  C   UNL     1       1.226  10.043  18.493  0.00  0.00    +0.000 A 
ATOM     13  C   UNL     1       1.905   8.955  17.925  0.00  0.00    +0.000 A 
ENDBRANCH   5   7
BRANCH   1  14
ATOM     14  O   UNL     1       2.215   3.140  17.147  0.00  0.00    +0.000 OA
BRANCH  14  15
ATOM     15  C   UNL     1       2.807   2.016  17.815  0.00  0.00    +0.000 C 
BRANCH  15  21
ATOM     16  C   UNL     1       4.578   2.065  20.387  0.00  0.00    +0.000 C 
ATOM     17  N   UNL     1       3.268   2.669  20.177  0.00  0.00    +0.000 NA
ATOM     18  C   UNL     1       2.528   2.815  21.427  0.00  0.00    +0.000 C 
ATOM     19  C   UNL     1       1.121   3.135  20.952  0.00  0.00    +0.000 C 
ATOM     20  C   UNL     1       1.007   2.502  19.566  0.00  0.00    +0.000 C 
ATOM     21  C   UNL     1       2.384   1.892  19.285  0.00  0.00    +0.000 C 
ENDBRANCH  15  21
ENDBRANCH  14  15
ENDBRANCH   1  14
TORSDOF 4
ENDMDL
MODEL 2
REMARK VINA RESULT:      -7.7      0.085      1.053
REMARK  Name = 
REMARK  5 active torsions:
REMARK  status: ('A' for Active; 'I' for Inactive)
REMARK    1  A    between atoms: C_1  and  N_2
REMARK    2  A    between atoms: C_6  and  C_7
REMARK    3  A    between atoms: C_7  and  O_8
REMARK    4  A    between atoms: O_8  and  C_9
REMARK    5  A    between atoms: C_13  and  C_14
REMARK                            x       y       z     vdW  Elec       q    Type
REMARK                         _______ _______ _______ _____ _____    ______ ____
ROOT
ATOM      1  C   UNL     1       2.970   4.298  17.286  0.00  0.00    +0.000 A 
ATOM      2  C   UNL     1       4.301   4.540  16.954  0.00  0.00    +0.000 A 
ATOM      3  N   UNL     1       4.938   5.711  17.155  0.00  0.00    +0.000 NA
ATOM      4  C   UNL     1       4.207   6.699  17.717  0.00  0.00    +0.000 A 
ATOM      5  C   UNL     1       2.859   6.606  18.078  0.00  0.00    +0.000 A 
ATOM      6  C   UNL     1       2.248   5.357  17.847  0.00  0.00    +0.000 A 
ENDROOT
BRANCH   5   7
ATOM      7  C   UNL     1       2.158   7.766  18.674  0.00  0.00    +0.000 A 
ATOM      8  C   UNL     1       1.847   8.903  17.896  0.00  0.00    +0.000 A 
ATOM      9  C   UNL     1       1.250  10.038  18.455  0.00  0.00    +0.000 A 
ATOM     10  C   UNL     1       0.933  10.052  19.807  0.00  0.00    +0.000 A 
ATOM     11 CL   UNL     1       0.210  11.450  20.501  0.00  0.00    +0.000 Cl
ATOM     12  C   UNL     1       1.203   8.942  20.599  0.00  0.00    +0.000 A 
ATOM     13  C   UNL     1       1.812   7.810  20.036  0.00  0.00    +0.000 A 
ENDBRANCH   5   7
BRANCH   1  14
ATOM     14  O   UNL     1       2.305   3.105  17.108  0.00  0.00    +0.000 OA
BRANCH  14  15
ATOM     15  C   UNL     1       2.892   2.004  17.817  0.00  0.00    +0.000 C 
BRANCH  15  21
ATOM     16  C   UNL     1       4.552   2.077  20.461  0.00  0.00    +0.000 C 
ATOM     17  N   UNL     1       3.251   2.676  20.191  0.00  0.00    +0.000 NA
ATOM     18  C   UNL     1       2.458   2.829  21.408  0.00  0.00    +0.000 C 
ATOM     19  C   UNL     1       1.072   3.141  20.871  0.00  0.00    +0.000 C 
ATOM     20  C   UNL     1       1.018   2.498  19.486  0.00  0.00    +0.000 C 
ATOM     21  C   UNL     1       2.407   1.889  19.268  0.00  0.00    +0.000 C 
ENDBRANCH  15  21
ENDBRANCH  14  15
ENDBRANCH   1  14
TORSDOF 4
ENDMDL
MODEL 3
REMARK VINA RESULT:      -7.3      2.121      4.281
REMARK  Name = 
REMARK  5 active torsions:
REMARK  status: ('A' for Active; 'I' for Inactive)
REMARK    1  A    between atoms: C_1  and  N_2
REMARK    2  A    between atoms: C_6  and  C_7
REMARK    3  A    between atoms: C_7  and  O_8
REMARK    4  A    between atoms: O_8  and  C_9
REMARK    5  A    between atoms: C_13  and  C_14
REMARK                            x       y       z     vdW  Elec       q    Type
REMARK                         _______ _______ _______ _____ _____    ______ ____
ROOT
ATOM      1  C   UNL     1       4.134   4.266  19.667  0.00  0.00    +0.000 A 
ATOM      2  C   UNL     1       3.216   3.415  20.276  0.00  0.00    +0.000 A 
ATOM      3  N   UNL     1       1.986   3.785  20.687  0.00  0.00    +0.000 NA
ATOM      4  C   UNL     1       1.652   5.078  20.479  0.00  0.00    +0.000 A 
ATOM      5  C   UNL     1       2.479   6.047  19.903  0.00  0.00    +0.000 A 
ATOM      6  C   UNL     1       3.751   5.600  19.491  0.00  0.00    +0.000 A 
ENDROOT
BRANCH   5   7
ATOM      7  C   UNL     1       2.006   7.441  19.741  0.00  0.00    +0.000 A 
ATOM      8  C   UNL     1       1.381   8.122  20.809  0.00  0.00    +0.000 A 
ATOM      9  C   UNL     1       0.862   9.412  20.658  0.00  0.00    +0.000 A 
ATOM     10  C   UNL     1       0.975  10.059  19.434  0.00  0.00    +0.000 A 
ATOM     11 CL   UNL     1       0.328  11.640  19.239  0.00  0.00    +0.000 Cl
ATOM     12  C   UNL     1       1.606   9.428  18.367  0.00  0.00    +0.000 A 
ATOM     13  C   UNL     1       2.114   8.129  18.521  0.00  0.00    +0.000 A 
ENDBRANCH   5   7
BRANCH   1  14
ATOM     14  O   UNL     1       5.387   3.906  19.222  0.00  0.00    +0.000 OA
BRANCH  14  15
ATOM     15  C   UNL     1       5.563   4.053  17.806  0.00  0.00    +0.000 C 
BRANCH  15  21
ATOM     16  C   UNL     1       5.300   6.587  15.999  0.00  0.00    +0.000 C 
ATOM     17  N   UNL     1       6.044   6.434  17.242  0.00  0.00    +0.000 NA
ATOM     18  C   UNL     1       7.169   7.363  17.323  0.00  0.00    +0.000 C 
ATOM     19  C   UNL     1       7.972   6.821  18.492  0.00  0.00    +0.000 C 
ATOM     20  C   UNL     1       7.653   5.328  18.547  0.00  0.00    +0.000 C 
ATOM     21  C   UNL     1       6.630   5.091  17.432  0.00  0.00    +0.000 C 
ENDBRANCH  15  21
ENDBRANCH  14  15
ENDBRANCH   1  14
TORSDOF 4
ENDMDL
MODEL 4
REMARK VINA RESULT:      -7.2      2.103      4.390
REMARK  Name = 
REMARK  5 active torsions:
REMARK  status: ('A' for Active; 'I' for Inactive)
REMARK    1  A    between atoms: C_1  and  N_2
REMARK    2  A    between atoms: C_6  and  C_7
REMARK    3  A    between atoms: C_7  and  O_8
REMARK    4  A    between atoms: O_8  and  C_9
REMARK    5  A    between atoms: C_13  and  C_14
REMARK                            x       y       z     vdW  Elec       q    Type
REMARK                         _______ _______ _______ _____ _____    ______ ____
ROOT
ATOM      1  C   UNL     1       4.116   4.251  19.662  0.00  0.00    +0.000 A 
ATOM      2  C   UNL     1       3.224   3.395  20.304  0.00  0.00    +0.000 A 
ATOM      3  N   UNL     1       1.996   3.751  20.731  0.00  0.00    +0.000 NA
ATOM      4  C   UNL     1       1.635   5.034  20.506  0.00  0.00    +0.000 A 
ATOM      5  C   UNL     1       2.434   6.007  19.897  0.00  0.00    +0.000 A 
ATOM      6  C   UNL     1       3.705   5.575  19.469  0.00  0.00    +0.000 A 
ENDROOT
BRANCH   5   7
ATOM      7  C   UNL     1       1.932   7.388  19.719  0.00  0.00    +0.000 A 
ATOM      8  C   UNL     1       2.082   8.060  18.485  0.00  0.00    +0.000 A 
ATOM      9  C   UNL     1       1.680   9.389  18.316  0.00  0.00    +0.000 A 
ATOM     10  C   UNL     1       1.099  10.072  19.377  0.00  0.00    +0.000 A 
ATOM     11 CL   UNL     1       0.614  11.710  19.177  0.00  0.00    +0.000 Cl
ATOM     12  C   UNL     1       0.914   9.435  20.599  0.00  0.00    +0.000 A 
ATOM     13  C   UNL     1       1.329   8.105  20.767  0.00  0.00    +0.000 A 
ENDBRANCH   5   7
BRANCH   1  14
ATOM     14  O   UNL     1       5.366   3.904  19.201  0.00  0.00    +0.000 OA
BRANCH  14  15
ATOM     15  C   UNL     1       5.522   4.054  17.782  0.00  0.00    +0.000 C 
BRANCH  15  21
ATOM     16  C   UNL     1       5.238   6.582  15.971  0.00  0.00    +0.000 C 
ATOM     17  N   UNL     1       5.995   6.433  17.207  0.00  0.00    +0.000 NA
ATOM     18  C   UNL     1       7.120   7.363  17.273  0.00  0.00    +0.000 C 
ATOM     19  C   UNL     1       7.936   6.825  18.435  0.00  0.00    +0.000 C 
ATOM     20  C   UNL     1       7.619   5.332  18.498  0.00  0.00    +0.000 C 
ATOM     21  C   UNL     1       6.584   5.091  17.394  0.00  0.00    +0.000 C 
ENDBRANCH  15  21
ENDBRANCH  14  15
ENDBRANCH   1  14
TORSDOF 4
ENDMDL
MODEL 5
REMARK VINA RESULT:      -7.2      2.353      3.586
REMARK  Name = 
REMARK  5 active torsions:
REMARK  status: ('A' for Active; 'I' for Inactive)
REMARK    1  A    between atoms: C_1  and  N_2
REMARK    2  A    between atoms: C_6  and  C_7
REMARK    3  A    between atoms: C_7  and  O_8
REMARK    4  A    between atoms: O_8  and  C_9
REMARK    5  A    between atoms: C_13  and  C_14
REMARK                            x       y       z     vdW  Elec       q    Type
REMARK                         _______ _______ _______ _____ _____    ______ ____
ROOT
ATOM      1  C   UNL     1       2.341   7.562  19.096  0.00  0.00    +0.000 A 
ATOM      2  C   UNL     1       2.559   8.244  17.902  0.00  0.00    +0.000 A 
ATOM      3  N   UNL     1       2.037   9.451  17.604  0.00  0.00    +0.000 NA
ATOM      4  C   UNL     1       1.252  10.011  18.551  0.00  0.00    +0.000 A 
ATOM      5  C   UNL     1       0.928   9.433  19.782  0.00  0.00    +0.000 A 
ATOM      6  C   UNL     1       1.505   8.173  20.038  0.00  0.00    +0.000 A 
ENDROOT
BRANCH   5   7
ATOM      7  C   UNL     1       0.041  10.140  20.735  0.00  0.00    +0.000 A 
ATOM      8  C   UNL     1      -0.699  11.272  20.332  0.00  0.00    +0.000 A 
ATOM      9  C   UNL     1      -1.487  11.998  21.233  0.00  0.00    +0.000 A 
ATOM     10  C   UNL     1      -1.565  11.591  22.558  0.00  0.00    +0.000 A 
ATOM     11 CL   UNL     1      -2.523  12.486  23.672  0.00  0.00    +0.000 Cl
ATOM     12  C   UNL     1      -0.868  10.466  22.986  0.00  0.00    +0.000 A 
ATOM     13  C   UNL     1      -0.071   9.749  22.081  0.00  0.00    +0.000 A 
ENDBRANCH   5   7
BRANCH   1  14
ATOM     14  O   UNL     1       2.878   6.338  19.429  0.00  0.00    +0.000 OA
BRANCH  14  15
ATOM     15  C   UNL     1       2.484   5.275  18.550  0.00  0.00    +0.000 C 
BRANCH  15  21
ATOM     16  C   UNL     1       4.481   3.048  19.448  0.00  0.00    +0.000 C 
ATOM     17  N   UNL     1       3.321   3.565  20.161  0.00  0.00    +0.000 NA
ATOM     18  C   UNL     1       2.765   2.580  21.086  0.00  0.00    +0.000 C 
ATOM     19  C   UNL     1       1.420   3.183  21.454  0.00  0.00    +0.000 C 
ATOM     20  C   UNL     1       1.026   4.056  20.263  0.00  0.00    +0.000 C 
ATOM     21  C   UNL     1       2.199   3.956  19.282  0.00  0.00    +0.000 C 
ENDBRANCH  15  21
ENDBRANCH  14  15
ENDBRANCH   1  14
TORSDOF 4
ENDMDL
MODEL 6
REMARK VINA RESULT:      -7.1      1.059      1.514
REMARK  Name = 
REMARK  5 active torsions:
REMARK  status: ('A' for Active; 'I' for Inactive)
REMARK    1  A    between atoms: C_1  and  N_2
REMARK    2  A    between atoms: C_6  and  C_7
REMARK    3  A    between atoms: C_7  and  O_8
REMARK    4  A    between atoms: O_8  and  C_9
REMARK    5  A    between atoms: C_13  and  C_14
REMARK                            x       y       z     vdW  Elec       q    Type
REMARK                         _______ _______ _______ _____ _____    ______ ____
ROOT
ATOM      1  C   UNL     1       4.477   4.677  17.405  0.00  0.00    +0.000 A 
ATOM      2  C   UNL     1       5.337   5.257  16.477  0.00  0.00    +0.000 A 
ATOM      3  N   UNL     1       5.359   6.570  16.171  0.00  0.00    +0.000 NA
ATOM      4  C   UNL     1       4.472   7.350  16.826  0.00  0.00    +0.000 A 
ATOM      5  C   UNL     1       3.535   6.903  17.763  0.00  0.00    +0.000 A 
ATOM      6  C   UNL     1       3.562   5.522  18.044  0.00  0.00    +0.000 A 
ENDROOT
BRANCH   5   7
ATOM      7  C   UNL     1       2.601   7.855  18.407  0.00  0.00    +0.000 A 
ATOM      8  C   UNL     1       2.180   7.666  19.741  0.00  0.00    +0.000 A 
ATOM      9  C   UNL     1       1.243   8.512  20.346  0.00  0.00    +0.000 A 
ATOM     10  C   UNL     1       0.721   9.581  19.631  0.00  0.00    +0.000 A 
ATOM     11 CL   UNL     1      -0.439  10.616  20.365  0.00  0.00    +0.000 Cl
ATOM     12  C   UNL     1       1.131   9.812  18.321  0.00  0.00    +0.000 A 
ATOM     13  C   UNL     1       2.061   8.954  17.716  0.00  0.00    +0.000 A 
ENDBRANCH   5   7
BRANCH   1  14
ATOM     14  O   UNL     1       4.449   3.344  17.747  0.00  0.00    +0.000 OA
BRANCH  14  15
ATOM     15  C   UNL     1       4.325   3.110  19.157  0.00  0.00    +0.000 C 
BRANCH  15  21
ATOM     16  C   UNL     1       2.464   3.821  21.563  0.00  0.00    +0.000 C 
ATOM     17  N   UNL     1       2.089   3.486  20.195  0.00  0.00    +0.000 NA
ATOM     18  C   UNL     1       0.748   2.911  20.122  0.00  0.00    +0.000 C 
ATOM     19  C   UNL     1       0.698   2.345  18.714  0.00  0.00    +0.000 C 
ATOM     20  C   UNL     1       2.149   2.036  18.349  0.00  0.00    +0.000 C 
ATOM     21  C   UNL     1       2.977   2.494  19.554  0.00  0.00    +0.000 C 
ENDBRANCH  15  21
ENDBRANCH  14  15
ENDBRANCH   1  14
TORSDOF 4
ENDMDL
MODEL 7
REMARK VINA RESULT:      -7.1      1.048      1.847
REMARK  Name = 
REMARK  5 active torsions:
REMARK  status: ('A' for Active; 'I' for Inactive)
REMARK    1  A    between atoms: C_1  and  N_2
REMARK    2  A    between atoms: C_6  and  C_7
REMARK    3  A    between atoms: C_7  and  O_8
REMARK    4  A    between atoms: O_8  and  C_9
REMARK    5  A    between atoms: C_13  and  C_14
REMARK                            x       y       z     vdW  Elec       q    Type
REMARK                         _______ _______ _______ _____ _____    ______ ____
ROOT
ATOM      1  C   UNL     1       4.494   4.720  17.441  0.00  0.00    +0.000 A 
ATOM      2  C   UNL     1       5.346   5.325  16.521  0.00  0.00    +0.000 A 
ATOM      3  N   UNL     1       5.335   6.639  16.218  0.00  0.00    +0.000 NA
ATOM      4  C   UNL     1       4.421   7.393  16.866  0.00  0.00    +0.000 A 
ATOM      5  C   UNL     1       3.488   6.918  17.794  0.00  0.00    +0.000 A 
ATOM      6  C   UNL     1       3.550   5.538  18.072  0.00  0.00    +0.000 A 
ENDROOT
BRANCH   5   7
ATOM      7  C   UNL     1       2.522   7.843  18.430  0.00  0.00    +0.000 A 
ATOM      8  C   UNL     1       2.026   8.965  17.731  0.00  0.00    +0.000 A 
ATOM      9  C   UNL     1       1.169   9.891  18.337  0.00  0.00    +0.000 A 
ATOM     10  C   UNL     1       0.773   9.701  19.654  0.00  0.00    +0.000 A 
ATOM     11 CL   UNL     1      -0.271  10.842  20.406  0.00  0.00    +0.000 Cl
ATOM     12  C   UNL     1       1.223   8.594  20.366  0.00  0.00    +0.000 A 
ATOM     13  C   UNL     1       2.092   7.675  19.758  0.00  0.00    +0.000 A 
ENDBRANCH   5   7
BRANCH   1  14
ATOM     14  O   UNL     1       4.500   3.385  17.780  0.00  0.00    +0.000 OA
BRANCH  14  15
ATOM     15  C   UNL     1       4.351   3.146  19.187  0.00  0.00    +0.000 C 
BRANCH  15  21
ATOM     16  C   UNL     1       2.432   3.821  21.557  0.00  0.00    +0.000 C 
ATOM     17  N   UNL     1       2.089   3.484  20.181  0.00  0.00    +0.000 NA
ATOM     18  C   UNL     1       0.759   2.890  20.080  0.00  0.00    +0.000 C 
ATOM     19  C   UNL     1       0.746   2.328  18.669  0.00  0.00    +0.000 C 
ATOM     20  C   UNL     1       2.208   2.041  18.332  0.00  0.00    +0.000 C 
ATOM     21  C   UNL     1       3.004   2.508  19.555  0.00  0.00    +0.000 C 
ENDBRANCH  15  21
ENDBRANCH  14  15
ENDBRANCH   1  14
TORSDOF 4
ENDMDL
MODEL 8
REMARK VINA RESULT:      -7.1      2.454      3.706
REMARK  Name = 
REMARK  5 active torsions:
REMARK  status: ('A' for Active; 'I' for Inactive)
REMARK    1  A    between atoms: C_1  and  N_2
REMARK    2  A    between atoms: C_6  and  C_7
REMARK    3  A    between atoms: C_7  and  O_8
REMARK    4  A    between atoms: O_8  and  C_9
REMARK    5  A    between atoms: C_13  and  C_14
REMARK                            x       y       z     vdW  Elec       q    Type
REMARK                         _______ _______ _______ _____ _____    ______ ____
ROOT
ATOM      1  C   UNL     1       2.239   7.701  19.203  0.00  0.00    +0.000 A 
ATOM      2  C   UNL     1       2.389   8.308  17.959  0.00  0.00    +0.000 A 
ATOM      3  N   UNL     1       1.833   9.486  17.611  0.00  0.00    +0.000 NA
ATOM      4  C   UNL     1       1.082  10.093  18.556  0.00  0.00    +0.000 A 
ATOM      5  C   UNL     1       0.825   9.591  19.835  0.00  0.00    +0.000 A 
ATOM      6  C   UNL     1       1.436   8.359  20.142  0.00  0.00    +0.000 A 
ENDROOT
BRANCH   5   7
ATOM      7  C   UNL     1      -0.029  10.344  20.781  0.00  0.00    +0.000 A 
ATOM      8  C   UNL     1      -0.130   9.953  22.135  0.00  0.00    +0.000 A 
ATOM      9  C   UNL     1      -0.985  10.605  23.029  0.00  0.00    +0.000 A 
ATOM     10  C   UNL     1      -1.747  11.680  22.591  0.00  0.00    +0.000 A 
ATOM     11 CL   UNL     1      -2.809  12.478  23.684  0.00  0.00    +0.000 Cl
ATOM     12  C   UNL     1      -1.656  12.108  21.270  0.00  0.00    +0.000 A 
ATOM     13  C   UNL     1      -0.805  11.443  20.375  0.00  0.00    +0.000 A 
ENDBRANCH   5   7
BRANCH   1  14
ATOM     14  O   UNL     1       2.813   6.510  19.588  0.00  0.00    +0.000 OA
BRANCH  14  15
ATOM     15  C   UNL     1       2.705   5.471  18.603  0.00  0.00    +0.000 C 
BRANCH  15  21
ATOM     16  C   UNL     1       2.674   2.495  17.656  0.00  0.00    +0.000 C 
ATOM     17  N   UNL     1       2.452   3.022  18.997  0.00  0.00    +0.000 NA
ATOM     18  C   UNL     1       1.620   2.132  19.802  0.00  0.00    +0.000 C 
ATOM     19  C   UNL     1       1.250   3.000  20.993  0.00  0.00    +0.000 C 
ATOM     20  C   UNL     1       1.309   4.438  20.481  0.00  0.00    +0.000 C 
ATOM     21  C   UNL     1       1.768   4.331  19.023  0.00  0.00    +0.000 C 
ENDBRANCH  15  21
ENDBRANCH  14  15
ENDBRANCH   1  14
TORSDOF 4
ENDMDL
MODEL 9
REMARK VINA RESULT:      -7.1      1.338      2.134
REMARK  Name = 
REMARK  5 active torsions:
REMARK  status: ('A' for Active; 'I' for Inactive)
REMARK    1  A    between atoms: C_1  and  N_2
REMARK    2  A    between atoms: C_6  and  C_7
REMARK    3  A    between atoms: C_7  and  O_8
REMARK    4  A    between atoms: O_8  and  C_9
REMARK    5  A    between atoms: C_13  and  C_14
REMARK                            x       y       z     vdW  Elec       q    Type
REMARK                         _______ _______ _______ _____ _____    ______ ____
ROOT
ATOM      1  C   UNL     1       5.126   4.576  18.644  0.00  0.00    +0.000 A 
ATOM      2  C   UNL     1       5.576   4.690  17.331  0.00  0.00    +0.000 A 
ATOM      3  N   UNL     1       5.171   5.640  16.464  0.00  0.00    +0.000 NA
ATOM      4  C   UNL     1       4.265   6.526  16.930  0.00  0.00    +0.000 A 
ATOM      5  C   UNL     1       3.709   6.519  18.213  0.00  0.00    +0.000 A 
ATOM      6  C   UNL     1       4.172   5.505  19.075  0.00  0.00    +0.000 A 
ENDROOT
BRANCH   5   7
ATOM      7  C   UNL     1       2.709   7.538  18.606  0.00  0.00    +0.000 A 
ATOM      8  C   UNL     1       2.331   8.564  17.712  0.00  0.00    +0.000 A 
ATOM      9  C   UNL     1       1.442   9.578  18.086  0.00  0.00    +0.000 A 
ATOM     10  C   UNL     1       0.895   9.575  19.362  0.00  0.00    +0.000 A 
ATOM     11 CL   UNL     1      -0.188  10.827  19.831  0.00  0.00    +0.000 Cl
ATOM     12  C   UNL     1       1.227   8.568  20.262  0.00  0.00    +0.000 A 
ATOM     13  C   UNL     1       2.127   7.559  19.885  0.00  0.00    +0.000 A 
ENDBRANCH   5   7
BRANCH   1  14
ATOM     14  O   UNL     1       5.539   3.627  19.552  0.00  0.00    +0.000 OA
BRANCH  14  15
ATOM     15  C   UNL     1       4.566   2.603  19.802  0.00  0.00    +0.000 C 
BRANCH  15  21
ATOM     16  C   UNL     1       2.199   2.517  17.766  0.00  0.00    +0.000 C 
ATOM     17  N   UNL     1       2.159   2.325  19.210  0.00  0.00    +0.000 NA
ATOM     18  C   UNL     1       0.856   2.672  19.772  0.00  0.00    +0.000 C 
ATOM     19  C   UNL     1       1.133   2.721  21.264  0.00  0.00    +0.000 C 
ATOM     20  C   UNL     1       2.616   3.066  21.391  0.00  0.00    +0.000 C 
ATOM     21  C   UNL     1       3.138   3.145  19.953  0.00  0.00    +0.000 C 
ENDBRANCH  15  21
ENDBRANCH  14  15
ENDBRANCH   1  14
TORSDOF 4
ENDMDL
