MODEL 1
REMARK VINA RESULT:      -8.3      0.000      0.000
REMARK  Name = 
REMARK  4 active torsions:
REMARK  status: ('A' for Active; 'I' for Inactive)
REMARK    1  A    between atoms: C_2  and  C_3
REMARK    2  A    between atoms: C_3  and  C_4
REMARK    3  A    between atoms: N_13  and  C_14
REMARK    4  A    between atoms: N_22  and  C_23
REMARK                            x       y       z     vdW  Elec       q    Type
REMARK                         _______ _______ _______ _____ _____    ______ ____
ROOT
ATOM      1  C   UNL     1       3.107   3.926  19.840  0.00  0.00    +0.000 C 
ATOM      2  C   UNL     1       2.839   3.089  21.135  0.00  0.00    +0.000 C 
ATOM      3  O   UNL     1       1.984   3.404  21.961  0.00  0.00    +0.000 OA
ATOM      4  N   UNL     1       3.589   1.965  21.349  0.00  0.00    +0.000 N 
ATOM      5  C   UNL     1       4.633   1.539  20.455  0.00  0.00    +0.000 C 
ATOM      6  C   UNL     1       4.270   1.874  19.014  0.00  0.00    +0.000 C 
ATOM      7  N   UNL     1       4.090   3.320  18.871  0.00  0.00    +0.000 N 
ATOM      8  C   UNL     1       4.546   4.058  17.777  0.00  0.00    +0.000 C 
ATOM      9  O   UNL     1       4.421   5.278  17.742  0.00  0.00    +0.000 OA
ATOM     10  N   UNL     1       5.159   3.336  16.778  0.00  0.00    +0.000 N 
ATOM     11  H   UNL     1       3.491   1.554  22.270  0.00  0.00    +0.000 HD
ATOM     12  H   UNL     1       4.932   2.354  16.701  0.00  0.00    +0.000 HD
ENDROOT
BRANCH  10  13
ATOM     13  C   UNL     1       5.794   3.849  15.617  0.00  0.00    +0.000 A 
ATOM     14  C   UNL     1       5.303   3.699  14.320  0.00  0.00    +0.000 A 
ATOM     15  C   UNL     1       6.024   4.199  13.231  0.00  0.00    +0.000 A 
ATOM     16  C   UNL     1       7.235   4.851  13.438  0.00  0.00    +0.000 A 
ATOM     17  F   UNL     1       7.932   5.298  12.386  0.00  0.00    +0.000 F 
ATOM     18  C   UNL     1       7.728   5.042  14.719  0.00  0.00    +0.000 A 
ATOM     19  C   UNL     1       6.996   4.551  15.796  0.00  0.00    +0.000 A 
ATOM     20  F   UNL     1       7.471   4.739  17.040  0.00  0.00    +0.000 F 
ENDBRANCH  10  13
BRANCH   1  21
ATOM     21  C   UNL     1       3.347   5.369  20.323  0.00  0.00    +0.000 C 
BRANCH  21  23
ATOM     22  O   UNL     1       1.000   5.648  20.018  0.00  0.00    +0.000 OA
ATOM     23  C   UNL     1       2.085   6.188  20.205  0.00  0.00    +0.000 C 
ATOM     24  N   UNL     1       2.292   7.539  20.362  0.00  0.00    +0.000 N 
ATOM     25  H   UNL     1       3.262   7.861  20.337  0.00  0.00    +0.000 HD
BRANCH  24  26
ATOM     26  C   UNL     1       1.303   8.543  20.471  0.00  0.00    +0.000 A 
ATOM     27  C   UNL     1       0.679   8.862  21.685  0.00  0.00    +0.000 A 
ATOM     28  C   UNL     1      -0.261   9.893  21.743  0.00  0.00    +0.000 A 
ATOM     29 CL   UNL     1      -0.997  10.293  23.247  0.00  0.00    +0.000 Cl
ATOM     30  C   UNL     1      -0.598  10.615  20.601  0.00  0.00    +0.000 A 
ATOM     31  C   UNL     1       0.013  10.308  19.386  0.00  0.00    +0.000 A 
ATOM     32  C   UNL     1       0.961   9.282  19.325  0.00  0.00    +0.000 A 
ATOM     33 CL   UNL     1       1.671   8.936  17.786  0.00  0.00    +0.000 Cl
ENDBRANCH  24  26
ENDBRANCH  21  23
ENDBRANCH   1  21
TORSDOF 4
ENDMDL
MODEL 2
REMARK VINA RESULT:      -8.1      3.877      6.244
REMARK  Name = 
REMARK  4 active torsions:
REMARK  status: ('A' for Active; 'I' for Inactive)
REMARK    1  A    between atoms: C_2  and  C_3
REMARK    2  A    between atoms: C_3  and  C_4
REMARK    3  A    between atoms: N_13  and  C_14
REMARK    4  A    between atoms: N_22  and  C_23
REMARK                            x       y       z     vdW  Elec       q    Type
REMARK                         _______ _______ _______ _____ _____    ______ ____
ROOT
ATOM      1  C   UNL     1       0.434   9.888  19.928  0.00  0.00    +0.000 C 
ATOM      2  C   UNL     1      -0.084  10.467  21.287  0.00  0.00    +0.000 C 
ATOM      3  O   UNL     1      -0.944  11.345  21.348  0.00  0.00    +0.000 OA
ATOM      4  N   UNL     1       0.446   9.974  22.448  0.00  0.00    +0.000 N 
ATOM      5  C   UNL     1       1.479   8.972  22.473  0.00  0.00    +0.000 C 
ATOM      6  C   UNL     1       1.306   8.000  21.314  0.00  0.00    +0.000 C 
ATOM      7  N   UNL     1       1.383   8.723  20.043  0.00  0.00    +0.000 N 
ATOM      8  C   UNL     1       2.050   8.245  18.914  0.00  0.00    +0.000 C 
ATOM      9  O   UNL     1       2.135   8.924  17.895  0.00  0.00    +0.000 OA
ATOM     10  N   UNL     1       2.620   6.998  19.035  0.00  0.00    +0.000 N 
ATOM     11  H   UNL     1       0.200  10.491  23.284  0.00  0.00    +0.000 HD
ATOM     12  H   UNL     1       2.240   6.374  19.732  0.00  0.00    +0.000 HD
ENDROOT
BRANCH  10  13
ATOM     13  C   UNL     1       3.433   6.331  18.080  0.00  0.00    +0.000 A 
ATOM     14  C   UNL     1       4.453   6.944  17.351  0.00  0.00    +0.000 A 
ATOM     15  C   UNL     1       5.171   6.216  16.396  0.00  0.00    +0.000 A 
ATOM     16  C   UNL     1       4.870   4.878  16.170  0.00  0.00    +0.000 A 
ATOM     17  F   UNL     1       5.542   4.200  15.231  0.00  0.00    +0.000 F 
ATOM     18  C   UNL     1       3.884   4.238  16.903  0.00  0.00    +0.000 A 
ATOM     19  C   UNL     1       3.184   4.968  17.860  0.00  0.00    +0.000 A 
ATOM     20  F   UNL     1       2.229   4.348  18.575  0.00  0.00    +0.000 F 
ENDBRANCH  10  13
BRANCH   1  21
ATOM     21  C   UNL     1       0.868  11.110  19.096  0.00  0.00    +0.000 C 
BRANCH  21  23
ATOM     22  O   UNL     1      -0.318  12.845  17.971  0.00  0.00    +0.000 OA
ATOM     23  C   UNL     1      -0.301  11.670  18.322  0.00  0.00    +0.000 C 
ATOM     24  N   UNL     1      -1.272  10.736  18.045  0.00  0.00    +0.000 N 
ATOM     25  H   UNL     1      -1.210   9.847  18.545  0.00  0.00    +0.000 HD
BRANCH  24  26
ATOM     26  C   UNL     1      -2.396  10.904  17.205  0.00  0.00    +0.000 A 
ATOM     27  C   UNL     1      -2.432  10.433  15.886  0.00  0.00    +0.000 A 
ATOM     28  C   UNL     1      -3.586  10.588  15.114  0.00  0.00    +0.000 A 
ATOM     29 CL   UNL     1      -3.626   9.978  13.505  0.00  0.00    +0.000 Cl
ATOM     30  C   UNL     1      -4.714  11.216  15.638  0.00  0.00    +0.000 A 
ATOM     31  C   UNL     1      -4.692  11.690  16.948  0.00  0.00    +0.000 A 
ATOM     32  C   UNL     1      -3.542  11.530  17.727  0.00  0.00    +0.000 A 
ATOM     33 CL   UNL     1      -3.570  12.156  19.339  0.00  0.00    +0.000 Cl
ENDBRANCH  24  26
ENDBRANCH  21  23
ENDBRANCH   1  21
TORSDOF 4
ENDMDL
MODEL 3
REMARK VINA RESULT:      -8.0      2.425      3.018
REMARK  Name = 
REMARK  4 active torsions:
REMARK  status: ('A' for Active; 'I' for Inactive)
REMARK    1  A    between atoms: C_2  and  C_3
REMARK    2  A    between atoms: C_3  and  C_4
REMARK    3  A    between atoms: N_13  and  C_14
REMARK    4  A    between atoms: N_22  and  C_23
REMARK                            x       y       z     vdW  Elec       q    Type
REMARK                         _______ _______ _______ _____ _____    ______ ____
ROOT
ATOM      1  C   UNL     1       2.313   3.711  19.167  0.00  0.00    +0.000 C 
ATOM      2  C   UNL     1       1.663   2.289  19.100  0.00  0.00    +0.000 C 
ATOM      3  O   UNL     1       0.487   2.084  19.395  0.00  0.00    +0.000 OA
ATOM      4  N   UNL     1       2.441   1.238  18.698  0.00  0.00    +0.000 N 
ATOM      5  C   UNL     1       3.834   1.377  18.365  0.00  0.00    +0.000 C 
ATOM      6  C   UNL     1       4.094   2.729  17.715  0.00  0.00    +0.000 C 
ATOM      7  N   UNL     1       3.720   3.804  18.637  0.00  0.00    +0.000 N 
ATOM      8  C   UNL     1       4.464   4.972  18.813  0.00  0.00    +0.000 C 
ATOM      9  O   UNL     1       4.135   5.810  19.646  0.00  0.00    +0.000 OA
ATOM     10  N   UNL     1       5.584   5.097  18.023  0.00  0.00    +0.000 N 
ATOM     11  H   UNL     1       2.025   0.323  18.827  0.00  0.00    +0.000 HD
ATOM     12  H   UNL     1       5.610   4.576  17.159  0.00  0.00    +0.000 HD
ENDROOT
BRANCH  10  13
ATOM     13  C   UNL     1       6.558   6.130  18.076  0.00  0.00    +0.000 A 
ATOM     14  C   UNL     1       7.657   6.131  18.935  0.00  0.00    +0.000 A 
ATOM     15  C   UNL     1       8.539   7.217  18.949  0.00  0.00    +0.000 A 
ATOM     16  C   UNL     1       8.324   8.299  18.103  0.00  0.00    +0.000 A 
ATOM     17  F   UNL     1       9.157   9.347  18.147  0.00  0.00    +0.000 F 
ATOM     18  C   UNL     1       7.259   8.307  17.217  0.00  0.00    +0.000 A 
ATOM     19  C   UNL     1       6.394   7.216  17.203  0.00  0.00    +0.000 A 
ATOM     20  F   UNL     1       5.363   7.220  16.341  0.00  0.00    +0.000 F 
ENDBRANCH  10  13
BRANCH   1  21
ATOM     21  C   UNL     1       2.029   4.230  20.589  0.00  0.00    +0.000 C 
BRANCH  21  23
ATOM     22  O   UNL     1      -0.092   5.319  20.537  0.00  0.00    +0.000 OA
ATOM     23  C   UNL     1       1.129   5.441  20.546  0.00  0.00    +0.000 C 
ATOM     24  N   UNL     1       1.816   6.633  20.553  0.00  0.00    +0.000 N 
ATOM     25  H   UNL     1       2.823   6.584  20.385  0.00  0.00    +0.000 HD
BRANCH  24  26
ATOM     26  C   UNL     1       1.266   7.929  20.684  0.00  0.00    +0.000 A 
ATOM     27  C   UNL     1       0.589   8.350  21.837  0.00  0.00    +0.000 A 
ATOM     28  C   UNL     1       0.104   9.656  21.930  0.00  0.00    +0.000 A 
ATOM     29 CL   UNL     1      -0.699  10.169  23.363  0.00  0.00    +0.000 Cl
ATOM     30  C   UNL     1       0.278  10.557  20.882  0.00  0.00    +0.000 A 
ATOM     31  C   UNL     1       0.948  10.152  19.728  0.00  0.00    +0.000 A 
ATOM     32  C   UNL     1       1.443   8.848  19.635  0.00  0.00    +0.000 A 
ATOM     33 CL   UNL     1       2.249   8.398  18.172  0.00  0.00    +0.000 Cl
ENDBRANCH  24  26
ENDBRANCH  21  23
ENDBRANCH   1  21
TORSDOF 4
ENDMDL
MODEL 4
REMARK VINA RESULT:      -7.8      3.969      6.144
REMARK  Name = 
REMARK  4 active torsions:
REMARK  status: ('A' for Active; 'I' for Inactive)
REMARK    1  A    between atoms: C_2  and  C_3
REMARK    2  A    between atoms: C_3  and  C_4
REMARK    3  A    between atoms: N_13  and  C_14
REMARK    4  A    between atoms: N_22  and  C_23
REMARK                            x       y       z     vdW  Elec       q    Type
REMARK                         _______ _______ _______ _____ _____    ______ ____
ROOT
ATOM      1  C   UNL     1       0.207   9.899  19.915  0.00  0.00    +0.000 C 
ATOM      2  C   UNL     1      -0.259  10.549  21.260  0.00  0.00    +0.000 C 
ATOM      3  O   UNL     1      -1.166  11.378  21.316  0.00  0.00    +0.000 OA
ATOM      4  N   UNL     1       0.373  10.176  22.415  0.00  0.00    +0.000 N 
ATOM      5  C   UNL     1       1.465   9.239  22.442  0.00  0.00    +0.000 C 
ATOM      6  C   UNL     1       1.280   8.174  21.371  0.00  0.00    +0.000 C 
ATOM      7  N   UNL     1       1.232   8.802  20.049  0.00  0.00    +0.000 N 
ATOM      8  C   UNL     1       1.855   8.278  18.914  0.00  0.00    +0.000 C 
ATOM      9  O   UNL     1       1.833   8.882  17.846  0.00  0.00    +0.000 OA
ATOM     10  N   UNL     1       2.507   7.078  19.086  0.00  0.00    +0.000 N 
ATOM     11  H   UNL     1       0.149  10.739  23.227  0.00  0.00    +0.000 HD
ATOM     12  H   UNL     1       2.211   6.488  19.850  0.00  0.00    +0.000 HD
ENDROOT
BRANCH  10  13
ATOM     13  C   UNL     1       3.298   6.389  18.128  0.00  0.00    +0.000 A 
ATOM     14  C   UNL     1       4.317   6.977  17.380  0.00  0.00    +0.000 A 
ATOM     15  C   UNL     1       5.012   6.228  16.424  0.00  0.00    +0.000 A 
ATOM     16  C   UNL     1       4.689   4.892  16.218  0.00  0.00    +0.000 A 
ATOM     17  F   UNL     1       5.338   4.193  15.278  0.00  0.00    +0.000 F 
ATOM     18  C   UNL     1       3.702   4.276  16.970  0.00  0.00    +0.000 A 
ATOM     19  C   UNL     1       3.026   5.027  17.928  0.00  0.00    +0.000 A 
ATOM     20  F   UNL     1       2.071   4.430  18.662  0.00  0.00    +0.000 F 
ENDBRANCH  10  13
BRANCH   1  21
ATOM     21  C   UNL     1       0.512  11.077  18.970  0.00  0.00    +0.000 C 
BRANCH  21  23
ATOM     22  O   UNL     1      -0.727  13.005  18.313  0.00  0.00    +0.000 OA
ATOM     23  C   UNL     1      -0.755  11.817  18.615  0.00  0.00    +0.000 C 
ATOM     24  N   UNL     1      -1.878  11.022  18.639  0.00  0.00    +0.000 N 
ATOM     25  H   UNL     1      -1.781  10.103  19.075  0.00  0.00    +0.000 HD
BRANCH  24  26
ATOM     26  C   UNL     1      -3.175  11.372  18.199  0.00  0.00    +0.000 A 
ATOM     27  C   UNL     1      -4.111  12.002  19.030  0.00  0.00    +0.000 A 
ATOM     28  C   UNL     1      -5.364  12.365  18.531  0.00  0.00    +0.000 A 
ATOM     29 CL   UNL     1      -6.493  13.165  19.554  0.00  0.00    +0.000 Cl
ATOM     30  C   UNL     1      -5.706  12.102  17.206  0.00  0.00    +0.000 A 
ATOM     31  C   UNL     1      -4.785  11.474  16.368  0.00  0.00    +0.000 A 
ATOM     32  C   UNL     1      -3.527  11.117  16.862  0.00  0.00    +0.000 A 
ATOM     33 CL   UNL     1      -2.435  10.325  15.780  0.00  0.00    +0.000 Cl
ENDBRANCH  24  26
ENDBRANCH  21  23
ENDBRANCH   1  21
TORSDOF 4
ENDMDL
MODEL 5
REMARK VINA RESULT:      -7.8      5.768     11.007
REMARK  Name = 
REMARK  4 active torsions:
REMARK  status: ('A' for Active; 'I' for Inactive)
REMARK    1  A    between atoms: C_2  and  C_3
REMARK    2  A    between atoms: C_3  and  C_4
REMARK    3  A    between atoms: N_13  and  C_14
REMARK    4  A    between atoms: N_22  and  C_23
REMARK                            x       y       z     vdW  Elec       q    Type
REMARK                         _______ _______ _______ _____ _____    ______ ____
ROOT
ATOM      1  C   UNL     1       0.377  10.694  19.676  0.00  0.00    +0.000 C 
ATOM      2  C   UNL     1       1.468  11.044  18.610  0.00  0.00    +0.000 C 
ATOM      3  O   UNL     1       2.269  10.213  18.184  0.00  0.00    +0.000 OA
ATOM      4  N   UNL     1       1.528  12.328  18.139  0.00  0.00    +0.000 N 
ATOM      5  C   UNL     1       0.656  13.373  18.603  0.00  0.00    +0.000 C 
ATOM      6  C   UNL     1      -0.721  12.812  18.931  0.00  0.00    +0.000 C 
ATOM      7  N   UNL     1      -0.606  11.795  19.979  0.00  0.00    +0.000 N 
ATOM      8  C   UNL     1      -1.505  11.665  21.039  0.00  0.00    +0.000 C 
ATOM      9  O   UNL     1      -1.323  10.833  21.923  0.00  0.00    +0.000 OA
ATOM     10  N   UNL     1      -2.569  12.538  21.037  0.00  0.00    +0.000 N 
ATOM     11  H   UNL     1       2.347  12.541  17.580  0.00  0.00    +0.000 HD
ATOM     12  H   UNL     1      -2.845  12.940  20.153  0.00  0.00    +0.000 HD
ENDROOT
BRANCH  10  13
ATOM     13  C   UNL     1      -3.560  12.682  22.044  0.00  0.00    +0.000 A 
ATOM     14  C   UNL     1      -3.296  12.680  23.413  0.00  0.00    +0.000 A 
ATOM     15  C   UNL     1      -4.346  12.780  24.333  0.00  0.00    +0.000 A 
ATOM     16  C   UNL     1      -5.657  12.885  23.884  0.00  0.00    +0.000 A 
ATOM     17  F   UNL     1      -6.656  12.948  24.774  0.00  0.00    +0.000 F 
ATOM     18  C   UNL     1      -5.943  12.922  22.529  0.00  0.00    +0.000 A 
ATOM     19  C   UNL     1      -4.890  12.834  21.622  0.00  0.00    +0.000 A 
ATOM     20  F   UNL     1      -5.164  12.874  20.307  0.00  0.00    +0.000 F 
ENDBRANCH  10  13
BRANCH   1  21
ATOM     21  C   UNL     1       1.138  10.046  20.848  0.00  0.00    +0.000 C 
BRANCH  21  23
ATOM     22  O   UNL     1      -0.034   8.003  21.219  0.00  0.00    +0.000 OA
ATOM     23  C   UNL     1       0.990   8.544  20.815  0.00  0.00    +0.000 C 
ATOM     24  N   UNL     1       2.077   7.900  20.270  0.00  0.00    +0.000 N 
ATOM     25  H   UNL     1       2.923   8.457  20.138  0.00  0.00    +0.000 HD
BRANCH  24  26
ATOM     26  C   UNL     1       2.176   6.527  19.948  0.00  0.00    +0.000 A 
ATOM     27  C   UNL     1       1.705   5.515  20.796  0.00  0.00    +0.000 A 
ATOM     28  C   UNL     1       1.790   4.176  20.409  0.00  0.00    +0.000 A 
ATOM     29 CL   UNL     1       1.181   2.946  21.447  0.00  0.00    +0.000 Cl
ATOM     30  C   UNL     1       2.347   3.824  19.182  0.00  0.00    +0.000 A 
ATOM     31  C   UNL     1       2.821   4.820  18.328  0.00  0.00    +0.000 A 
ATOM     32  C   UNL     1       2.730   6.161  18.709  0.00  0.00    +0.000 A 
ATOM     33 CL   UNL     1       3.352   7.350  17.616  0.00  0.00    +0.000 Cl
ENDBRANCH  24  26
ENDBRANCH  21  23
ENDBRANCH   1  21
TORSDOF 4
ENDMDL
MODEL 6
REMARK VINA RESULT:      -7.7      5.844     11.045
REMARK  Name = 
REMARK  4 active torsions:
REMARK  status: ('A' for Active; 'I' for Inactive)
REMARK    1  A    between atoms: C_2  and  C_3
REMARK    2  A    between atoms: C_3  and  C_4
REMARK    3  A    between atoms: N_13  and  C_14
REMARK    4  A    between atoms: N_22  and  C_23
REMARK                            x       y       z     vdW  Elec       q    Type
REMARK                         _______ _______ _______ _____ _____    ______ ____
ROOT
ATOM      1  C   UNL     1       0.630  11.831  18.637  0.00  0.00    +0.000 C 
ATOM      2  C   UNL     1       1.976  12.590  18.384  0.00  0.00    +0.000 C 
ATOM      3  O   UNL     1       2.982  12.028  17.954  0.00  0.00    +0.000 OA
ATOM      4  N   UNL     1       2.027  13.930  18.658  0.00  0.00    +0.000 N 
ATOM      5  C   UNL     1       0.912  14.662  19.195  0.00  0.00    +0.000 C 
ATOM      6  C   UNL     1      -0.400  14.109  18.654  0.00  0.00    +0.000 C 
ATOM      7  N   UNL     1      -0.537  12.700  19.031  0.00  0.00    +0.000 N 
ATOM      8  C   UNL     1      -1.733  12.121  19.458  0.00  0.00    +0.000 C 
ATOM      9  O   UNL     1      -1.773  10.949  19.821  0.00  0.00    +0.000 OA
ATOM     10  N   UNL     1      -2.832  12.950  19.471  0.00  0.00    +0.000 N 
ATOM     11  H   UNL     1       2.956  14.336  18.634  0.00  0.00    +0.000 HD
ATOM     12  H   UNL     1      -2.819  13.756  18.864  0.00  0.00    +0.000 HD
ENDROOT
BRANCH  10  13
ATOM     13  C   UNL     1      -4.131  12.641  19.953  0.00  0.00    +0.000 A 
ATOM     14  C   UNL     1      -4.574  12.910  21.248  0.00  0.00    +0.000 A 
ATOM     15  C   UNL     1      -5.858  12.526  21.648  0.00  0.00    +0.000 A 
ATOM     16  C   UNL     1      -6.701  11.875  20.753  0.00  0.00    +0.000 A 
ATOM     17  F   UNL     1      -7.916  11.484  21.156  0.00  0.00    +0.000 F 
ATOM     18  C   UNL     1      -6.296  11.625  19.451  0.00  0.00    +0.000 A 
ATOM     19  C   UNL     1      -5.021  12.023  19.061  0.00  0.00    +0.000 A 
ATOM     20  F   UNL     1      -4.628  11.785  17.797  0.00  0.00    +0.000 F 
ENDBRANCH  10  13
BRANCH   1  21
ATOM     21  C   UNL     1       0.992  10.635  19.538  0.00  0.00    +0.000 C 
BRANCH  21  23
ATOM     22  O   UNL     1       0.811   9.291  17.577  0.00  0.00    +0.000 OA
ATOM     23  C   UNL     1       1.277   9.408  18.706  0.00  0.00    +0.000 C 
ATOM     24  N   UNL     1       2.107   8.505  19.329  0.00  0.00    +0.000 N 
ATOM     25  H   UNL     1       2.276   8.649  20.326  0.00  0.00    +0.000 HD
BRANCH  24  26
ATOM     26  C   UNL     1       2.689   7.351  18.756  0.00  0.00    +0.000 A 
ATOM     27  C   UNL     1       3.523   7.402  17.632  0.00  0.00    +0.000 A 
ATOM     28  C   UNL     1       4.105   6.235  17.133  0.00  0.00    +0.000 A 
ATOM     29 CL   UNL     1       5.152   6.317  15.770  0.00  0.00    +0.000 Cl
ATOM     30  C   UNL     1       3.863   5.004  17.739  0.00  0.00    +0.000 A 
ATOM     31  C   UNL     1       3.034   4.937  18.857  0.00  0.00    +0.000 A 
ATOM     32  C   UNL     1       2.456   6.105  19.364  0.00  0.00    +0.000 A 
ATOM     33 CL   UNL     1       1.421   5.956  20.743  0.00  0.00    +0.000 Cl
ENDBRANCH  24  26
ENDBRANCH  21  23
ENDBRANCH   1  21
TORSDOF 4
ENDMDL
MODEL 7
REMARK VINA RESULT:      -7.6      5.928     11.074
REMARK  Name = 
REMARK  4 active torsions:
REMARK  status: ('A' for Active; 'I' for Inactive)
REMARK    1  A    between atoms: C_2  and  C_3
REMARK    2  A    between atoms: C_3  and  C_4
REMARK    3  A    between atoms: N_13  and  C_14
REMARK    4  A    between atoms: N_22  and  C_23
REMARK                            x       y       z     vdW  Elec       q    Type
REMARK                         _______ _______ _______ _____ _____    ______ ____
ROOT
ATOM      1  C   UNL     1       0.635  11.814  18.622  0.00  0.00    +0.000 C 
ATOM      2  C   UNL     1       1.974  12.590  18.387  0.00  0.00    +0.000 C 
ATOM      3  O   UNL     1       2.992  12.041  17.965  0.00  0.00    +0.000 OA
ATOM      4  N   UNL     1       2.007  13.929  18.665  0.00  0.00    +0.000 N 
ATOM      5  C   UNL     1       0.877  14.646  19.192  0.00  0.00    +0.000 C 
ATOM      6  C   UNL     1      -0.421  14.079  18.636  0.00  0.00    +0.000 C 
ATOM      7  N   UNL     1      -0.546  12.668  19.006  0.00  0.00    +0.000 N 
ATOM      8  C   UNL     1      -1.740  12.073  19.419  0.00  0.00    +0.000 C 
ATOM      9  O   UNL     1      -1.770  10.900  19.778  0.00  0.00    +0.000 OA
ATOM     10  N   UNL     1      -2.848  12.889  19.424  0.00  0.00    +0.000 N 
ATOM     11  H   UNL     1       2.931  14.346  18.652  0.00  0.00    +0.000 HD
ATOM     12  H   UNL     1      -2.838  13.698  18.819  0.00  0.00    +0.000 HD
ENDROOT
BRANCH  10  13
ATOM     13  C   UNL     1      -4.149  12.563  19.891  0.00  0.00    +0.000 A 
ATOM     14  C   UNL     1      -5.145  11.985  19.104  0.00  0.00    +0.000 A 
ATOM     15  C   UNL     1      -6.415  11.744  19.639  0.00  0.00    +0.000 A 
ATOM     16  C   UNL     1      -6.688  12.077  20.961  0.00  0.00    +0.000 A 
ATOM     17  F   UNL     1      -7.915  11.871  21.454  0.00  0.00    +0.000 F 
ATOM     18  C   UNL     1      -5.706  12.622  21.773  0.00  0.00    +0.000 A 
ATOM     19  C   UNL     1      -4.442  12.847  21.233  0.00  0.00    +0.000 A 
ATOM     20  F   UNL     1      -3.487  13.371  22.020  0.00  0.00    +0.000 F 
ENDBRANCH  10  13
BRANCH   1  21
ATOM     21  C   UNL     1       1.002  10.619  19.523  0.00  0.00    +0.000 C 
BRANCH  21  23
ATOM     22  O   UNL     1       0.844   9.283  17.555  0.00  0.00    +0.000 OA
ATOM     23  C   UNL     1       1.293   9.394  18.691  0.00  0.00    +0.000 C 
ATOM     24  N   UNL     1       2.110   8.485  19.322  0.00  0.00    +0.000 N 
ATOM     25  H   UNL     1       2.264   8.624  20.323  0.00  0.00    +0.000 HD
BRANCH  24  26
ATOM     26  C   UNL     1       2.694   7.330  18.754  0.00  0.00    +0.000 A 
ATOM     27  C   UNL     1       3.532   7.379  17.632  0.00  0.00    +0.000 A 
ATOM     28  C   UNL     1       4.117   6.212  17.138  0.00  0.00    +0.000 A 
ATOM     29 CL   UNL     1       5.167   6.292  15.777  0.00  0.00    +0.000 Cl
ATOM     30  C   UNL     1       3.875   4.982  17.746  0.00  0.00    +0.000 A 
ATOM     31  C   UNL     1       3.043   4.917  18.863  0.00  0.00    +0.000 A 
ATOM     32  C   UNL     1       2.462   6.085  19.365  0.00  0.00    +0.000 A 
ATOM     33 CL   UNL     1       1.424   5.938  20.741  0.00  0.00    +0.000 Cl
ENDBRANCH  24  26
ENDBRANCH  21  23
ENDBRANCH   1  21
TORSDOF 4
ENDMDL
MODEL 8
REMARK VINA RESULT:      -7.6      2.034      2.864
REMARK  Name = 
REMARK  4 active torsions:
REMARK  status: ('A' for Active; 'I' for Inactive)
REMARK    1  A    between atoms: C_2  and  C_3
REMARK    2  A    between atoms: C_3  and  C_4
REMARK    3  A    between atoms: N_13  and  C_14
REMARK    4  A    between atoms: N_22  and  C_23
REMARK                            x       y       z     vdW  Elec       q    Type
REMARK                         _______ _______ _______ _____ _____    ______ ____
ROOT
ATOM      1  C   UNL     1       2.462   6.313  18.984  0.00  0.00    +0.000 C 
ATOM      2  C   UNL     1       1.921   5.970  20.412  0.00  0.00    +0.000 C 
ATOM      3  O   UNL     1       1.106   6.681  20.999  0.00  0.00    +0.000 OA
ATOM      4  N   UNL     1       2.379   4.836  21.025  0.00  0.00    +0.000 N 
ATOM      5  C   UNL     1       3.356   3.965  20.430  0.00  0.00    +0.000 C 
ATOM      6  C   UNL     1       3.180   3.919  18.918  0.00  0.00    +0.000 C 
ATOM      7  N   UNL     1       3.344   5.263  18.359  0.00  0.00    +0.000 N 
ATOM      8  C   UNL     1       4.030   5.535  17.173  0.00  0.00    +0.000 C 
ATOM      9  O   UNL     1       4.190   6.688  16.786  0.00  0.00    +0.000 OA
ATOM     10  N   UNL     1       4.530   4.441  16.503  0.00  0.00    +0.000 N 
ATOM     11  H   UNL     1       2.127   4.747  22.003  0.00  0.00    +0.000 HD
ATOM     12  H   UNL     1       4.091   3.547  16.671  0.00  0.00    +0.000 HD
ENDROOT
BRANCH  10  13
ATOM     13  C   UNL     1       5.344   4.448  15.340  0.00  0.00    +0.000 A 
ATOM     14  C   UNL     1       4.946   3.950  14.099  0.00  0.00    +0.000 A 
ATOM     15  C   UNL     1       5.836   3.956  13.019  0.00  0.00    +0.000 A 
ATOM     16  C   UNL     1       7.121   4.462  13.179  0.00  0.00    +0.000 A 
ATOM     17  F   UNL     1       7.975   4.434  12.148  0.00  0.00    +0.000 F 
ATOM     18  C   UNL     1       7.530   4.992  14.393  0.00  0.00    +0.000 A 
ATOM     19  C   UNL     1       6.632   4.992  15.457  0.00  0.00    +0.000 A 
ATOM     20  F   UNL     1       7.025   5.509  16.634  0.00  0.00    +0.000 F 
ENDBRANCH  10  13
BRANCH   1  21
ATOM     21  C   UNL     1       2.991   7.756  19.077  0.00  0.00    +0.000 C 
BRANCH  21  23
ATOM     22  O   UNL     1       2.147   8.886  17.154  0.00  0.00    +0.000 OA
ATOM     23  C   UNL     1       2.064   8.711  18.365  0.00  0.00    +0.000 C 
ATOM     24  N   UNL     1       1.141   9.301  19.199  0.00  0.00    +0.000 N 
ATOM     25  H   UNL     1       1.298   9.199  20.204  0.00  0.00    +0.000 HD
BRANCH  24  26
ATOM     26  C   UNL     1       0.042  10.104  18.816  0.00  0.00    +0.000 A 
ATOM     27  C   UNL     1      -0.875   9.713  17.832  0.00  0.00    +0.000 A 
ATOM     28  C   UNL     1      -1.967  10.526  17.524  0.00  0.00    +0.000 A 
ATOM     29 CL   UNL     1      -3.102  10.019  16.334  0.00  0.00    +0.000 Cl
ATOM     30  C   UNL     1      -2.160  11.738  18.183  0.00  0.00    +0.000 A 
ATOM     31  C   UNL     1      -1.255  12.141  19.164  0.00  0.00    +0.000 A 
ATOM     32  C   UNL     1      -0.165  11.326  19.480  0.00  0.00    +0.000 A 
ATOM     33 CL   UNL     1       0.933  11.888  20.693  0.00  0.00    +0.000 Cl
ENDBRANCH  24  26
ENDBRANCH  21  23
ENDBRANCH   1  21
TORSDOF 4
ENDMDL
MODEL 9
REMARK VINA RESULT:      -7.5      3.514      7.994
REMARK  Name = 
REMARK  4 active torsions:
REMARK  status: ('A' for Active; 'I' for Inactive)
REMARK    1  A    between atoms: C_2  and  C_3
REMARK    2  A    between atoms: C_3  and  C_4
REMARK    3  A    between atoms: N_13  and  C_14
REMARK    4  A    between atoms: N_22  and  C_23
REMARK                            x       y       z     vdW  Elec       q    Type
REMARK                         _______ _______ _______ _____ _____    ______ ____
ROOT
ATOM      1  C   UNL     1       3.519   3.392  19.678  0.00  0.00    +0.000 C 
ATOM      2  C   UNL     1       3.262   1.987  19.039  0.00  0.00    +0.000 C 
ATOM      3  O   UNL     1       4.075   1.067  19.112  0.00  0.00    +0.000 OA
ATOM      4  N   UNL     1       2.084   1.782  18.373  0.00  0.00    +0.000 N 
ATOM      5  C   UNL     1       1.089   2.809  18.208  0.00  0.00    +0.000 C 
ATOM      6  C   UNL     1       1.054   3.717  19.430  0.00  0.00    +0.000 C 
ATOM      7  N   UNL     1       2.360   4.353  19.614  0.00  0.00    +0.000 N 
ATOM      8  C   UNL     1       2.531   5.689  19.983  0.00  0.00    +0.000 C 
ATOM      9  O   UNL     1       3.651   6.184  20.061  0.00  0.00    +0.000 OA
ATOM     10  N   UNL     1       1.377   6.401  20.217  0.00  0.00    +0.000 N 
ATOM     11  H   UNL     1       2.036   0.919  17.843  0.00  0.00    +0.000 HD
ATOM     12  H   UNL     1       0.547   5.881  20.468  0.00  0.00    +0.000 HD
ENDROOT
BRANCH  10  13
ATOM     13  C   UNL     1       1.269   7.787  20.505  0.00  0.00    +0.000 A 
ATOM     14  C   UNL     1       1.059   8.312  21.780  0.00  0.00    +0.000 A 
ATOM     15  C   UNL     1       0.918   9.692  21.959  0.00  0.00    +0.000 A 
ATOM     16  C   UNL     1       0.990  10.547  20.866  0.00  0.00    +0.000 A 
ATOM     17  F   UNL     1       0.822  11.864  21.045  0.00  0.00    +0.000 F 
ATOM     18  C   UNL     1       1.230  10.054  19.593  0.00  0.00    +0.000 A 
ATOM     19  C   UNL     1       1.381   8.680  19.428  0.00  0.00    +0.000 A 
ATOM     20  F   UNL     1       1.618   8.200  18.195  0.00  0.00    +0.000 F 
ENDBRANCH  10  13
BRANCH   1  21
ATOM     21  C   UNL     1       4.884   3.852  19.131  0.00  0.00    +0.000 C 
BRANCH  21  23
ATOM     22  O   UNL     1       3.782   4.462  17.107  0.00  0.00    +0.000 OA
ATOM     23  C   UNL     1       4.816   4.070  17.639  0.00  0.00    +0.000 C 
ATOM     24  N   UNL     1       6.005   3.820  16.994  0.00  0.00    +0.000 N 
ATOM     25  H   UNL     1       6.726   3.335  17.532  0.00  0.00    +0.000 HD
BRANCH  24  26
ATOM     26  C   UNL     1       6.309   4.087  15.639  0.00  0.00    +0.000 A 
ATOM     27  C   UNL     1       5.864   3.274  14.589  0.00  0.00    +0.000 A 
ATOM     28  C   UNL     1       6.157   3.609  13.266  0.00  0.00    +0.000 A 
ATOM     29 CL   UNL     1       5.579   2.617  11.984  0.00  0.00    +0.000 Cl
ATOM     30  C   UNL     1       6.899   4.750  12.968  0.00  0.00    +0.000 A 
ATOM     31  C   UNL     1       7.350   5.568  14.003  0.00  0.00    +0.000 A 
ATOM     32  C   UNL     1       7.051   5.240  15.328  0.00  0.00    +0.000 A 
ATOM     33 CL   UNL     1       7.654   6.284  16.570  0.00  0.00    +0.000 Cl
ENDBRANCH  24  26
ENDBRANCH  21  23
ENDBRANCH   1  21
TORSDOF 4
ENDMDL
