MODEL 1
REMARK VINA RESULT:      -6.1      0.000      0.000
REMARK  Name = 
REMARK  14 active torsions:
REMARK  status: ('A' for Active; 'I' for Inactive)
REMARK    1  A    between atoms: C_1  and  C_2
REMARK    2  A    between atoms: C_2  and  C_3
REMARK    3  A    between atoms: C_3  and  C_4
REMARK    4  A    between atoms: C_6  and  O_7
REMARK    5  A    between atoms: O_7  and  C_8
REMARK    6  A    between atoms: C_9  and  O_10
REMARK    7  A    between atoms: O_10  and  C_11
REMARK    8  A    between atoms: C_12  and  C_13
REMARK    9  A    between atoms: N_15  and  C_16
REMARK   10  A    between atoms: C_16  and  C_17
REMARK   11  A    between atoms: N_21  and  C_22
REMARK   12  A    between atoms: C_22  and  C_23
REMARK   13  A    between atoms: C_24  and  O_25
REMARK   14  A    between atoms: O_25  and  C_26
REMARK                            x       y       z     vdW  Elec       q    Type
REMARK                         _______ _______ _______ _____ _____    ______ ____
ROOT
ATOM      1  C   UNL     1       4.482   4.337  16.734  0.00  0.00    +0.000 A 
ATOM      2  C   UNL     1       3.658   3.277  17.097  0.00  0.00    +0.000 A 
ATOM      3  C   UNL     1       2.507   3.417  17.887  0.00  0.00    +0.000 A 
ATOM      4  C   UNL     1       2.130   4.690  18.347  0.00  0.00    +0.000 A 
ATOM      5  C   UNL     1       2.955   5.791  18.006  0.00  0.00    +0.000 A 
ATOM      6  C   UNL     1       4.127   5.619  17.180  0.00  0.00    +0.000 A 
ENDROOT
BRANCH   5   7
ATOM      7  C   UNL     1       2.671   7.185  18.485  0.00  0.00    +0.000 C 
ATOM      8  O   UNL     1       2.885   7.473  19.673  0.00  0.00    +0.000 OA
ATOM      9  N   UNL     1       2.145   8.145  17.630  0.00  0.00    +0.000 N 
ATOM     10  H   UNL     1       1.560   7.815  16.877  0.00  0.00    +0.000 HD
BRANCH   9  11
ATOM     11  C   UNL     1       1.913   9.451  18.226  0.00  0.00    +0.000 C 
BRANCH  11  12
ATOM     12  C   UNL     1       0.503   9.718  18.775  0.00  0.00    +0.000 C 
ATOM     13  C   UNL     1      -0.511   9.708  17.624  0.00  0.00    +0.000 C 
ATOM     14  C   UNL     1      -1.752  10.298  18.251  0.00  0.00    +0.000 C 
ATOM     15  C   UNL     1      -1.235  11.173  19.390  0.00  0.00    +0.000 C 
ATOM     16  N   UNL     1       0.236  11.012  19.471  0.00  0.00    +0.000 NA
BRANCH  16  17
ATOM     17  C   UNL     1       0.939  12.148  18.845  0.00  0.00    +0.000 C 
ATOM     18  C   UNL     1       0.134  13.446  18.813  0.00  0.00    +0.000 C 
ENDBRANCH  16  17
ENDBRANCH  11  12
ENDBRANCH   9  11
ENDBRANCH   5   7
BRANCH   3  19
ATOM     19  O   UNL     1       1.736   2.318  18.165  0.00  0.00    +0.000 OA
ATOM     20  C   UNL     1       2.139   1.502  19.263  0.00  0.00    +0.000 C 
ENDBRANCH   3  19
BRANCH   4  21
ATOM     21  O   UNL     1       1.080   4.934  19.198  0.00  0.00    +0.000 OA
ATOM     22  C   UNL     1       1.217   4.620  20.589  0.00  0.00    +0.000 C 
ENDBRANCH   4  21
BRANCH   6  23
ATOM     23  O   UNL     1       4.761   6.778  16.783  0.00  0.00    +0.000 OA
ATOM     24  C   UNL     1       6.077   7.108  17.195  0.00  0.00    +0.000 C 
ENDBRANCH   6  23
BRANCH   1  25
ATOM     25  C   UNL     1       5.705   4.029  15.890  0.00  0.00    +0.000 C 
BRANCH  25  27
ATOM     26  C   UNL     1       7.029   4.794  13.917  0.00  0.00    +0.000 C 
ATOM     27  C   UNL     1       5.650   4.369  14.399  0.00  0.00    +0.000 C 
ENDBRANCH  25  27
ENDBRANCH   1  25
TORSDOF 9
ENDMDL
MODEL 2
REMARK VINA RESULT:      -6.0      0.860      1.450
REMARK  Name = 
REMARK  14 active torsions:
REMARK  status: ('A' for Active; 'I' for Inactive)
REMARK    1  A    between atoms: C_1  and  C_2
REMARK    2  A    between atoms: C_2  and  C_3
REMARK    3  A    between atoms: C_3  and  C_4
REMARK    4  A    between atoms: C_6  and  O_7
REMARK    5  A    between atoms: O_7  and  C_8
REMARK    6  A    between atoms: C_9  and  O_10
REMARK    7  A    between atoms: O_10  and  C_11
REMARK    8  A    between atoms: C_12  and  C_13
REMARK    9  A    between atoms: N_15  and  C_16
REMARK   10  A    between atoms: C_16  and  C_17
REMARK   11  A    between atoms: N_21  and  C_22
REMARK   12  A    between atoms: C_22  and  C_23
REMARK   13  A    between atoms: C_24  and  O_25
REMARK   14  A    between atoms: O_25  and  C_26
REMARK                            x       y       z     vdW  Elec       q    Type
REMARK                         _______ _______ _______ _____ _____    ______ ____
ROOT
ATOM      1  C   UNL     1       4.465   4.450  16.708  0.00  0.00    +0.000 A 
ATOM      2  C   UNL     1       3.628   3.374  16.985  0.00  0.00    +0.000 A 
ATOM      3  C   UNL     1       2.468   3.468  17.770  0.00  0.00    +0.000 A 
ATOM      4  C   UNL     1       2.097   4.709  18.314  0.00  0.00    +0.000 A 
ATOM      5  C   UNL     1       2.935   5.824  18.062  0.00  0.00    +0.000 A 
ATOM      6  C   UNL     1       4.116   5.700  17.239  0.00  0.00    +0.000 A 
ENDROOT
BRANCH   5   7
ATOM      7  C   UNL     1       2.658   7.183  18.636  0.00  0.00    +0.000 C 
ATOM      8  O   UNL     1       2.750   7.354  19.861  0.00  0.00    +0.000 OA
ATOM      9  N   UNL     1       2.271   8.241  17.822  0.00  0.00    +0.000 N 
ATOM     10  H   UNL     1       1.760   8.008  16.983  0.00  0.00    +0.000 HD
BRANCH   9  11
ATOM     11  C   UNL     1       2.029   9.499  18.509  0.00  0.00    +0.000 C 
BRANCH  11  12
ATOM     12  C   UNL     1       0.619  10.096  18.378  0.00  0.00    +0.000 C 
ATOM     13  C   UNL     1       0.704  11.626  18.360  0.00  0.00    +0.000 C 
ATOM     14  C   UNL     1      -0.730  12.056  18.561  0.00  0.00    +0.000 C 
ATOM     15  C   UNL     1      -1.382  10.897  19.310  0.00  0.00    +0.000 C 
ATOM     16  N   UNL     1      -0.385   9.809  19.446  0.00  0.00    +0.000 NA
BRANCH  16  17
ATOM     17  C   UNL     1       0.212   9.789  20.795  0.00  0.00    +0.000 C 
ATOM     18  C   UNL     1      -0.139   8.552  21.619  0.00  0.00    +0.000 C 
ENDBRANCH  16  17
ENDBRANCH  11  12
ENDBRANCH   9  11
ENDBRANCH   5   7
BRANCH   3  19
ATOM     19  O   UNL     1       1.685   2.360  17.960  0.00  0.00    +0.000 OA
ATOM     20  C   UNL     1       2.131   1.405  18.920  0.00  0.00    +0.000 C 
ENDBRANCH   3  19
BRANCH   4  21
ATOM     21  O   UNL     1       1.039   4.902  19.169  0.00  0.00    +0.000 OA
ATOM     22  C   UNL     1       1.130   4.425  20.516  0.00  0.00    +0.000 C 
ENDBRANCH   4  21
BRANCH   6  23
ATOM     23  O   UNL     1       4.765   6.878  16.933  0.00  0.00    +0.000 OA
ATOM     24  C   UNL     1       6.117   7.119  17.285  0.00  0.00    +0.000 C 
ENDBRANCH   6  23
BRANCH   1  25
ATOM     25  C   UNL     1       5.696   4.190  15.858  0.00  0.00    +0.000 C 
BRANCH  25  27
ATOM     26  C   UNL     1       6.997   4.749  13.802  0.00  0.00    +0.000 C 
ATOM     27  C   UNL     1       5.606   4.486  14.359  0.00  0.00    +0.000 C 
ENDBRANCH  25  27
ENDBRANCH   1  25
TORSDOF 9
ENDMDL
MODEL 3
REMARK VINA RESULT:      -5.9      2.204      2.811
REMARK  Name = 
REMARK  14 active torsions:
REMARK  status: ('A' for Active; 'I' for Inactive)
REMARK    1  A    between atoms: C_1  and  C_2
REMARK    2  A    between atoms: C_2  and  C_3
REMARK    3  A    between atoms: C_3  and  C_4
REMARK    4  A    between atoms: C_6  and  O_7
REMARK    5  A    between atoms: O_7  and  C_8
REMARK    6  A    between atoms: C_9  and  O_10
REMARK    7  A    between atoms: O_10  and  C_11
REMARK    8  A    between atoms: C_12  and  C_13
REMARK    9  A    between atoms: N_15  and  C_16
REMARK   10  A    between atoms: C_16  and  C_17
REMARK   11  A    between atoms: N_21  and  C_22
REMARK   12  A    between atoms: C_22  and  C_23
REMARK   13  A    between atoms: C_24  and  O_25
REMARK   14  A    between atoms: O_25  and  C_26
REMARK                            x       y       z     vdW  Elec       q    Type
REMARK                         _______ _______ _______ _____ _____    ______ ____
ROOT
ATOM      1  C   UNL     1       4.215   5.213  17.805  0.00  0.00    +0.000 A 
ATOM      2  C   UNL     1       4.745   4.061  18.375  0.00  0.00    +0.000 A 
ATOM      3  C   UNL     1       4.290   3.504  19.580  0.00  0.00    +0.000 A 
ATOM      4  C   UNL     1       3.232   4.116  20.272  0.00  0.00    +0.000 A 
ATOM      5  C   UNL     1       2.676   5.300  19.726  0.00  0.00    +0.000 A 
ATOM      6  C   UNL     1       3.157   5.844  18.476  0.00  0.00    +0.000 A 
ENDROOT
BRANCH   5   7
ATOM      7  C   UNL     1       1.577   6.060  20.409  0.00  0.00    +0.000 C 
ATOM      8  O   UNL     1       0.457   5.539  20.520  0.00  0.00    +0.000 OA
ATOM      9  N   UNL     1       1.787   7.347  20.892  0.00  0.00    +0.000 N 
ATOM     10  H   UNL     1       2.472   7.909  20.410  0.00  0.00    +0.000 HD
BRANCH   9  11
ATOM     11  C   UNL     1       0.636   7.968  21.527  0.00  0.00    +0.000 C 
BRANCH  11  12
ATOM     12  C   UNL     1       0.692   9.493  21.714  0.00  0.00    +0.000 C 
ATOM     13  C   UNL     1      -0.429   9.940  22.658  0.00  0.00    +0.000 C 
ATOM     14  C   UNL     1      -0.454  11.440  22.481  0.00  0.00    +0.000 C 
ATOM     15  C   UNL     1       0.104  11.676  21.080  0.00  0.00    +0.000 C 
ATOM     16  N   UNL     1       0.519  10.369  20.517  0.00  0.00    +0.000 NA
BRANCH  16  17
ATOM     17  C   UNL     1      -0.485   9.845  19.570  0.00  0.00    +0.000 C 
ATOM     18  C   UNL     1      -0.161  10.110  18.101  0.00  0.00    +0.000 C 
ENDBRANCH  16  17
ENDBRANCH  11  12
ENDBRANCH   9  11
ENDBRANCH   5   7
BRANCH   3  19
ATOM     19  O   UNL     1       4.851   2.343  20.047  0.00  0.00    +0.000 OA
ATOM     20  C   UNL     1       4.483   1.133  19.389  0.00  0.00    +0.000 C 
ENDBRANCH   3  19
BRANCH   4  21
ATOM     21  O   UNL     1       2.766   3.714  21.501  0.00  0.00    +0.000 OA
ATOM     22  C   UNL     1       1.858   2.609  21.579  0.00  0.00    +0.000 C 
ENDBRANCH   4  21
BRANCH   6  23
ATOM     23  O   UNL     1       2.440   6.904  17.965  0.00  0.00    +0.000 OA
ATOM     24  C   UNL     1       2.996   8.200  17.812  0.00  0.00    +0.000 C 
ENDBRANCH   6  23
BRANCH   1  25
ATOM     25  C   UNL     1       4.824   5.708  16.505  0.00  0.00    +0.000 C 
BRANCH  25  27
ATOM     26  C   UNL     1       6.834   4.935  15.242  0.00  0.00    +0.000 C 
ATOM     27  C   UNL     1       5.364   4.663  15.525  0.00  0.00    +0.000 C 
ENDBRANCH  25  27
ENDBRANCH   1  25
TORSDOF 9
ENDMDL
MODEL 4
REMARK VINA RESULT:      -5.9      2.244      2.753
REMARK  Name = 
REMARK  14 active torsions:
REMARK  status: ('A' for Active; 'I' for Inactive)
REMARK    1  A    between atoms: C_1  and  C_2
REMARK    2  A    between atoms: C_2  and  C_3
REMARK    3  A    between atoms: C_3  and  C_4
REMARK    4  A    between atoms: C_6  and  O_7
REMARK    5  A    between atoms: O_7  and  C_8
REMARK    6  A    between atoms: C_9  and  O_10
REMARK    7  A    between atoms: O_10  and  C_11
REMARK    8  A    between atoms: C_12  and  C_13
REMARK    9  A    between atoms: N_15  and  C_16
REMARK   10  A    between atoms: C_16  and  C_17
REMARK   11  A    between atoms: N_21  and  C_22
REMARK   12  A    between atoms: C_22  and  C_23
REMARK   13  A    between atoms: C_24  and  O_25
REMARK   14  A    between atoms: O_25  and  C_26
REMARK                            x       y       z     vdW  Elec       q    Type
REMARK                         _______ _______ _______ _____ _____    ______ ____
ROOT
ATOM      1  C   UNL     1       5.417   4.856  18.388  0.00  0.00    +0.000 A 
ATOM      2  C   UNL     1       5.077   3.742  19.147  0.00  0.00    +0.000 A 
ATOM      3  C   UNL     1       3.886   3.631  19.882  0.00  0.00    +0.000 A 
ATOM      4  C   UNL     1       2.957   4.686  19.863  0.00  0.00    +0.000 A 
ATOM      5  C   UNL     1       3.279   5.842  19.109  0.00  0.00    +0.000 A 
ATOM      6  C   UNL     1       4.507   5.922  18.352  0.00  0.00    +0.000 A 
ENDROOT
BRANCH   5   7
ATOM      7  C   UNL     1       2.381   7.044  19.061  0.00  0.00    +0.000 C 
ATOM      8  O   UNL     1       1.911   7.407  17.972  0.00  0.00    +0.000 OA
ATOM      9  N   UNL     1       2.094   7.771  20.210  0.00  0.00    +0.000 N 
ATOM     10  H   UNL     1       2.799   7.781  20.932  0.00  0.00    +0.000 HD
BRANCH   9  11
ATOM     11  C   UNL     1       1.216   8.914  20.020  0.00  0.00    +0.000 C 
BRANCH  11  12
ATOM     12  C   UNL     1       0.822   9.698  21.282  0.00  0.00    +0.000 C 
ATOM     13  C   UNL     1      -0.159   8.872  22.120  0.00  0.00    +0.000 C 
ATOM     14  C   UNL     1      -0.695   9.874  23.115  0.00  0.00    +0.000 C 
ATOM     15  C   UNL     1      -0.548  11.226  22.422  0.00  0.00    +0.000 C 
ATOM     16  N   UNL     1       0.132  11.014  21.123  0.00  0.00    +0.000 NA
BRANCH  16  17
ATOM     17  C   UNL     1      -0.827  11.020  20.002  0.00  0.00    +0.000 C 
ATOM     18  C   UNL     1      -1.706  12.267  19.934  0.00  0.00    +0.000 C 
ENDBRANCH  16  17
ENDBRANCH  11  12
ENDBRANCH   9  11
ENDBRANCH   5   7
BRANCH   3  19
ATOM     19  O   UNL     1       3.619   2.478  20.574  0.00  0.00    +0.000 OA
ATOM     20  C   UNL     1       4.690   1.549  20.727  0.00  0.00    +0.000 C 
ENDBRANCH   3  19
BRANCH   4  21
ATOM     21  O   UNL     1       1.807   4.727  20.613  0.00  0.00    +0.000 OA
ATOM     22  C   UNL     1       0.689   3.920  20.225  0.00  0.00    +0.000 C 
ENDBRANCH   4  21
BRANCH   6  23
ATOM     23  O   UNL     1       4.640   7.025  17.534  0.00  0.00    +0.000 OA
ATOM     24  C   UNL     1       4.763   6.920  16.125  0.00  0.00    +0.000 C 
ENDBRANCH   6  23
BRANCH   1  25
ATOM     25  C   UNL     1       6.750   4.839  17.661  0.00  0.00    +0.000 C 
BRANCH  25  27
ATOM     26  C   UNL     1       8.106   5.850  19.497  0.00  0.00    +0.000 C 
ATOM     27  C   UNL     1       7.772   5.922  18.014  0.00  0.00    +0.000 C 
ENDBRANCH  25  27
ENDBRANCH   1  25
TORSDOF 9
ENDMDL
MODEL 5
REMARK VINA RESULT:      -5.8      1.698      1.977
REMARK  Name = 
REMARK  14 active torsions:
REMARK  status: ('A' for Active; 'I' for Inactive)
REMARK    1  A    between atoms: C_1  and  C_2
REMARK    2  A    between atoms: C_2  and  C_3
REMARK    3  A    between atoms: C_3  and  C_4
REMARK    4  A    between atoms: C_6  and  O_7
REMARK    5  A    between atoms: O_7  and  C_8
REMARK    6  A    between atoms: C_9  and  O_10
REMARK    7  A    between atoms: O_10  and  C_11
REMARK    8  A    between atoms: C_12  and  C_13
REMARK    9  A    between atoms: N_15  and  C_16
REMARK   10  A    between atoms: C_16  and  C_17
REMARK   11  A    between atoms: N_21  and  C_22
REMARK   12  A    between atoms: C_22  and  C_23
REMARK   13  A    between atoms: C_24  and  O_25
REMARK   14  A    between atoms: O_25  and  C_26
REMARK                            x       y       z     vdW  Elec       q    Type
REMARK                         _______ _______ _______ _____ _____    ______ ____
ROOT
ATOM      1  C   UNL     1       5.339   4.678  17.485  0.00  0.00    +0.000 A 
ATOM      2  C   UNL     1       4.729   3.498  17.897  0.00  0.00    +0.000 A 
ATOM      3  C   UNL     1       3.444   3.436  18.458  0.00  0.00    +0.000 A 
ATOM      4  C   UNL     1       2.699   4.617  18.618  0.00  0.00    +0.000 A 
ATOM      5  C   UNL     1       3.296   5.840  18.220  0.00  0.00    +0.000 A 
ATOM      6  C   UNL     1       4.616   5.870  17.634  0.00  0.00    +0.000 A 
ENDROOT
BRANCH   5   7
ATOM      7  C   UNL     1       2.608   7.162  18.393  0.00  0.00    +0.000 C 
ATOM      8  O   UNL     1       2.417   7.881  17.401  0.00  0.00    +0.000 OA
ATOM      9  N   UNL     1       2.209   7.604  19.649  0.00  0.00    +0.000 N 
ATOM     10  H   UNL     1       2.752   7.288  20.438  0.00  0.00    +0.000 HD
BRANCH   9  11
ATOM     11  C   UNL     1       1.559   8.905  19.673  0.00  0.00    +0.000 C 
BRANCH  11  12
ATOM     12  C   UNL     1       1.096   9.418  21.046  0.00  0.00    +0.000 C 
ATOM     13  C   UNL     1      -0.017   8.514  21.589  0.00  0.00    +0.000 C 
ATOM     14  C   UNL     1      -0.580   9.312  22.741  0.00  0.00    +0.000 C 
ATOM     15  C   UNL     1      -0.275  10.767  22.394  0.00  0.00    +0.000 C 
ATOM     16  N   UNL     1       0.515  10.791  21.140  0.00  0.00    +0.000 NA
BRANCH  16  17
ATOM     17  C   UNL     1      -0.326  11.132  19.977  0.00  0.00    +0.000 C 
ATOM     18  C   UNL     1      -1.586  11.923  20.323  0.00  0.00    +0.000 C 
ENDBRANCH  16  17
ENDBRANCH  11  12
ENDBRANCH   9  11
ENDBRANCH   5   7
BRANCH   3  19
ATOM     19  O   UNL     1       2.910   2.222  18.803  0.00  0.00    +0.000 OA
ATOM     20  C   UNL     1       3.692   1.064  18.518  0.00  0.00    +0.000 C 
ENDBRANCH   3  19
BRANCH   4  21
ATOM     21  O   UNL     1       1.474   4.690  19.236  0.00  0.00    +0.000 OA
ATOM     22  C   UNL     1       1.379   4.412  20.638  0.00  0.00    +0.000 C 
ENDBRANCH   4  21
BRANCH   6  23
ATOM     23  O   UNL     1       5.029   7.090  17.142  0.00  0.00    +0.000 OA
ATOM     24  C   UNL     1       6.264   7.684  17.508  0.00  0.00    +0.000 C 
ENDBRANCH   6  23
BRANCH   1  25
ATOM     25  C   UNL     1       6.742   4.589  16.913  0.00  0.00    +0.000 C 
BRANCH  25  27
ATOM     26  C   UNL     1       5.861   4.073  14.635  0.00  0.00    +0.000 C 
ATOM     27  C   UNL     1       6.921   4.838  15.413  0.00  0.00    +0.000 C 
ENDBRANCH  25  27
ENDBRANCH   1  25
TORSDOF 9
ENDMDL
MODEL 6
REMARK VINA RESULT:      -5.8      1.783      4.031
REMARK  Name = 
REMARK  14 active torsions:
REMARK  status: ('A' for Active; 'I' for Inactive)
REMARK    1  A    between atoms: C_1  and  C_2
REMARK    2  A    between atoms: C_2  and  C_3
REMARK    3  A    between atoms: C_3  and  C_4
REMARK    4  A    between atoms: C_6  and  O_7
REMARK    5  A    between atoms: O_7  and  C_8
REMARK    6  A    between atoms: C_9  and  O_10
REMARK    7  A    between atoms: O_10  and  C_11
REMARK    8  A    between atoms: C_12  and  C_13
REMARK    9  A    between atoms: N_15  and  C_16
REMARK   10  A    between atoms: C_16  and  C_17
REMARK   11  A    between atoms: N_21  and  C_22
REMARK   12  A    between atoms: C_22  and  C_23
REMARK   13  A    between atoms: C_24  and  O_25
REMARK   14  A    between atoms: O_25  and  C_26
REMARK                            x       y       z     vdW  Elec       q    Type
REMARK                         _______ _______ _______ _____ _____    ______ ____
ROOT
ATOM      1  C   UNL     1       3.496   3.696  17.583  0.00  0.00    +0.000 A 
ATOM      2  C   UNL     1       4.795   3.744  17.089  0.00  0.00    +0.000 A 
ATOM      3  C   UNL     1       5.506   4.935  16.875  0.00  0.00    +0.000 A 
ATOM      4  C   UNL     1       4.904   6.168  17.177  0.00  0.00    +0.000 A 
ATOM      5  C   UNL     1       3.574   6.156  17.671  0.00  0.00    +0.000 A 
ATOM      6  C   UNL     1       2.872   4.913  17.893  0.00  0.00    +0.000 A 
ENDROOT
BRANCH   5   7
ATOM      7  C   UNL     1       2.821   7.417  17.978  0.00  0.00    +0.000 C 
ATOM      8  O   UNL     1       2.678   8.270  17.089  0.00  0.00    +0.000 OA
ATOM      9  N   UNL     1       2.310   7.656  19.248  0.00  0.00    +0.000 N 
ATOM     10  H   UNL     1       2.804   7.243  20.024  0.00  0.00    +0.000 HD
BRANCH   9  11
ATOM     11  C   UNL     1       1.607   8.919  19.408  0.00  0.00    +0.000 C 
BRANCH  11  12
ATOM     12  C   UNL     1       1.175   9.291  20.835  0.00  0.00    +0.000 C 
ATOM     13  C   UNL     1       0.138   8.282  21.341  0.00  0.00    +0.000 C 
ATOM     14  C   UNL     1      -0.420   8.949  22.577  0.00  0.00    +0.000 C 
ATOM     15  C   UNL     1      -0.211  10.442  22.341  0.00  0.00    +0.000 C 
ATOM     16  N   UNL     1       0.523  10.615  21.065  0.00  0.00    +0.000 NA
BRANCH  16  17
ATOM     17  C   UNL     1      -0.384  11.000  19.967  0.00  0.00    +0.000 C 
ATOM     18  C   UNL     1      -0.430  12.501  19.686  0.00  0.00    +0.000 C 
ENDBRANCH  16  17
ENDBRANCH  11  12
ENDBRANCH   9  11
ENDBRANCH   5   7
BRANCH   3  19
ATOM     19  O   UNL     1       6.797   4.883  16.417  0.00  0.00    +0.000 OA
ATOM     20  C   UNL     1       6.983   4.735  15.011  0.00  0.00    +0.000 C 
ENDBRANCH   3  19
BRANCH   4  21
ATOM     21  O   UNL     1       5.466   7.396  16.924  0.00  0.00    +0.000 OA
ATOM     22  C   UNL     1       6.752   7.704  17.476  0.00  0.00    +0.000 C 
ENDBRANCH   4  21
BRANCH   6  23
ATOM     23  O   UNL     1       1.649   5.016  18.522  0.00  0.00    +0.000 OA
ATOM     24  C   UNL     1       1.397   4.456  19.800  0.00  0.00    +0.000 C 
ENDBRANCH   6  23
BRANCH   1  25
ATOM     25  C   UNL     1       2.848   2.333  17.744  0.00  0.00    +0.000 C 
BRANCH  25  27
ATOM     26  C   UNL     1       4.115   1.928  19.857  0.00  0.00    +0.000 C 
ATOM     27  C   UNL     1       3.583   1.286  18.584  0.00  0.00    +0.000 C 
ENDBRANCH  25  27
ENDBRANCH   1  25
TORSDOF 9
ENDMDL
MODEL 7
REMARK VINA RESULT:      -5.7      2.146      3.048
REMARK  Name = 
REMARK  14 active torsions:
REMARK  status: ('A' for Active; 'I' for Inactive)
REMARK    1  A    between atoms: C_1  and  C_2
REMARK    2  A    between atoms: C_2  and  C_3
REMARK    3  A    between atoms: C_3  and  C_4
REMARK    4  A    between atoms: C_6  and  O_7
REMARK    5  A    between atoms: O_7  and  C_8
REMARK    6  A    between atoms: C_9  and  O_10
REMARK    7  A    between atoms: O_10  and  C_11
REMARK    8  A    between atoms: C_12  and  C_13
REMARK    9  A    between atoms: N_15  and  C_16
REMARK   10  A    between atoms: C_16  and  C_17
REMARK   11  A    between atoms: N_21  and  C_22
REMARK   12  A    between atoms: C_22  and  C_23
REMARK   13  A    between atoms: C_24  and  O_25
REMARK   14  A    between atoms: O_25  and  C_26
REMARK                            x       y       z     vdW  Elec       q    Type
REMARK                         _______ _______ _______ _____ _____    ______ ____
ROOT
ATOM      1  C   UNL     1       4.672   5.675  18.149  0.00  0.00    +0.000 A 
ATOM      2  C   UNL     1       4.963   4.366  18.518  0.00  0.00    +0.000 A 
ATOM      3  C   UNL     1       4.257   3.656  19.502  0.00  0.00    +0.000 A 
ATOM      4  C   UNL     1       3.181   4.270  20.164  0.00  0.00    +0.000 A 
ATOM      5  C   UNL     1       2.865   5.610  19.820  0.00  0.00    +0.000 A 
ATOM      6  C   UNL     1       3.602   6.311  18.795  0.00  0.00    +0.000 A 
ENDROOT
BRANCH   5   7
ATOM      7  C   UNL     1       1.768   6.375  20.501  0.00  0.00    +0.000 C 
ATOM      8  O   UNL     1       0.639   5.869  20.587  0.00  0.00    +0.000 OA
ATOM      9  N   UNL     1       1.990   7.649  21.008  0.00  0.00    +0.000 N 
ATOM     10  H   UNL     1       2.691   8.209  20.546  0.00  0.00    +0.000 HD
BRANCH   9  11
ATOM     11  C   UNL     1       0.840   8.278  21.637  0.00  0.00    +0.000 C 
BRANCH  11  12
ATOM     12  C   UNL     1       0.817   9.815  21.652  0.00  0.00    +0.000 C 
ATOM     13  C   UNL     1      -0.242  10.307  22.645  0.00  0.00    +0.000 C 
ATOM     14  C   UNL     1      -0.375  11.774  22.310  0.00  0.00    +0.000 C 
ATOM     15  C   UNL     1       0.039  11.878  20.845  0.00  0.00    +0.000 C 
ATOM     16  N   UNL     1       0.483  10.540  20.389  0.00  0.00    +0.000 NA
BRANCH  16  17
ATOM     17  C   UNL     1      -0.566   9.860  19.605  0.00  0.00    +0.000 C 
ATOM     18  C   UNL     1      -0.479  10.099  18.099  0.00  0.00    +0.000 C 
ENDBRANCH  16  17
ENDBRANCH  11  12
ENDBRANCH   9  11
ENDBRANCH   5   7
BRANCH   3  19
ATOM     19  O   UNL     1       4.594   2.356  19.775  0.00  0.00    +0.000 OA
ATOM     20  C   UNL     1       4.032   1.349  18.936  0.00  0.00    +0.000 C 
ENDBRANCH   3  19
BRANCH   4  21
ATOM     21  O   UNL     1       2.479   3.709  21.203  0.00  0.00    +0.000 OA
ATOM     22  C   UNL     1       1.441   2.764  20.916  0.00  0.00    +0.000 C 
ENDBRANCH   4  21
BRANCH   6  23
ATOM     23  O   UNL     1       3.107   7.547  18.436  0.00  0.00    +0.000 OA
ATOM     24  C   UNL     1       2.170   7.720  17.386  0.00  0.00    +0.000 C 
ENDBRANCH   6  23
BRANCH   1  25
ATOM     25  C   UNL     1       5.537   6.320  17.081  0.00  0.00    +0.000 C 
BRANCH  25  27
ATOM     26  C   UNL     1       7.749   6.690  18.176  0.00  0.00    +0.000 C 
ATOM     27  C   UNL     1       6.556   7.372  17.523  0.00  0.00    +0.000 C 
ENDBRANCH  25  27
ENDBRANCH   1  25
TORSDOF 9
ENDMDL
MODEL 8
REMARK VINA RESULT:      -5.7      0.856      1.061
REMARK  Name = 
REMARK  14 active torsions:
REMARK  status: ('A' for Active; 'I' for Inactive)
REMARK    1  A    between atoms: C_1  and  C_2
REMARK    2  A    between atoms: C_2  and  C_3
REMARK    3  A    between atoms: C_3  and  C_4
REMARK    4  A    between atoms: C_6  and  O_7
REMARK    5  A    between atoms: O_7  and  C_8
REMARK    6  A    between atoms: C_9  and  O_10
REMARK    7  A    between atoms: O_10  and  C_11
REMARK    8  A    between atoms: C_12  and  C_13
REMARK    9  A    between atoms: N_15  and  C_16
REMARK   10  A    between atoms: C_16  and  C_17
REMARK   11  A    between atoms: N_21  and  C_22
REMARK   12  A    between atoms: C_22  and  C_23
REMARK   13  A    between atoms: C_24  and  O_25
REMARK   14  A    between atoms: O_25  and  C_26
REMARK                            x       y       z     vdW  Elec       q    Type
REMARK                         _______ _______ _______ _____ _____    ______ ____
ROOT
ATOM      1  C   UNL     1       4.560   5.041  16.737  0.00  0.00    +0.000 A 
ATOM      2  C   UNL     1       3.932   3.824  16.973  0.00  0.00    +0.000 A 
ATOM      3  C   UNL     1       2.816   3.669  17.810  0.00  0.00    +0.000 A 
ATOM      4  C   UNL     1       2.272   4.791  18.457  0.00  0.00    +0.000 A 
ATOM      5  C   UNL     1       2.897   6.047  18.249  0.00  0.00    +0.000 A 
ATOM      6  C   UNL     1       4.036   6.178  17.370  0.00  0.00    +0.000 A 
ENDROOT
BRANCH   5   7
ATOM      7  C   UNL     1       2.427   7.299  18.929  0.00  0.00    +0.000 C 
ATOM      8  O   UNL     1       2.477   7.373  20.166  0.00  0.00    +0.000 OA
ATOM      9  N   UNL     1       1.909   8.362  18.198  0.00  0.00    +0.000 N 
ATOM     10  H   UNL     1       1.447   8.137  17.330  0.00  0.00    +0.000 HD
BRANCH   9  11
ATOM     11  C   UNL     1       1.486   9.510  18.984  0.00  0.00    +0.000 C 
BRANCH  11  12
ATOM     12  C   UNL     1      -0.015   9.838  18.972  0.00  0.00    +0.000 C 
ATOM     13  C   UNL     1      -0.583   9.614  17.566  0.00  0.00    +0.000 C 
ATOM     14  C   UNL     1      -1.939  10.277  17.629  0.00  0.00    +0.000 C 
ATOM     15  C   UNL     1      -1.800  11.342  18.714  0.00  0.00    +0.000 C 
ATOM     16  N   UNL     1      -0.449  11.227  19.311  0.00  0.00    +0.000 NA
BRANCH  16  17
ATOM     17  C   UNL     1       0.467  12.254  18.779  0.00  0.00    +0.000 C 
ATOM     18  C   UNL     1      -0.191  13.606  18.512  0.00  0.00    +0.000 C 
ENDBRANCH  16  17
ENDBRANCH  11  12
ENDBRANCH   9  11
ENDBRANCH   5   7
BRANCH   3  19
ATOM     19  O   UNL     1       2.241   2.433  17.955  0.00  0.00    +0.000 OA
ATOM     20  C   UNL     1       3.071   1.382  18.445  0.00  0.00    +0.000 C 
ENDBRANCH   3  19
BRANCH   4  21
ATOM     21  O   UNL     1       1.244   4.747  19.367  0.00  0.00    +0.000 OA
ATOM     22  C   UNL     1       1.459   4.121  20.637  0.00  0.00    +0.000 C 
ENDBRANCH   4  21
BRANCH   6  23
ATOM     23  O   UNL     1       4.461   7.466  17.122  0.00  0.00    +0.000 OA
ATOM     24  C   UNL     1       5.800   7.883  17.331  0.00  0.00    +0.000 C 
ENDBRANCH   6  23
BRANCH   1  25
ATOM     25  C   UNL     1       5.770   5.050  15.820  0.00  0.00    +0.000 C 
BRANCH  25  27
ATOM     26  C   UNL     1       7.543   4.707  17.543  0.00  0.00    +0.000 C 
ATOM     27  C   UNL     1       6.980   4.204  16.222  0.00  0.00    +0.000 C 
ENDBRANCH  25  27
ENDBRANCH   1  25
TORSDOF 9
ENDMDL
MODEL 9
REMARK VINA RESULT:      -5.6      2.124      4.198
REMARK  Name = 
REMARK  14 active torsions:
REMARK  status: ('A' for Active; 'I' for Inactive)
REMARK    1  A    between atoms: C_1  and  C_2
REMARK    2  A    between atoms: C_2  and  C_3
REMARK    3  A    between atoms: C_3  and  C_4
REMARK    4  A    between atoms: C_6  and  O_7
REMARK    5  A    between atoms: O_7  and  C_8
REMARK    6  A    between atoms: C_9  and  O_10
REMARK    7  A    between atoms: O_10  and  C_11
REMARK    8  A    between atoms: C_12  and  C_13
REMARK    9  A    between atoms: N_15  and  C_16
REMARK   10  A    between atoms: C_16  and  C_17
REMARK   11  A    between atoms: N_21  and  C_22
REMARK   12  A    between atoms: C_22  and  C_23
REMARK   13  A    between atoms: C_24  and  O_25
REMARK   14  A    between atoms: O_25  and  C_26
REMARK                            x       y       z     vdW  Elec       q    Type
REMARK                         _______ _______ _______ _____ _____    ______ ____
ROOT
ATOM      1  C   UNL     1       3.741   4.243  19.224  0.00  0.00    +0.000 A 
ATOM      2  C   UNL     1       4.298   4.924  18.147  0.00  0.00    +0.000 A 
ATOM      3  C   UNL     1       4.021   6.266  17.843  0.00  0.00    +0.000 A 
ATOM      4  C   UNL     1       3.143   6.997  18.661  0.00  0.00    +0.000 A 
ATOM      5  C   UNL     1       2.547   6.329  19.761  0.00  0.00    +0.000 A 
ATOM      6  C   UNL     1       2.861   4.950  20.056  0.00  0.00    +0.000 A 
ENDROOT
BRANCH   5   7
ATOM      7  C   UNL     1       1.557   7.001  20.667  0.00  0.00    +0.000 C 
ATOM      8  O   UNL     1       0.429   6.506  20.807  0.00  0.00    +0.000 OA
ATOM      9  N   UNL     1       1.875   8.183  21.325  0.00  0.00    +0.000 N 
ATOM     10  H   UNL     1       2.538   8.794  20.872  0.00  0.00    +0.000 HD
BRANCH   9  11
ATOM     11  C   UNL     1       0.823   8.729  22.167  0.00  0.00    +0.000 C 
BRANCH  11  12
ATOM     12  C   UNL     1       0.582  10.244  22.073  0.00  0.00    +0.000 C 
ATOM     13  C   UNL     1      -0.629  10.630  22.931  0.00  0.00    +0.000 C 
ATOM     14  C   UNL     1      -0.934  12.041  22.485  0.00  0.00    +0.000 C 
ATOM     15  C   UNL     1      -0.396  12.123  21.059  0.00  0.00    +0.000 C 
ATOM     16  N   UNL     1       0.276  10.841  20.738  0.00  0.00    +0.000 NA
BRANCH  16  17
ATOM     17  C   UNL     1      -0.584   9.972  19.912  0.00  0.00    +0.000 C 
ATOM     18  C   UNL     1      -1.229  10.677  18.720  0.00  0.00    +0.000 C 
ENDBRANCH  16  17
ENDBRANCH  11  12
ENDBRANCH   9  11
ENDBRANCH   5   7
BRANCH   3  19
ATOM     19  O   UNL     1       4.646   6.865  16.780  0.00  0.00    +0.000 OA
ATOM     20  C   UNL     1       5.765   6.185  16.216  0.00  0.00    +0.000 C 
ENDBRANCH   3  19
BRANCH   4  21
ATOM     21  O   UNL     1       2.729   8.283  18.410  0.00  0.00    +0.000 OA
ATOM     22  C   UNL     1       1.625   8.503  17.523  0.00  0.00    +0.000 C 
ENDBRANCH   4  21
BRANCH   6  23
ATOM     23  O   UNL     1       2.347   4.455  21.236  0.00  0.00    +0.000 OA
ATOM     24  C   UNL     1       1.480   3.334  21.281  0.00  0.00    +0.000 C 
ENDBRANCH   6  23
BRANCH   1  25
ATOM     25  C   UNL     1       4.121   2.786  19.415  0.00  0.00    +0.000 C 
BRANCH  25  27
ATOM     26  C   UNL     1       2.285   2.066  17.885  0.00  0.00    +0.000 C 
ATOM     27  C   UNL     1       3.715   1.791  18.325  0.00  0.00    +0.000 C 
ENDBRANCH  25  27
ENDBRANCH   1  25
TORSDOF 9
ENDMDL
