MODEL 1
REMARK VINA RESULT:      -9.3      0.000      0.000
REMARK  Name = 
REMARK  5 active torsions:
REMARK  status: ('A' for Active; 'I' for Inactive)
REMARK    1  A    between atoms: C_2  and  C_14
REMARK    2  A    between atoms: N_3  and  C_4
REMARK    3  A    between atoms: C_6  and  O_7
REMARK    4  A    between atoms: C_16  and  C_17
REMARK    5  A    between atoms: C_17  and  C_18
REMARK                            x       y       z     vdW  Elec       q    Type
REMARK                         _______ _______ _______ _____ _____    ______ ____
ROOT
ATOM      1  C   UNL     1       2.341   6.901  19.322  0.00  0.00    +0.000 A 
ATOM      2  C   UNL     1       2.217   8.056  18.517  0.00  0.00    +0.000 A 
ATOM      3  C   UNL     1       1.499   9.174  18.975  0.00  0.00    +0.000 A 
ATOM      4  C   UNL     1       0.913   9.113  20.251  0.00  0.00    +0.000 A 
ATOM      5  C   UNL     1       1.065   7.981  21.060  0.00  0.00    +0.000 A 
ATOM      6  C   UNL     1       1.785   6.902  20.598  0.00  0.00    +0.000 A 
ATOM      7  F   UNL     1       1.911   5.837  21.407  0.00  0.00    +0.000 F 
ENDROOT
BRANCH   1   9
ATOM      8  O   UNL     1       2.323   4.711  18.480  0.00  0.00    +0.000 OA
ATOM      9  C   UNL     1       3.009   5.686  18.808  0.00  0.00    +0.000 C 
ATOM     10  N   UNL     1       4.389   5.685  18.747  0.00  0.00    +0.000 N 
ATOM     11  H   UNL     1       4.922   6.427  19.198  0.00  0.00    +0.000 HD
BRANCH  10  12
ATOM     12  C   UNL     1       5.076   4.524  18.252  0.00  0.00    +0.000 C 
ATOM     13  C   UNL     1       6.457   4.320  18.902  0.00  0.00    +0.000 C 
ATOM     14  C   UNL     1       7.513   4.821  17.904  0.00  0.00    +0.000 C 
ATOM     15  C   UNL     1       6.793   4.717  16.596  0.00  0.00    +0.000 A 
ATOM     16  C   UNL     1       7.334   4.751  15.318  0.00  0.00    +0.000 A 
ATOM     17  C   UNL     1       6.471   4.638  14.227  0.00  0.00    +0.000 A 
ATOM     18  C   UNL     1       5.088   4.508  14.423  0.00  0.00    +0.000 A 
ATOM     19  C   UNL     1       4.550   4.490  15.713  0.00  0.00    +0.000 A 
ATOM     20  C   UNL     1       5.415   4.594  16.793  0.00  0.00    +0.000 A 
BRANCH  14  21
ATOM     21  O   UNL     1       8.662   3.990  17.948  0.00  0.00    +0.000 OA
ATOM     22  H   UNL     1       9.236   4.330  18.657  0.00  0.00    +0.000 HD
ENDBRANCH  14  21
ENDBRANCH  10  12
ENDBRANCH   1   9
BRANCH   3  23
ATOM     23  C   UNL     1       1.350  10.398  18.085  0.00  0.00    +0.000 C 
BRANCH  23  24
ATOM     24  C   UNL     1       0.217  11.329  18.516  0.00  0.00    +0.000 A 
ATOM     25  N   UNL     1       0.546  12.356  19.242  0.00  0.00    +0.000 NA
ATOM     26  N   UNL     1      -0.449  13.102  19.803  0.00  0.00    +0.000 N 
ATOM     27  C   UNL     1      -1.786  12.786  19.793  0.00  0.00    +0.000 A 
ATOM     28  O   UNL     1      -2.611  13.374  20.483  0.00  0.00    +0.000 OA
ATOM     29  C   UNL     1      -2.182  11.714  18.866  0.00  0.00    +0.000 A 
ATOM     30  C   UNL     1      -3.539  11.436  18.657  0.00  0.00    +0.000 A 
ATOM     31  C   UNL     1      -3.913  10.478  17.717  0.00  0.00    +0.000 A 
ATOM     32  C   UNL     1      -2.934   9.807  16.986  0.00  0.00    +0.000 A 
ATOM     33  C   UNL     1      -1.577  10.068  17.212  0.00  0.00    +0.000 A 
ATOM     34  C   UNL     1      -1.196  11.012  18.173  0.00  0.00    +0.000 A 
ATOM     35  H   UNL     1      -0.155  13.828  20.451  0.00  0.00    +0.000 HD
ENDBRANCH  23  24
ENDBRANCH   3  23
TORSDOF 5
ENDMDL
MODEL 2
REMARK VINA RESULT:      -9.0      2.033      2.732
REMARK  Name = 
REMARK  5 active torsions:
REMARK  status: ('A' for Active; 'I' for Inactive)
REMARK    1  A    between atoms: C_2  and  C_14
REMARK    2  A    between atoms: N_3  and  C_4
REMARK    3  A    between atoms: C_6  and  O_7
REMARK    4  A    between atoms: C_16  and  C_17
REMARK    5  A    between atoms: C_17  and  C_18
REMARK                            x       y       z     vdW  Elec       q    Type
REMARK                         _______ _______ _______ _____ _____    ______ ____
ROOT
ATOM      1  C   UNL     1       1.447   8.920  19.389  0.00  0.00    +0.000 A 
ATOM      2  C   UNL     1       1.004  10.221  19.059  0.00  0.00    +0.000 A 
ATOM      3  C   UNL     1       0.281  10.987  19.990  0.00  0.00    +0.000 A 
ATOM      4  C   UNL     1       0.016  10.427  21.251  0.00  0.00    +0.000 A 
ATOM      5  C   UNL     1       0.485   9.151  21.586  0.00  0.00    +0.000 A 
ATOM      6  C   UNL     1       1.204   8.423  20.665  0.00  0.00    +0.000 A 
ATOM      7  F   UNL     1       1.640   7.205  21.028  0.00  0.00    +0.000 F 
ENDROOT
BRANCH   1   9
ATOM      8  O   UNL     1       2.257   8.494  17.227  0.00  0.00    +0.000 OA
ATOM      9  C   UNL     1       2.121   8.072  18.381  0.00  0.00    +0.000 C 
ATOM     10  N   UNL     1       2.543   6.816  18.773  0.00  0.00    +0.000 N 
ATOM     11  H   UNL     1       2.249   6.433  19.669  0.00  0.00    +0.000 HD
BRANCH  10  12
ATOM     12  C   UNL     1       3.203   5.962  17.824  0.00  0.00    +0.000 C 
ATOM     13  C   UNL     1       2.968   4.465  18.098  0.00  0.00    +0.000 C 
ATOM     14  C   UNL     1       4.228   3.921  18.791  0.00  0.00    +0.000 C 
ATOM     15  C   UNL     1       5.278   4.895  18.357  0.00  0.00    +0.000 A 
ATOM     16  C   UNL     1       6.657   4.752  18.427  0.00  0.00    +0.000 A 
ATOM     17  C   UNL     1       7.458   5.796  17.962  0.00  0.00    +0.000 A 
ATOM     18  C   UNL     1       6.879   6.966  17.450  0.00  0.00    +0.000 A 
ATOM     19  C   UNL     1       5.490   7.108  17.397  0.00  0.00    +0.000 A 
ATOM     20  C   UNL     1       4.698   6.063  17.853  0.00  0.00    +0.000 A 
BRANCH  14  21
ATOM     21  O   UNL     1       4.503   2.604  18.343  0.00  0.00    +0.000 OA
ATOM     22  H   UNL     1       3.655   2.126  18.316  0.00  0.00    +0.000 HD
ENDBRANCH  14  21
ENDBRANCH  10  12
ENDBRANCH   1   9
BRANCH   3  23
ATOM     23  C   UNL     1      -0.215  12.374  19.611  0.00  0.00    +0.000 C 
BRANCH  23  24
ATOM     24  C   UNL     1      -1.739  12.478  19.545  0.00  0.00    +0.000 A 
ATOM     25  N   UNL     1      -2.332  13.044  20.553  0.00  0.00    +0.000 NA
ATOM     26  N   UNL     1      -3.694  12.989  20.623  0.00  0.00    +0.000 N 
ATOM     27  C   UNL     1      -4.505  12.256  19.791  0.00  0.00    +0.000 A 
ATOM     28  O   UNL     1      -5.696  12.074  20.020  0.00  0.00    +0.000 OA
ATOM     29  C   UNL     1      -3.866  11.729  18.575  0.00  0.00    +0.000 A 
ATOM     30  C   UNL     1      -4.645  11.117  17.584  0.00  0.00    +0.000 A 
ATOM     31  C   UNL     1      -4.049  10.694  16.398  0.00  0.00    +0.000 A 
ATOM     32  C   UNL     1      -2.682  10.888  16.203  0.00  0.00    +0.000 A 
ATOM     33  C   UNL     1      -1.901  11.477  17.203  0.00  0.00    +0.000 A 
ATOM     34  C   UNL     1      -2.490  11.881  18.407  0.00  0.00    +0.000 A 
ATOM     35  H   UNL     1      -4.114  13.346  21.476  0.00  0.00    +0.000 HD
ENDBRANCH  23  24
ENDBRANCH   3  23
TORSDOF 5
ENDMDL
MODEL 3
REMARK VINA RESULT:      -8.8      2.176     10.092
REMARK  Name = 
REMARK  5 active torsions:
REMARK  status: ('A' for Active; 'I' for Inactive)
REMARK    1  A    between atoms: C_2  and  C_14
REMARK    2  A    between atoms: N_3  and  C_4
REMARK    3  A    between atoms: C_6  and  O_7
REMARK    4  A    between atoms: C_16  and  C_17
REMARK    5  A    between atoms: C_17  and  C_18
REMARK                            x       y       z     vdW  Elec       q    Type
REMARK                         _______ _______ _______ _____ _____    ______ ____
ROOT
ATOM      1  C   UNL     1       0.589   9.826  19.410  0.00  0.00    +0.000 A 
ATOM      2  C   UNL     1       1.304   9.229  18.347  0.00  0.00    +0.000 A 
ATOM      3  C   UNL     1       2.098   8.092  18.571  0.00  0.00    +0.000 A 
ATOM      4  C   UNL     1       2.158   7.566  19.872  0.00  0.00    +0.000 A 
ATOM      5  C   UNL     1       1.423   8.140  20.916  0.00  0.00    +0.000 A 
ATOM      6  C   UNL     1       0.639   9.245  20.673  0.00  0.00    +0.000 A 
ATOM      7  F   UNL     1      -0.055   9.763  21.700  0.00  0.00    +0.000 F 
ENDROOT
BRANCH   1   9
ATOM      8  O   UNL     1       0.441  12.114  18.906  0.00  0.00    +0.000 OA
ATOM      9  C   UNL     1      -0.169  11.080  19.203  0.00  0.00    +0.000 C 
ATOM     10  N   UNL     1      -1.538  11.045  19.386  0.00  0.00    +0.000 N 
ATOM     11  H   UNL     1      -1.977  10.230  19.810  0.00  0.00    +0.000 HD
BRANCH  10  12
ATOM     12  C   UNL     1      -2.310  12.243  19.193  0.00  0.00    +0.000 C 
ATOM     13  C   UNL     1      -2.450  13.079  20.477  0.00  0.00    +0.000 C 
ATOM     14  C   UNL     1      -3.848  12.804  21.055  0.00  0.00    +0.000 C 
ATOM     15  C   UNL     1      -4.609  12.349  19.850  0.00  0.00    +0.000 A 
ATOM     16  C   UNL     1      -5.984  12.243  19.697  0.00  0.00    +0.000 A 
ATOM     17  C   UNL     1      -6.485  11.790  18.476  0.00  0.00    +0.000 A 
ATOM     18  C   UNL     1      -5.614  11.436  17.435  0.00  0.00    +0.000 A 
ATOM     19  C   UNL     1      -4.230  11.531  17.602  0.00  0.00    +0.000 A 
ATOM     20  C   UNL     1      -3.738  11.990  18.816  0.00  0.00    +0.000 A 
BRANCH  14  21
ATOM     21  O   UNL     1      -4.390  13.991  21.612  0.00  0.00    +0.000 OA
ATOM     22  H   UNL     1      -3.800  14.264  22.337  0.00  0.00    +0.000 HD
ENDBRANCH  14  21
ENDBRANCH  10  12
ENDBRANCH   1   9
BRANCH   3  23
ATOM     23  C   UNL     1       2.885   7.478  17.423  0.00  0.00    +0.000 C 
BRANCH  23  24
ATOM     24  C   UNL     1       3.585   6.170  17.796  0.00  0.00    +0.000 A 
ATOM     25  N   UNL     1       2.822   5.151  18.058  0.00  0.00    +0.000 NA
ATOM     26  N   UNL     1       3.394   4.025  18.576  0.00  0.00    +0.000 N 
ATOM     27  C   UNL     1       4.700   3.912  18.989  0.00  0.00    +0.000 A 
ATOM     28  O   UNL     1       5.108   2.953  19.635  0.00  0.00    +0.000 OA
ATOM     29  C   UNL     1       5.598   5.000  18.574  0.00  0.00    +0.000 A 
ATOM     30  C   UNL     1       6.977   4.892  18.798  0.00  0.00    +0.000 A 
ATOM     31  C   UNL     1       7.834   5.885  18.329  0.00  0.00    +0.000 A 
ATOM     32  C   UNL     1       7.314   6.978  17.635  0.00  0.00    +0.000 A 
ATOM     33  C   UNL     1       5.934   7.096  17.433  0.00  0.00    +0.000 A 
ATOM     34  C   UNL     1       5.066   6.114  17.924  0.00  0.00    +0.000 A 
ATOM     35  H   UNL     1       2.755   3.291  18.869  0.00  0.00    +0.000 HD
ENDBRANCH  23  24
ENDBRANCH   3  23
TORSDOF 5
ENDMDL
MODEL 4
REMARK VINA RESULT:      -8.8      1.584      9.516
REMARK  Name = 
REMARK  5 active torsions:
REMARK  status: ('A' for Active; 'I' for Inactive)
REMARK    1  A    between atoms: C_2  and  C_14
REMARK    2  A    between atoms: N_3  and  C_4
REMARK    3  A    between atoms: C_6  and  O_7
REMARK    4  A    between atoms: C_16  and  C_17
REMARK    5  A    between atoms: C_17  and  C_18
REMARK                            x       y       z     vdW  Elec       q    Type
REMARK                         _______ _______ _______ _____ _____    ______ ____
ROOT
ATOM      1  C   UNL     1       1.571   8.028  19.025  0.00  0.00    +0.000 A 
ATOM      2  C   UNL     1       1.955   6.999  18.135  0.00  0.00    +0.000 A 
ATOM      3  C   UNL     1       2.437   5.774  18.624  0.00  0.00    +0.000 A 
ATOM      4  C   UNL     1       2.524   5.599  20.016  0.00  0.00    +0.000 A 
ATOM      5  C   UNL     1       2.113   6.607  20.895  0.00  0.00    +0.000 A 
ATOM      6  C   UNL     1       1.629   7.795  20.395  0.00  0.00    +0.000 A 
ATOM      7  F   UNL     1       1.239   8.735  21.273  0.00  0.00    +0.000 F 
ENDROOT
BRANCH   1   9
ATOM      8  O   UNL     1       1.992  10.077  17.962  0.00  0.00    +0.000 OA
ATOM      9  C   UNL     1       1.157   9.354  18.517  0.00  0.00    +0.000 C 
ATOM     10  N   UNL     1      -0.153   9.742  18.719  0.00  0.00    +0.000 N 
ATOM     11  H   UNL     1      -0.756   9.206  19.339  0.00  0.00    +0.000 HD
BRANCH  10  12
ATOM     12  C   UNL     1      -0.595  11.023  18.239  0.00  0.00    +0.000 C 
ATOM     13  C   UNL     1      -0.807  12.047  19.368  0.00  0.00    +0.000 C 
ATOM     14  C   UNL     1      -2.318  12.125  19.640  0.00  0.00    +0.000 C 
ATOM     15  C   UNL     1      -2.902  11.653  18.345  0.00  0.00    +0.000 A 
ATOM     16  C   UNL     1      -4.208  11.788  17.897  0.00  0.00    +0.000 A 
ATOM     17  C   UNL     1      -4.539  11.267  16.646  0.00  0.00    +0.000 A 
ATOM     18  C   UNL     1      -3.574  10.610  15.869  0.00  0.00    +0.000 A 
ATOM     19  C   UNL     1      -2.264  10.465  16.334  0.00  0.00    +0.000 A 
ATOM     20  C   UNL     1      -1.939  10.993  17.576  0.00  0.00    +0.000 A 
BRANCH  14  21
ATOM     21  O   UNL     1      -2.693  13.460  19.939  0.00  0.00    +0.000 OA
ATOM     22  H   UNL     1      -2.325  14.027  19.238  0.00  0.00    +0.000 HD
ENDBRANCH  14  21
ENDBRANCH  10  12
ENDBRANCH   1   9
BRANCH   3  23
ATOM     23  C   UNL     1       2.875   4.687  17.653  0.00  0.00    +0.000 C 
BRANCH  23  24
ATOM     24  C   UNL     1       4.379   4.416  17.681  0.00  0.00    +0.000 A 
ATOM     25  N   UNL     1       4.920   4.227  18.848  0.00  0.00    +0.000 NA
ATOM     26  N   UNL     1       6.280   4.170  18.935  0.00  0.00    +0.000 N 
ATOM     27  C   UNL     1       7.156   4.441  17.911  0.00  0.00    +0.000 A 
ATOM     28  O   UNL     1       8.361   4.579  18.090  0.00  0.00    +0.000 OA
ATOM     29  C   UNL     1       6.564   4.518  16.566  0.00  0.00    +0.000 A 
ATOM     30  C   UNL     1       7.393   4.618  15.442  0.00  0.00    +0.000 A 
ATOM     31  C   UNL     1       6.834   4.606  14.166  0.00  0.00    +0.000 A 
ATOM     32  C   UNL     1       5.452   4.489  14.017  0.00  0.00    +0.000 A 
ATOM     33  C   UNL     1       4.623   4.412  15.141  0.00  0.00    +0.000 A 
ATOM     34  C   UNL     1       5.178   4.449  16.426  0.00  0.00    +0.000 A 
ATOM     35  H   UNL     1       6.669   4.132  19.872  0.00  0.00    +0.000 HD
ENDBRANCH  23  24
ENDBRANCH   3  23
TORSDOF 5
ENDMDL
MODEL 5
REMARK VINA RESULT:      -8.8      1.806      8.903
REMARK  Name = 
REMARK  5 active torsions:
REMARK  status: ('A' for Active; 'I' for Inactive)
REMARK    1  A    between atoms: C_2  and  C_14
REMARK    2  A    between atoms: N_3  and  C_4
REMARK    3  A    between atoms: C_6  and  O_7
REMARK    4  A    between atoms: C_16  and  C_17
REMARK    5  A    between atoms: C_17  and  C_18
REMARK                            x       y       z     vdW  Elec       q    Type
REMARK                         _______ _______ _______ _____ _____    ______ ____
ROOT
ATOM      1  C   UNL     1       2.289   6.609  19.551  0.00  0.00    +0.000 A 
ATOM      2  C   UNL     1       3.366   5.827  19.077  0.00  0.00    +0.000 A 
ATOM      3  C   UNL     1       3.640   4.570  19.641  0.00  0.00    +0.000 A 
ATOM      4  C   UNL     1       2.816   4.114  20.684  0.00  0.00    +0.000 A 
ATOM      5  C   UNL     1       1.730   4.876  21.130  0.00  0.00    +0.000 A 
ATOM      6  C   UNL     1       1.470   6.099  20.553  0.00  0.00    +0.000 A 
ATOM      7  F   UNL     1       0.415   6.797  21.006  0.00  0.00    +0.000 F 
ENDROOT
BRANCH   1   9
ATOM      8  O   UNL     1       2.550   8.299  17.944  0.00  0.00    +0.000 OA
ATOM      9  C   UNL     1       2.056   7.974  19.030  0.00  0.00    +0.000 C 
ATOM     10  N   UNL     1       1.315   8.844  19.806  0.00  0.00    +0.000 N 
ATOM     11  H   UNL     1       1.088   8.604  20.769  0.00  0.00    +0.000 HD
BRANCH  10  12
ATOM     12  C   UNL     1       1.066  10.179  19.333  0.00  0.00    +0.000 C 
ATOM     13  C   UNL     1       1.117  11.232  20.455  0.00  0.00    +0.000 C 
ATOM     14  C   UNL     1      -0.334  11.572  20.833  0.00  0.00    +0.000 C 
ATOM     15  C   UNL     1      -1.084  11.198  19.592  0.00  0.00    +0.000 A 
ATOM     16  C   UNL     1      -2.378  11.553  19.236  0.00  0.00    +0.000 A 
ATOM     17  C   UNL     1      -2.885  11.088  18.023  0.00  0.00    +0.000 A 
ATOM     18  C   UNL     1      -2.107  10.268  17.192  0.00  0.00    +0.000 A 
ATOM     19  C   UNL     1      -0.810   9.903  17.565  0.00  0.00    +0.000 A 
ATOM     20  C   UNL     1      -0.309  10.376  18.769  0.00  0.00    +0.000 A 
BRANCH  14  21
ATOM     21  O   UNL     1      -0.451  12.954  21.131  0.00  0.00    +0.000 OA
ATOM     22  H   UNL     1      -0.526  13.426  20.282  0.00  0.00    +0.000 HD
ENDBRANCH  14  21
ENDBRANCH  10  12
ENDBRANCH   1   9
BRANCH   3  23
ATOM     23  C   UNL     1       4.821   3.753  19.140  0.00  0.00    +0.000 C 
BRANCH  23  24
ATOM     24  C   UNL     1       5.902   4.597  18.464  0.00  0.00    +0.000 A 
ATOM     25  N   UNL     1       6.601   5.380  19.232  0.00  0.00    +0.000 NA
ATOM     26  N   UNL     1       7.441   6.283  18.649  0.00  0.00    +0.000 N 
ATOM     27  C   UNL     1       7.516   6.549  17.303  0.00  0.00    +0.000 A 
ATOM     28  O   UNL     1       8.131   7.509  16.852  0.00  0.00    +0.000 OA
ATOM     29  C   UNL     1       6.840   5.585  16.421  0.00  0.00    +0.000 A 
ATOM     30  C   UNL     1       7.003   5.674  15.033  0.00  0.00    +0.000 A 
ATOM     31  C   UNL     1       6.430   4.709  14.206  0.00  0.00    +0.000 A 
ATOM     32  C   UNL     1       5.703   3.660  14.767  0.00  0.00    +0.000 A 
ATOM     33  C   UNL     1       5.522   3.585  16.153  0.00  0.00    +0.000 A 
ATOM     34  C   UNL     1       6.074   4.565  16.986  0.00  0.00    +0.000 A 
ATOM     35  H   UNL     1       7.887   6.949  19.274  0.00  0.00    +0.000 HD
ENDBRANCH  23  24
ENDBRANCH   3  23
TORSDOF 5
ENDMDL
MODEL 6
REMARK VINA RESULT:      -8.7      2.312      3.482
REMARK  Name = 
REMARK  5 active torsions:
REMARK  status: ('A' for Active; 'I' for Inactive)
REMARK    1  A    between atoms: C_2  and  C_14
REMARK    2  A    between atoms: N_3  and  C_4
REMARK    3  A    between atoms: C_6  and  O_7
REMARK    4  A    between atoms: C_16  and  C_17
REMARK    5  A    between atoms: C_17  and  C_18
REMARK                            x       y       z     vdW  Elec       q    Type
REMARK                         _______ _______ _______ _____ _____    ______ ____
ROOT
ATOM      1  C   UNL     1       1.474   8.783  19.632  0.00  0.00    +0.000 A 
ATOM      2  C   UNL     1       0.955  10.088  19.477  0.00  0.00    +0.000 A 
ATOM      3  C   UNL     1       0.255  10.709  20.525  0.00  0.00    +0.000 A 
ATOM      4  C   UNL     1       0.088  10.000  21.727  0.00  0.00    +0.000 A 
ATOM      5  C   UNL     1       0.632   8.721  21.890  0.00  0.00    +0.000 A 
ATOM      6  C   UNL     1       1.327   8.136  20.855  0.00  0.00    +0.000 A 
ATOM      7  F   UNL     1       1.837   6.909  21.054  0.00  0.00    +0.000 F 
ENDROOT
BRANCH   1   9
ATOM      8  O   UNL     1       2.210   8.656  17.407  0.00  0.00    +0.000 OA
ATOM      9  C   UNL     1       2.125   8.086  18.501  0.00  0.00    +0.000 C 
ATOM     10  N   UNL     1       2.584   6.801  18.713  0.00  0.00    +0.000 N 
ATOM     11  H   UNL     1       2.331   6.300  19.562  0.00  0.00    +0.000 HD
BRANCH  10  12
ATOM     12  C   UNL     1       3.224   6.091  17.639  0.00  0.00    +0.000 C 
ATOM     13  C   UNL     1       2.937   4.579  17.664  0.00  0.00    +0.000 C 
ATOM     14  C   UNL     1       4.171   3.885  18.264  0.00  0.00    +0.000 C 
ATOM     15  C   UNL     1       5.257   4.880  17.998  0.00  0.00    +0.000 A 
ATOM     16  C   UNL     1       6.630   4.680  18.049  0.00  0.00    +0.000 A 
ATOM     17  C   UNL     1       7.470   5.757  17.763  0.00  0.00    +0.000 A 
ATOM     18  C   UNL     1       6.935   7.014  17.447  0.00  0.00    +0.000 A 
ATOM     19  C   UNL     1       5.551   7.211  17.413  0.00  0.00    +0.000 A 
ATOM     20  C   UNL     1       4.721   6.134  17.689  0.00  0.00    +0.000 A 
BRANCH  14  21
ATOM     21  O   UNL     1       4.406   2.650  17.608  0.00  0.00    +0.000 OA
ATOM     22  H   UNL     1       4.556   2.848  16.666  0.00  0.00    +0.000 HD
ENDBRANCH  14  21
ENDBRANCH  10  12
ENDBRANCH   1   9
BRANCH   3  23
ATOM     23  C   UNL     1      -0.323  12.102  20.332  0.00  0.00    +0.000 C 
BRANCH  23  24
ATOM     24  C   UNL     1      -1.840  12.110  20.136  0.00  0.00    +0.000 A 
ATOM     25  N   UNL     1      -2.276  11.939  18.924  0.00  0.00    +0.000 NA
ATOM     26  N   UNL     1      -3.605  12.127  18.677  0.00  0.00    +0.000 N 
ATOM     27  C   UNL     1      -4.519  12.628  19.572  0.00  0.00    +0.000 A 
ATOM     28  O   UNL     1      -5.648  12.972  19.241  0.00  0.00    +0.000 OA
ATOM     29  C   UNL     1      -4.073  12.694  20.973  0.00  0.00    +0.000 A 
ATOM     30  C   UNL     1      -4.986  13.028  21.981  0.00  0.00    +0.000 A 
ATOM     31  C   UNL     1      -4.581  13.007  23.314  0.00  0.00    +0.000 A 
ATOM     32  C   UNL     1      -3.272  12.649  23.635  0.00  0.00    +0.000 A 
ATOM     33  C   UNL     1      -2.355  12.339  22.625  0.00  0.00    +0.000 A 
ATOM     34  C   UNL     1      -2.749  12.382  21.282  0.00  0.00    +0.000 A 
ATOM     35  H   UNL     1      -3.889  12.091  17.702  0.00  0.00    +0.000 HD
ENDBRANCH  23  24
ENDBRANCH   3  23
TORSDOF 5
ENDMDL
MODEL 7
REMARK VINA RESULT:      -8.7      2.365      3.307
REMARK  Name = 
REMARK  5 active torsions:
REMARK  status: ('A' for Active; 'I' for Inactive)
REMARK    1  A    between atoms: C_2  and  C_14
REMARK    2  A    between atoms: N_3  and  C_4
REMARK    3  A    between atoms: C_6  and  O_7
REMARK    4  A    between atoms: C_16  and  C_17
REMARK    5  A    between atoms: C_17  and  C_18
REMARK                            x       y       z     vdW  Elec       q    Type
REMARK                         _______ _______ _______ _____ _____    ______ ____
ROOT
ATOM      1  C   UNL     1       1.464   8.888  19.126  0.00  0.00    +0.000 A 
ATOM      2  C   UNL     1       0.822  10.031  18.599  0.00  0.00    +0.000 A 
ATOM      3  C   UNL     1      -0.006  10.824  19.411  0.00  0.00    +0.000 A 
ATOM      4  C   UNL     1      -0.174  10.453  20.756  0.00  0.00    +0.000 A 
ATOM      5  C   UNL     1       0.489   9.339  21.284  0.00  0.00    +0.000 A 
ATOM      6  C   UNL     1       1.308   8.584  20.474  0.00  0.00    +0.000 A 
ATOM      7  F   UNL     1       1.931   7.526  21.021  0.00  0.00    +0.000 F 
ENDROOT
BRANCH   1   9
ATOM      8  O   UNL     1       2.458   8.320  17.078  0.00  0.00    +0.000 OA
ATOM      9  C   UNL     1       2.257   7.994  18.253  0.00  0.00    +0.000 C 
ATOM     10  N   UNL     1       2.712   6.806  18.790  0.00  0.00    +0.000 N 
ATOM     11  H   UNL     1       2.370   6.488  19.695  0.00  0.00    +0.000 HD
BRANCH  10  12
ATOM     12  C   UNL     1       3.487   5.910  17.974  0.00  0.00    +0.000 C 
ATOM     13  C   UNL     1       3.424   4.451  18.459  0.00  0.00    +0.000 C 
ATOM     14  C   UNL     1       4.725   4.165  19.227  0.00  0.00    +0.000 C 
ATOM     15  C   UNL     1       5.662   5.185  18.660  0.00  0.00    +0.000 A 
ATOM     16  C   UNL     1       7.047   5.220  18.754  0.00  0.00    +0.000 A 
ATOM     17  C   UNL     1       7.728   6.275  18.146  0.00  0.00    +0.000 A 
ATOM     18  C   UNL     1       7.026   7.282  17.470  0.00  0.00    +0.000 A 
ATOM     19  C   UNL     1       5.630   7.249  17.393  0.00  0.00    +0.000 A 
ATOM     20  C   UNL     1       4.959   6.192  17.992  0.00  0.00    +0.000 A 
BRANCH  14  21
ATOM     21  O   UNL     1       5.162   2.840  18.972  0.00  0.00    +0.000 OA
ATOM     22  H   UNL     1       5.012   2.326  19.786  0.00  0.00    +0.000 HD
ENDBRANCH  14  21
ENDBRANCH  10  12
ENDBRANCH   1   9
BRANCH   3  23
ATOM     23  C   UNL     1      -0.714  12.035  18.822  0.00  0.00    +0.000 C 
BRANCH  23  24
ATOM     24  C   UNL     1      -2.195  11.791  18.531  0.00  0.00    +0.000 A 
ATOM     25  N   UNL     1      -2.489  11.275  17.375  0.00  0.00    +0.000 NA
ATOM     26  N   UNL     1      -3.800  11.217  17.001  0.00  0.00    +0.000 N 
ATOM     27  C   UNL     1      -4.848  11.792  17.679  0.00  0.00    +0.000 A 
ATOM     28  O   UNL     1      -5.972  11.890  17.198  0.00  0.00    +0.000 OA
ATOM     29  C   UNL     1      -4.551  12.254  19.044  0.00  0.00    +0.000 A 
ATOM     30  C   UNL     1      -5.590  12.695  19.874  0.00  0.00    +0.000 A 
ATOM     31  C   UNL     1      -5.317  13.052  21.193  0.00  0.00    +0.000 A 
ATOM     32  C   UNL     1      -4.014  12.962  21.679  0.00  0.00    +0.000 A 
ATOM     33  C   UNL     1      -2.973  12.543  20.842  0.00  0.00    +0.000 A 
ATOM     34  C   UNL     1      -3.237  12.207  19.509  0.00  0.00    +0.000 A 
ATOM     35  H   UNL     1      -3.982  10.909  16.051  0.00  0.00    +0.000 HD
ENDBRANCH  23  24
ENDBRANCH   3  23
TORSDOF 5
ENDMDL
MODEL 8
REMARK VINA RESULT:      -8.6      2.134      9.954
REMARK  Name = 
REMARK  5 active torsions:
REMARK  status: ('A' for Active; 'I' for Inactive)
REMARK    1  A    between atoms: C_2  and  C_14
REMARK    2  A    between atoms: N_3  and  C_4
REMARK    3  A    between atoms: C_6  and  O_7
REMARK    4  A    between atoms: C_16  and  C_17
REMARK    5  A    between atoms: C_17  and  C_18
REMARK                            x       y       z     vdW  Elec       q    Type
REMARK                         _______ _______ _______ _____ _____    ______ ____
ROOT
ATOM      1  C   UNL     1       0.400  10.026  19.595  0.00  0.00    +0.000 A 
ATOM      2  C   UNL     1       1.082   9.487  18.481  0.00  0.00    +0.000 A 
ATOM      3  C   UNL     1       1.909   8.361  18.626  0.00  0.00    +0.000 A 
ATOM      4  C   UNL     1       2.037   7.787  19.902  0.00  0.00    +0.000 A 
ATOM      5  C   UNL     1       1.335   8.303  20.997  0.00  0.00    +0.000 A 
ATOM      6  C   UNL     1       0.517   9.398  20.831  0.00  0.00    +0.000 A 
ATOM      7  F   UNL     1      -0.143   9.859  21.906  0.00  0.00    +0.000 F 
ENDROOT
BRANCH   1   9
ATOM      8  O   UNL     1       0.192  12.350  19.344  0.00  0.00    +0.000 OA
ATOM      9  C   UNL     1      -0.394  11.268  19.469  0.00  0.00    +0.000 C 
ATOM     10  N   UNL     1      -1.770  11.164  19.532  0.00  0.00    +0.000 N 
ATOM     11  H   UNL     1      -2.205  10.291  19.822  0.00  0.00    +0.000 HD
BRANCH  10  12
ATOM     12  C   UNL     1      -2.576  12.349  19.413  0.00  0.00    +0.000 C 
ATOM     13  C   UNL     1      -2.692  13.131  20.734  0.00  0.00    +0.000 C 
ATOM     14  C   UNL     1      -4.062  12.798  21.347  0.00  0.00    +0.000 C 
ATOM     15  C   UNL     1      -4.853  12.371  20.150  0.00  0.00    +0.000 A 
ATOM     16  C   UNL     1      -6.230  12.238  20.039  0.00  0.00    +0.000 A 
ATOM     17  C   UNL     1      -6.762  11.820  18.818  0.00  0.00    +0.000 A 
ATOM     18  C   UNL     1      -5.919  11.529  17.736  0.00  0.00    +0.000 A 
ATOM     19  C   UNL     1      -4.532  11.651  17.860  0.00  0.00    +0.000 A 
ATOM     20  C   UNL     1      -4.011  12.076  19.074  0.00  0.00    +0.000 A 
BRANCH  14  21
ATOM     21  O   UNL     1      -4.613  13.949  21.967  0.00  0.00    +0.000 OA
ATOM     22  H   UNL     1      -5.410  13.663  22.448  0.00  0.00    +0.000 HD
ENDBRANCH  14  21
ENDBRANCH  10  12
ENDBRANCH   1   9
BRANCH   3  23
ATOM     23  C   UNL     1       2.660   7.810  17.423  0.00  0.00    +0.000 C 
BRANCH  23  24
ATOM     24  C   UNL     1       3.673   6.723  17.784  0.00  0.00    +0.000 A 
ATOM     25  N   UNL     1       4.901   7.106  17.976  0.00  0.00    +0.000 NA
ATOM     26  N   UNL     1       5.867   6.152  18.113  0.00  0.00    +0.000 N 
ATOM     27  C   UNL     1       5.688   4.803  17.920  0.00  0.00    +0.000 A 
ATOM     28  O   UNL     1       6.625   4.015  17.850  0.00  0.00    +0.000 OA
ATOM     29  C   UNL     1       4.291   4.348  17.839  0.00  0.00    +0.000 A 
ATOM     30  C   UNL     1       4.003   2.977  17.816  0.00  0.00    +0.000 A 
ATOM     31  C   UNL     1       2.678   2.549  17.824  0.00  0.00    +0.000 A 
ATOM     32  C   UNL     1       1.647   3.487  17.862  0.00  0.00    +0.000 A 
ATOM     33  C   UNL     1       1.936   4.856  17.862  0.00  0.00    +0.000 A 
ATOM     34  C   UNL     1       3.265   5.292  17.828  0.00  0.00    +0.000 A 
ATOM     35  H   UNL     1       6.825   6.486  18.152  0.00  0.00    +0.000 HD
ENDBRANCH  23  24
ENDBRANCH   3  23
TORSDOF 5
ENDMDL
MODEL 9
REMARK VINA RESULT:      -8.5      3.256      4.631
REMARK  Name = 
REMARK  5 active torsions:
REMARK  status: ('A' for Active; 'I' for Inactive)
REMARK    1  A    between atoms: C_2  and  C_14
REMARK    2  A    between atoms: N_3  and  C_4
REMARK    3  A    between atoms: C_6  and  O_7
REMARK    4  A    between atoms: C_16  and  C_17
REMARK    5  A    between atoms: C_17  and  C_18
REMARK                            x       y       z     vdW  Elec       q    Type
REMARK                         _______ _______ _______ _____ _____    ______ ____
ROOT
ATOM      1  C   UNL     1       0.396   9.819  21.694  0.00  0.00    +0.000 A 
ATOM      2  C   UNL     1       0.047  10.674  20.624  0.00  0.00    +0.000 A 
ATOM      3  C   UNL     1      -1.010  11.590  20.757  0.00  0.00    +0.000 A 
ATOM      4  C   UNL     1      -1.705  11.634  21.977  0.00  0.00    +0.000 A 
ATOM      5  C   UNL     1      -1.336  10.809  23.046  0.00  0.00    +0.000 A 
ATOM      6  C   UNL     1      -0.288   9.929  22.901  0.00  0.00    +0.000 A 
ATOM      7  F   UNL     1       0.038   9.159  23.952  0.00  0.00    +0.000 F 
ENDROOT
BRANCH   1   9
ATOM      8  O   UNL     1       2.377   8.736  22.335  0.00  0.00    +0.000 OA
ATOM      9  C   UNL     1       1.441   8.785  21.528  0.00  0.00    +0.000 C 
ATOM     10  N   UNL     1       1.340   7.932  20.446  0.00  0.00    +0.000 N 
ATOM     11  H   UNL     1       0.667   8.122  19.706  0.00  0.00    +0.000 HD
BRANCH  10  12
ATOM     12  C   UNL     1       2.335   6.913  20.251  0.00  0.00    +0.000 C 
ATOM     13  C   UNL     1       3.277   7.213  19.071  0.00  0.00    +0.000 C 
ATOM     14  C   UNL     1       2.811   6.359  17.881  0.00  0.00    +0.000 C 
ATOM     15  C   UNL     1       2.076   5.243  18.557  0.00  0.00    +0.000 A 
ATOM     16  C   UNL     1       1.691   4.024  18.017  0.00  0.00    +0.000 A 
ATOM     17  C   UNL     1       1.007   3.122  18.832  0.00  0.00    +0.000 A 
ATOM     18  C   UNL     1       0.704   3.450  20.161  0.00  0.00    +0.000 A 
ATOM     19  C   UNL     1       1.082   4.686  20.693  0.00  0.00    +0.000 A 
ATOM     20  C   UNL     1       1.770   5.576  19.879  0.00  0.00    +0.000 A 
BRANCH  14  21
ATOM     21  O   UNL     1       3.929   5.893  17.145  0.00  0.00    +0.000 OA
ATOM     22  H   UNL     1       3.660   5.847  16.210  0.00  0.00    +0.000 HD
ENDBRANCH  14  21
ENDBRANCH  10  12
ENDBRANCH   1   9
BRANCH   3  23
ATOM     23  C   UNL     1      -1.392  12.483  19.586  0.00  0.00    +0.000 C 
BRANCH  23  24
ATOM     24  C   UNL     1      -2.186  11.756  18.500  0.00  0.00    +0.000 A 
ATOM     25  N   UNL     1      -1.498  11.141  17.583  0.00  0.00    +0.000 NA
ATOM     26  N   UNL     1      -2.159  10.643  16.498  0.00  0.00    +0.000 N 
ATOM     27  C   UNL     1      -3.484  10.857  16.204  0.00  0.00    +0.000 A 
ATOM     28  O   UNL     1      -3.976  10.565  15.120  0.00  0.00    +0.000 OA
ATOM     29  C   UNL     1      -4.297  11.426  17.291  0.00  0.00    +0.000 A 
ATOM     30  C   UNL     1      -5.687  11.521  17.148  0.00  0.00    +0.000 A 
ATOM     31  C   UNL     1      -6.462  11.982  18.210  0.00  0.00    +0.000 A 
ATOM     32  C   UNL     1      -5.849  12.341  19.410  0.00  0.00    +0.000 A 
ATOM     33  C   UNL     1      -4.457  12.268  19.543  0.00  0.00    +0.000 A 
ATOM     34  C   UNL     1      -3.672  11.829  18.471  0.00  0.00    +0.000 A 
ATOM     35  H   UNL     1      -1.579  10.268  15.753  0.00  0.00    +0.000 HD
ENDBRANCH  23  24
ENDBRANCH   3  23
TORSDOF 5
ENDMDL
