MODEL 1
REMARK VINA RESULT:      -8.7      0.000      0.000
REMARK  Name = 
REMARK  9 active torsions:
REMARK  status: ('A' for Active; 'I' for Inactive)
REMARK    1  A    between atoms: C_1  and  O_2
REMARK    2  A    between atoms: O_2  and  C_3
REMARK    3  A    between atoms: C_6  and  C_7
REMARK    4  A    between atoms: C_7  and  C_8
REMARK    5  A    between atoms: C_8  and  N_9
REMARK    6  A    between atoms: C_10  and  C_12
REMARK    7  A    between atoms: C_22  and  C_23
REMARK    8  A    between atoms: C_27  and  O_28
REMARK    9  A    between atoms: O_28  and  C_29
REMARK                            x       y       z     vdW  Elec       q    Type
REMARK                         _______ _______ _______ _____ _____    ______ ____
ROOT
ATOM      1  N   UNL     1       7.252   8.101  18.137  0.00  0.00    +0.000 N 
ATOM      2  C   UNL     1       7.184   6.940  17.397  0.00  0.00    +0.000 C 
ATOM      3  O   UNL     1       7.749   6.809  16.319  0.00  0.00    +0.000 OA
ATOM      4  H   UNL     1       6.730   8.143  19.008  0.00  0.00    +0.000 HD
ENDROOT
BRANCH   2   5
ATOM      5  C   UNL     1       6.417   5.859  17.988  0.00  0.00    +0.000 A 
ATOM      6  C   UNL     1       6.894   4.563  18.262  0.00  0.00    +0.000 A 
ATOM      7  N   UNL     1       5.993   3.782  18.856  0.00  0.00    +0.000 NA
ATOM      8  N   UNL     1       4.889   4.562  18.966  0.00  0.00    +0.000 N 
ATOM      9  C   UNL     1       3.653   4.220  19.526  0.00  0.00    +0.000 A 
ATOM     10  C   UNL     1       2.640   5.106  19.488  0.00  0.00    +0.000 A 
ATOM     11  C   UNL     1       2.965   6.430  18.879  0.00  0.00    +0.000 A 
ATOM     12  N   UNL     1       4.110   6.790  18.383  0.00  0.00    +0.000 NA
ATOM     13  C   UNL     1       5.101   5.839  18.414  0.00  0.00    +0.000 A 
ATOM     14  C   UNL     1       1.252   4.833  19.977  0.00  0.00    +0.000 C 
ATOM     15  C   UNL     1       0.993   3.330  20.203  0.00  0.00    +0.000 C 
ATOM     16  C   UNL     1       0.696   2.602  18.887  0.00  0.00    +0.000 C 
ATOM     17  C   UNL     1       2.191   2.704  20.934  0.00  0.00    +0.000 C 
ATOM     18  C   UNL     1       3.501   2.855  20.148  0.00  0.00    +0.000 C 
ENDBRANCH   2   5
BRANCH   1  19
ATOM     19  C   UNL     1       8.038   9.223  17.666  0.00  0.00    +0.000 C 
BRANCH  19  20
ATOM     20  C   UNL     1       8.996   9.772  18.721  0.00  0.00    +0.000 C 
BRANCH  20  24
ATOM     21  C   UNL     1      10.556  13.593  17.395  0.00  0.00    +0.000 A 
ATOM     22  C   UNL     1      11.395  12.473  17.515  0.00  0.00    +0.000 A 
ATOM     23  C   UNL     1      10.900  11.238  17.943  0.00  0.00    +0.000 A 
ATOM     24  C   UNL     1       9.562  11.111  18.314  0.00  0.00    +0.000 A 
ATOM     25  C   UNL     1       8.744  12.248  18.266  0.00  0.00    +0.000 A 
ATOM     26  C   UNL     1       9.223  13.491  17.819  0.00  0.00    +0.000 A 
BRANCH  21  28
ATOM     27  C   UNL     1      12.059  15.406  17.658  0.00  0.00    +0.000 C 
ATOM     28  O   UNL     1      11.027  14.779  16.895  0.00  0.00    +0.000 OA
ENDBRANCH  21  28
BRANCH  26  29
ATOM     29  O   UNL     1       8.247  14.451  17.853  0.00  0.00    +0.000 OA
ATOM     30  C   UNL     1       7.512  14.661  19.047  0.00  0.00    +0.000 C 
ENDBRANCH  26  29
ENDBRANCH  20  24
ENDBRANCH  19  20
ENDBRANCH   1  19
TORSDOF 6
ENDMDL
MODEL 2
REMARK VINA RESULT:      -8.4      1.590      2.282
REMARK  Name = 
REMARK  9 active torsions:
REMARK  status: ('A' for Active; 'I' for Inactive)
REMARK    1  A    between atoms: C_1  and  O_2
REMARK    2  A    between atoms: O_2  and  C_3
REMARK    3  A    between atoms: C_6  and  C_7
REMARK    4  A    between atoms: C_7  and  C_8
REMARK    5  A    between atoms: C_8  and  N_9
REMARK    6  A    between atoms: C_10  and  C_12
REMARK    7  A    between atoms: C_22  and  C_23
REMARK    8  A    between atoms: C_27  and  O_28
REMARK    9  A    between atoms: O_28  and  C_29
REMARK                            x       y       z     vdW  Elec       q    Type
REMARK                         _______ _______ _______ _____ _____    ______ ____
ROOT
ATOM      1  N   UNL     1       7.091   8.542  17.821  0.00  0.00    +0.000 N 
ATOM      2  C   UNL     1       6.881   7.292  17.279  0.00  0.00    +0.000 C 
ATOM      3  O   UNL     1       7.751   6.681  16.671  0.00  0.00    +0.000 OA
ATOM      4  H   UNL     1       6.310   8.997  18.286  0.00  0.00    +0.000 HD
ENDROOT
BRANCH   2   5
ATOM      5  C   UNL     1       5.564   6.723  17.494  0.00  0.00    +0.000 A 
ATOM      6  C   UNL     1       4.342   7.302  17.103  0.00  0.00    +0.000 A 
ATOM      7  N   UNL     1       3.284   6.540  17.379  0.00  0.00    +0.000 NA
ATOM      8  N   UNL     1       3.805   5.442  17.979  0.00  0.00    +0.000 N 
ATOM      9  C   UNL     1       3.114   4.325  18.464  0.00  0.00    +0.000 A 
ATOM     10  C   UNL     1       3.794   3.350  19.096  0.00  0.00    +0.000 A 
ATOM     11  C   UNL     1       5.272   3.540  19.173  0.00  0.00    +0.000 A 
ATOM     12  N   UNL     1       5.946   4.546  18.703  0.00  0.00    +0.000 NA
ATOM     13  C   UNL     1       5.204   5.531  18.097  0.00  0.00    +0.000 A 
ATOM     14  C   UNL     1       3.165   2.148  19.730  0.00  0.00    +0.000 C 
ATOM     15  C   UNL     1       1.641   2.303  19.901  0.00  0.00    +0.000 C 
ATOM     16  C   UNL     1       1.292   3.159  21.126  0.00  0.00    +0.000 C 
ATOM     17  C   UNL     1       1.033   2.888  18.617  0.00  0.00    +0.000 C 
ATOM     18  C   UNL     1       1.622   4.261  18.263  0.00  0.00    +0.000 C 
ENDBRANCH   2   5
BRANCH   1  19
ATOM     19  C   UNL     1       8.389   9.177  17.713  0.00  0.00    +0.000 C 
BRANCH  19  20
ATOM     20  C   UNL     1       8.976   9.581  19.065  0.00  0.00    +0.000 C 
BRANCH  20  24
ATOM     21  C   UNL     1      10.969  13.421  18.799  0.00  0.00    +0.000 A 
ATOM     22  C   UNL     1      10.911  12.560  17.691  0.00  0.00    +0.000 A 
ATOM     23  C   UNL     1      10.271  11.320  17.769  0.00  0.00    +0.000 A 
ATOM     24  C   UNL     1       9.722  10.890  18.977  0.00  0.00    +0.000 A 
ATOM     25  C   UNL     1       9.848  11.717  20.100  0.00  0.00    +0.000 A 
ATOM     26  C   UNL     1      10.470  12.975  20.033  0.00  0.00    +0.000 A 
BRANCH  21  28
ATOM     27  C   UNL     1      10.607  15.734  18.430  0.00  0.00    +0.000 C 
ATOM     28  O   UNL     1      11.523  14.671  18.696  0.00  0.00    +0.000 OA
ENDBRANCH  21  28
BRANCH  26  29
ATOM     29  O   UNL     1      10.471  13.606  21.248  0.00  0.00    +0.000 OA
ATOM     30  C   UNL     1       9.246  13.817  21.929  0.00  0.00    +0.000 C 
ENDBRANCH  26  29
ENDBRANCH  20  24
ENDBRANCH  19  20
ENDBRANCH   1  19
TORSDOF 6
ENDMDL
MODEL 3
REMARK VINA RESULT:      -8.1      1.063      1.199
REMARK  Name = 
REMARK  9 active torsions:
REMARK  status: ('A' for Active; 'I' for Inactive)
REMARK    1  A    between atoms: C_1  and  O_2
REMARK    2  A    between atoms: O_2  and  C_3
REMARK    3  A    between atoms: C_6  and  C_7
REMARK    4  A    between atoms: C_7  and  C_8
REMARK    5  A    between atoms: C_8  and  N_9
REMARK    6  A    between atoms: C_10  and  C_12
REMARK    7  A    between atoms: C_22  and  C_23
REMARK    8  A    between atoms: C_27  and  O_28
REMARK    9  A    between atoms: O_28  and  C_29
REMARK                            x       y       z     vdW  Elec       q    Type
REMARK                         _______ _______ _______ _____ _____    ______ ____
ROOT
ATOM      1  N   UNL     1       7.395   8.032  18.298  0.00  0.00    +0.000 N 
ATOM      2  C   UNL     1       7.229   6.935  17.479  0.00  0.00    +0.000 C 
ATOM      3  O   UNL     1       7.724   6.864  16.362  0.00  0.00    +0.000 OA
ATOM      4  H   UNL     1       6.927   8.028  19.201  0.00  0.00    +0.000 HD
ENDROOT
BRANCH   2   5
ATOM      5  C   UNL     1       6.446   5.846  18.034  0.00  0.00    +0.000 A 
ATOM      6  C   UNL     1       6.905   4.536  18.265  0.00  0.00    +0.000 A 
ATOM      7  N   UNL     1       5.991   3.748  18.832  0.00  0.00    +0.000 NA
ATOM      8  N   UNL     1       4.899   4.540  18.967  0.00  0.00    +0.000 N 
ATOM      9  C   UNL     1       3.657   4.196  19.515  0.00  0.00    +0.000 A 
ATOM     10  C   UNL     1       2.658   5.098  19.506  0.00  0.00    +0.000 A 
ATOM     11  C   UNL     1       3.001   6.436  18.942  0.00  0.00    +0.000 A 
ATOM     12  N   UNL     1       4.152   6.797  18.458  0.00  0.00    +0.000 NA
ATOM     13  C   UNL     1       5.129   5.831  18.458  0.00  0.00    +0.000 A 
ATOM     14  C   UNL     1       1.266   4.829  19.985  0.00  0.00    +0.000 C 
ATOM     15  C   UNL     1       0.984   3.323  20.161  0.00  0.00    +0.000 C 
ATOM     16  C   UNL     1       0.679   2.643  18.821  0.00  0.00    +0.000 C 
ATOM     17  C   UNL     1       2.173   2.656  20.871  0.00  0.00    +0.000 C 
ATOM     18  C   UNL     1       3.485   2.815  20.091  0.00  0.00    +0.000 C 
ENDBRANCH   2   5
BRANCH   1  19
ATOM     19  C   UNL     1       8.206   9.152  17.865  0.00  0.00    +0.000 C 
BRANCH  19  20
ATOM     20  C   UNL     1       9.189   9.631  18.931  0.00  0.00    +0.000 C 
BRANCH  20  24
ATOM     21  C   UNL     1       9.792  13.908  18.559  0.00  0.00    +0.000 A 
ATOM     22  C   UNL     1      10.150  13.035  17.519  0.00  0.00    +0.000 A 
ATOM     23  C   UNL     1       9.960  11.655  17.632  0.00  0.00    +0.000 A 
ATOM     24  C   UNL     1       9.457  11.112  18.813  0.00  0.00    +0.000 A 
ATOM     25  C   UNL     1       9.171  11.976  19.878  0.00  0.00    +0.000 A 
ATOM     26  C   UNL     1       9.338  13.368  19.772  0.00  0.00    +0.000 A 
BRANCH  21  28
ATOM     27  C   UNL     1       8.786  15.915  17.801  0.00  0.00    +0.000 C 
ATOM     28  O   UNL     1       9.901  15.266  18.413  0.00  0.00    +0.000 OA
ENDBRANCH  21  28
BRANCH  26  29
ATOM     29  O   UNL     1       8.991  14.008  20.932  0.00  0.00    +0.000 OA
ATOM     30  C   UNL     1       7.656  14.448  21.117  0.00  0.00    +0.000 C 
ENDBRANCH  26  29
ENDBRANCH  20  24
ENDBRANCH  19  20
ENDBRANCH   1  19
TORSDOF 6
ENDMDL
MODEL 4
REMARK VINA RESULT:      -8.0      1.515      2.320
REMARK  Name = 
REMARK  9 active torsions:
REMARK  status: ('A' for Active; 'I' for Inactive)
REMARK    1  A    between atoms: C_1  and  O_2
REMARK    2  A    between atoms: O_2  and  C_3
REMARK    3  A    between atoms: C_6  and  C_7
REMARK    4  A    between atoms: C_7  and  C_8
REMARK    5  A    between atoms: C_8  and  N_9
REMARK    6  A    between atoms: C_10  and  C_12
REMARK    7  A    between atoms: C_22  and  C_23
REMARK    8  A    between atoms: C_27  and  O_28
REMARK    9  A    between atoms: O_28  and  C_29
REMARK                            x       y       z     vdW  Elec       q    Type
REMARK                         _______ _______ _______ _____ _____    ______ ____
ROOT
ATOM      1  N   UNL     1       6.959   8.637  17.714  0.00  0.00    +0.000 N 
ATOM      2  C   UNL     1       6.815   7.327  17.308  0.00  0.00    +0.000 C 
ATOM      3  O   UNL     1       7.733   6.684  16.815  0.00  0.00    +0.000 OA
ATOM      4  H   UNL     1       6.141   9.113  18.087  0.00  0.00    +0.000 HD
ENDROOT
BRANCH   2   5
ATOM      5  C   UNL     1       5.507   6.739  17.525  0.00  0.00    +0.000 A 
ATOM      6  C   UNL     1       4.276   7.299  17.135  0.00  0.00    +0.000 A 
ATOM      7  N   UNL     1       3.229   6.522  17.412  0.00  0.00    +0.000 NA
ATOM      8  N   UNL     1       3.768   5.431  18.011  0.00  0.00    +0.000 N 
ATOM      9  C   UNL     1       3.095   4.304  18.496  0.00  0.00    +0.000 A 
ATOM     10  C   UNL     1       3.789   3.338  19.127  0.00  0.00    +0.000 A 
ATOM     11  C   UNL     1       5.265   3.550  19.203  0.00  0.00    +0.000 A 
ATOM     12  N   UNL     1       5.923   4.567  18.732  0.00  0.00    +0.000 NA
ATOM     13  C   UNL     1       5.165   5.541  18.127  0.00  0.00    +0.000 A 
ATOM     14  C   UNL     1       3.179   2.127  19.761  0.00  0.00    +0.000 C 
ATOM     15  C   UNL     1       1.653   2.259  19.934  0.00  0.00    +0.000 C 
ATOM     16  C   UNL     1       1.293   3.109  21.160  0.00  0.00    +0.000 C 
ATOM     17  C   UNL     1       1.035   2.836  18.651  0.00  0.00    +0.000 C 
ATOM     18  C   UNL     1       1.603   4.218  18.297  0.00  0.00    +0.000 C 
ENDBRANCH   2   5
BRANCH   1  19
ATOM     19  C   UNL     1       8.240   9.303  17.595  0.00  0.00    +0.000 C 
BRANCH  19  20
ATOM     20  C   UNL     1       9.022   9.342  18.907  0.00  0.00    +0.000 C 
BRANCH  20  24
ATOM     21  C   UNL     1       9.895  13.407  20.132  0.00  0.00    +0.000 A 
ATOM     22  C   UNL     1      10.038  12.336  21.030  0.00  0.00    +0.000 A 
ATOM     23  C   UNL     1       9.758  11.023  20.643  0.00  0.00    +0.000 A 
ATOM     24  C   UNL     1       9.273  10.759  19.362  0.00  0.00    +0.000 A 
ATOM     25  C   UNL     1       9.058  11.836  18.494  0.00  0.00    +0.000 A 
ATOM     26  C   UNL     1       9.355  13.160  18.861  0.00  0.00    +0.000 A 
BRANCH  21  28
ATOM     27  C   UNL     1      11.462  15.171  19.912  0.00  0.00    +0.000 C 
ATOM     28  O   UNL     1      10.251  14.682  20.489  0.00  0.00    +0.000 OA
ENDBRANCH  21  28
BRANCH  26  29
ATOM     29  O   UNL     1       9.070  14.041  17.853  0.00  0.00    +0.000 OA
ATOM     30  C   UNL     1       7.909  14.850  17.936  0.00  0.00    +0.000 C 
ENDBRANCH  26  29
ENDBRANCH  20  24
ENDBRANCH  19  20
ENDBRANCH   1  19
TORSDOF 6
ENDMDL
MODEL 5
REMARK VINA RESULT:      -8.0      6.087      9.416
REMARK  Name = 
REMARK  9 active torsions:
REMARK  status: ('A' for Active; 'I' for Inactive)
REMARK    1  A    between atoms: C_1  and  O_2
REMARK    2  A    between atoms: O_2  and  C_3
REMARK    3  A    between atoms: C_6  and  C_7
REMARK    4  A    between atoms: C_7  and  C_8
REMARK    5  A    between atoms: C_8  and  N_9
REMARK    6  A    between atoms: C_10  and  C_12
REMARK    7  A    between atoms: C_22  and  C_23
REMARK    8  A    between atoms: C_27  and  O_28
REMARK    9  A    between atoms: O_28  and  C_29
REMARK                            x       y       z     vdW  Elec       q    Type
REMARK                         _______ _______ _______ _____ _____    ______ ____
ROOT
ATOM      1  N   UNL     1       1.569   8.561  19.041  0.00  0.00    +0.000 N 
ATOM      2  C   UNL     1       1.202   9.723  18.397  0.00  0.00    +0.000 C 
ATOM      3  O   UNL     1       1.844  10.194  17.467  0.00  0.00    +0.000 OA
ATOM      4  H   UNL     1       1.000   8.250  19.825  0.00  0.00    +0.000 HD
ENDROOT
BRANCH   2   5
ATOM      5  C   UNL     1      -0.017  10.351  18.872  0.00  0.00    +0.000 A 
ATOM      6  C   UNL     1      -0.196  10.958  20.130  0.00  0.00    +0.000 A 
ATOM      7  N   UNL     1      -1.401  11.504  20.287  0.00  0.00    +0.000 NA
ATOM      8  N   UNL     1      -2.045  11.243  19.122  0.00  0.00    +0.000 N 
ATOM      9  C   UNL     1      -3.349  11.607  18.767  0.00  0.00    +0.000 A 
ATOM     10  C   UNL     1      -3.851  11.202  17.585  0.00  0.00    +0.000 A 
ATOM     11  C   UNL     1      -2.916  10.424  16.720  0.00  0.00    +0.000 A 
ATOM     12  N   UNL     1      -1.690  10.101  17.006  0.00  0.00    +0.000 NA
ATOM     13  C   UNL     1      -1.236  10.508  18.237  0.00  0.00    +0.000 A 
ATOM     14  C   UNL     1      -5.253  11.454  17.125  0.00  0.00    +0.000 C 
ATOM     15  C   UNL     1      -6.176  11.911  18.272  0.00  0.00    +0.000 C 
ATOM     16  C   UNL     1      -6.645  10.728  19.128  0.00  0.00    +0.000 C 
ATOM     17  C   UNL     1      -5.456  12.968  19.124  0.00  0.00    +0.000 C 
ATOM     18  C   UNL     1      -4.151  12.439  19.735  0.00  0.00    +0.000 C 
ENDBRANCH   2   5
BRANCH   1  19
ATOM     19  C   UNL     1       2.738   7.823  18.609  0.00  0.00    +0.000 C 
BRANCH  19  20
ATOM     20  C   UNL     1       2.539   6.309  18.636  0.00  0.00    +0.000 C 
BRANCH  20  24
ATOM     21  C   UNL     1       5.543   4.330  16.217  0.00  0.00    +0.000 A 
ATOM     22  C   UNL     1       4.406   3.638  16.664  0.00  0.00    +0.000 A 
ATOM     23  C   UNL     1       3.434   4.269  17.445  0.00  0.00    +0.000 A 
ATOM     24  C   UNL     1       3.606   5.594  17.844  0.00  0.00    +0.000 A 
ATOM     25  C   UNL     1       4.777   6.260  17.460  0.00  0.00    +0.000 A 
ATOM     26  C   UNL     1       5.754   5.646  16.657  0.00  0.00    +0.000 A 
BRANCH  21  28
ATOM     27  C   UNL     1       6.325   4.058  13.996  0.00  0.00    +0.000 C 
ATOM     28  O   UNL     1       6.452   3.734  15.382  0.00  0.00    +0.000 OA
ENDBRANCH  21  28
BRANCH  26  29
ATOM     29  O   UNL     1       6.804   6.487  16.406  0.00  0.00    +0.000 OA
ATOM     30  C   UNL     1       7.383   7.225  17.469  0.00  0.00    +0.000 C 
ENDBRANCH  26  29
ENDBRANCH  20  24
ENDBRANCH  19  20
ENDBRANCH   1  19
TORSDOF 6
ENDMDL
MODEL 6
REMARK VINA RESULT:      -8.0      7.153     11.122
REMARK  Name = 
REMARK  9 active torsions:
REMARK  status: ('A' for Active; 'I' for Inactive)
REMARK    1  A    between atoms: C_1  and  O_2
REMARK    2  A    between atoms: O_2  and  C_3
REMARK    3  A    between atoms: C_6  and  C_7
REMARK    4  A    between atoms: C_7  and  C_8
REMARK    5  A    between atoms: C_8  and  N_9
REMARK    6  A    between atoms: C_10  and  C_12
REMARK    7  A    between atoms: C_22  and  C_23
REMARK    8  A    between atoms: C_27  and  O_28
REMARK    9  A    between atoms: O_28  and  C_29
REMARK                            x       y       z     vdW  Elec       q    Type
REMARK                         _______ _______ _______ _____ _____    ______ ____
ROOT
ATOM      1  N   UNL     1       0.755   9.305  18.357  0.00  0.00    +0.000 N 
ATOM      2  C   UNL     1       0.211  10.569  18.449  0.00  0.00    +0.000 C 
ATOM      3  O   UNL     1       0.876  11.556  18.734  0.00  0.00    +0.000 OA
ATOM      4  H   UNL     1       0.131   8.532  18.145  0.00  0.00    +0.000 HD
ENDROOT
BRANCH   2   5
ATOM      5  C   UNL     1      -1.207  10.668  18.158  0.00  0.00    +0.000 A 
ATOM      6  C   UNL     1      -1.880  10.024  17.103  0.00  0.00    +0.000 A 
ATOM      7  N   UNL     1      -3.194  10.247  17.098  0.00  0.00    +0.000 NA
ATOM      8  N   UNL     1      -3.401  11.067  18.158  0.00  0.00    +0.000 N 
ATOM      9  C   UNL     1      -4.617  11.600  18.601  0.00  0.00    +0.000 A 
ATOM     10  C   UNL     1      -4.626  12.457  19.639  0.00  0.00    +0.000 A 
ATOM     11  C   UNL     1      -3.298  12.722  20.268  0.00  0.00    +0.000 A 
ATOM     12  N   UNL     1      -2.158  12.217  19.903  0.00  0.00    +0.000 NA
ATOM     13  C   UNL     1      -2.197  11.375  18.818  0.00  0.00    +0.000 A 
ATOM     14  C   UNL     1      -5.845  13.156  20.155  0.00  0.00    +0.000 C 
ATOM     15  C   UNL     1      -7.029  13.079  19.170  0.00  0.00    +0.000 C 
ATOM     16  C   UNL     1      -6.892  14.105  18.039  0.00  0.00    +0.000 C 
ATOM     17  C   UNL     1      -7.150  11.650  18.620  0.00  0.00    +0.000 C 
ATOM     18  C   UNL     1      -5.881  11.195  17.886  0.00  0.00    +0.000 C 
ENDBRANCH   2   5
BRANCH   1  19
ATOM     19  C   UNL     1       2.173   9.103  18.572  0.00  0.00    +0.000 C 
BRANCH  19  20
ATOM     20  C   UNL     1       2.719   7.866  17.862  0.00  0.00    +0.000 C 
BRANCH  20  24
ATOM     21  C   UNL     1       1.495   4.250  19.917  0.00  0.00    +0.000 A 
ATOM     22  C   UNL     1       1.763   5.430  20.630  0.00  0.00    +0.000 A 
ATOM     23  C   UNL     1       2.159   6.599  19.975  0.00  0.00    +0.000 A 
ATOM     24  C   UNL     1       2.350   6.598  18.593  0.00  0.00    +0.000 A 
ATOM     25  C   UNL     1       2.156   5.400  17.893  0.00  0.00    +0.000 A 
ATOM     26  C   UNL     1       1.738   4.222  18.535  0.00  0.00    +0.000 A 
BRANCH  21  28
ATOM     27  C   UNL     1       1.721   2.758  21.744  0.00  0.00    +0.000 C 
ATOM     28  O   UNL     1       1.026   3.130  20.553  0.00  0.00    +0.000 OA
ENDBRANCH  21  28
BRANCH  26  29
ATOM     29  O   UNL     1       1.610   3.183  17.652  0.00  0.00    +0.000 OA
ATOM     30  C   UNL     1       2.535   2.110  17.694  0.00  0.00    +0.000 C 
ENDBRANCH  26  29
ENDBRANCH  20  24
ENDBRANCH  19  20
ENDBRANCH   1  19
TORSDOF 6
ENDMDL
MODEL 7
REMARK VINA RESULT:      -7.9      4.212      8.042
REMARK  Name = 
REMARK  9 active torsions:
REMARK  status: ('A' for Active; 'I' for Inactive)
REMARK    1  A    between atoms: C_1  and  O_2
REMARK    2  A    between atoms: O_2  and  C_3
REMARK    3  A    between atoms: C_6  and  C_7
REMARK    4  A    between atoms: C_7  and  C_8
REMARK    5  A    between atoms: C_8  and  N_9
REMARK    6  A    between atoms: C_10  and  C_12
REMARK    7  A    between atoms: C_22  and  C_23
REMARK    8  A    between atoms: C_27  and  O_28
REMARK    9  A    between atoms: O_28  and  C_29
REMARK                            x       y       z     vdW  Elec       q    Type
REMARK                         _______ _______ _______ _____ _____    ______ ____
ROOT
ATOM      1  N   UNL     1       3.160   6.228  19.788  0.00  0.00    +0.000 N 
ATOM      2  C   UNL     1       2.434   6.611  18.680  0.00  0.00    +0.000 C 
ATOM      3  O   UNL     1       2.105   5.824  17.801  0.00  0.00    +0.000 OA
ATOM      4  H   UNL     1       3.420   6.946  20.459  0.00  0.00    +0.000 HD
ENDROOT
BRANCH   2   5
ATOM      5  C   UNL     1       2.054   8.010  18.627  0.00  0.00    +0.000 A 
ATOM      6  C   UNL     1       2.230   8.871  17.527  0.00  0.00    +0.000 A 
ATOM      7  N   UNL     1       1.743  10.095  17.730  0.00  0.00    +0.000 NA
ATOM      8  N   UNL     1       1.248  10.056  18.992  0.00  0.00    +0.000 N 
ATOM      9  C   UNL     1       0.618  11.091  19.695  0.00  0.00    +0.000 A 
ATOM     10  C   UNL     1       0.247  10.893  20.974  0.00  0.00    +0.000 A 
ATOM     11  C   UNL     1       0.507   9.527  21.516  0.00  0.00    +0.000 A 
ATOM     12  N   UNL     1       1.058   8.536  20.880  0.00  0.00    +0.000 NA
ATOM     13  C   UNL     1       1.448   8.799  19.590  0.00  0.00    +0.000 A 
ATOM     14  C   UNL     1      -0.358  11.939  21.856  0.00  0.00    +0.000 C 
ATOM     15  C   UNL     1      -0.196  13.360  21.280  0.00  0.00    +0.000 C 
ATOM     16  C   UNL     1       1.208  13.921  21.541  0.00  0.00    +0.000 C 
ATOM     17  C   UNL     1      -0.525  13.350  19.779  0.00  0.00    +0.000 C 
ATOM     18  C   UNL     1       0.384  12.400  18.986  0.00  0.00    +0.000 C 
ENDBRANCH   2   5
BRANCH   1  19
ATOM     19  C   UNL     1       3.543   4.843  19.969  0.00  0.00    +0.000 C 
BRANCH  19  20
ATOM     20  C   UNL     1       5.046   4.610  19.833  0.00  0.00    +0.000 C 
BRANCH  20  24
ATOM     21  C   UNL     1       6.243   5.115  15.698  0.00  0.00    +0.000 A 
ATOM     22  C   UNL     1       5.369   4.082  16.076  0.00  0.00    +0.000 A 
ATOM     23  C   UNL     1       4.980   3.912  17.407  0.00  0.00    +0.000 A 
ATOM     24  C   UNL     1       5.501   4.740  18.400  0.00  0.00    +0.000 A 
ATOM     25  C   UNL     1       6.431   5.721  18.032  0.00  0.00    +0.000 A 
ATOM     26  C   UNL     1       6.817   5.918  16.695  0.00  0.00    +0.000 A 
BRANCH  21  28
ATOM     27  C   UNL     1       6.563   4.170  13.548  0.00  0.00    +0.000 C 
ATOM     28  O   UNL     1       6.556   5.331  14.381  0.00  0.00    +0.000 OA
ENDBRANCH  21  28
BRANCH  26  29
ATOM     29  O   UNL     1       7.728   6.932  16.575  0.00  0.00    +0.000 OA
ATOM     30  C   UNL     1       7.785   7.944  17.566  0.00  0.00    +0.000 C 
ENDBRANCH  26  29
ENDBRANCH  20  24
ENDBRANCH  19  20
ENDBRANCH   1  19
TORSDOF 6
ENDMDL
MODEL 8
REMARK VINA RESULT:      -7.9      7.064     10.432
REMARK  Name = 
REMARK  9 active torsions:
REMARK  status: ('A' for Active; 'I' for Inactive)
REMARK    1  A    between atoms: C_1  and  O_2
REMARK    2  A    between atoms: O_2  and  C_3
REMARK    3  A    between atoms: C_6  and  C_7
REMARK    4  A    between atoms: C_7  and  C_8
REMARK    5  A    between atoms: C_8  and  N_9
REMARK    6  A    between atoms: C_10  and  C_12
REMARK    7  A    between atoms: C_22  and  C_23
REMARK    8  A    between atoms: C_27  and  O_28
REMARK    9  A    between atoms: O_28  and  C_29
REMARK                            x       y       z     vdW  Elec       q    Type
REMARK                         _______ _______ _______ _____ _____    ______ ____
ROOT
ATOM      1  N   UNL     1       0.782   9.308  17.636  0.00  0.00    +0.000 N 
ATOM      2  C   UNL     1       0.093  10.181  18.451  0.00  0.00    +0.000 C 
ATOM      3  O   UNL     1       0.608  10.729  19.417  0.00  0.00    +0.000 OA
ATOM      4  H   UNL     1       0.275   8.870  16.871  0.00  0.00    +0.000 HD
ENDROOT
BRANCH   2   5
ATOM      5  C   UNL     1      -1.287  10.436  18.081  0.00  0.00    +0.000 A 
ATOM      6  C   UNL     1      -1.944   9.924  16.946  0.00  0.00    +0.000 A 
ATOM      7  N   UNL     1      -3.227  10.275  16.874  0.00  0.00    +0.000 NA
ATOM      8  N   UNL     1      -3.428  11.049  17.970  0.00  0.00    +0.000 N 
ATOM      9  C   UNL     1      -4.615  11.672  18.370  0.00  0.00    +0.000 A 
ATOM     10  C   UNL     1      -4.614  12.465  19.459  0.00  0.00    +0.000 A 
ATOM     11  C   UNL     1      -3.312  12.560  20.184  0.00  0.00    +0.000 A 
ATOM     12  N   UNL     1      -2.203  11.967  19.859  0.00  0.00    +0.000 NA
ATOM     13  C   UNL     1      -2.248  11.198  18.722  0.00  0.00    +0.000 A 
ATOM     14  C   UNL     1      -5.793  13.249  19.942  0.00  0.00    +0.000 C 
ATOM     15  C   UNL     1      -6.909  13.346  18.883  0.00  0.00    +0.000 C 
ATOM     16  C   UNL     1      -6.599  14.418  17.830  0.00  0.00    +0.000 C 
ATOM     17  C   UNL     1      -7.128  11.970  18.235  0.00  0.00    +0.000 C 
ATOM     18  C   UNL     1      -5.860  11.435  17.554  0.00  0.00    +0.000 C 
ENDBRANCH   2   5
BRANCH   1  19
ATOM     19  C   UNL     1       2.181   9.027  17.883  0.00  0.00    +0.000 C 
BRANCH  19  20
ATOM     20  C   UNL     1       2.403   7.775  18.729  0.00  0.00    +0.000 C 
BRANCH  20  24
ATOM     21  C   UNL     1       4.691   4.703  16.699  0.00  0.00    +0.000 A 
ATOM     22  C   UNL     1       5.057   6.056  16.606  0.00  0.00    +0.000 A 
ATOM     23  C   UNL     1       4.324   7.052  17.257  0.00  0.00    +0.000 A 
ATOM     24  C   UNL     1       3.173   6.721  17.971  0.00  0.00    +0.000 A 
ATOM     25  C   UNL     1       2.766   5.381  17.999  0.00  0.00    +0.000 A 
ATOM     26  C   UNL     1       3.504   4.366  17.367  0.00  0.00    +0.000 A 
BRANCH  21  28
ATOM     27  C   UNL     1       6.059   4.054  14.876  0.00  0.00    +0.000 C 
ATOM     28  O   UNL     1       5.459   3.722  16.129  0.00  0.00    +0.000 OA
ENDBRANCH  21  28
BRANCH  26  29
ATOM     29  O   UNL     1       2.921   3.138  17.532  0.00  0.00    +0.000 OA
ATOM     30  C   UNL     1       3.504   2.199  18.419  0.00  0.00    +0.000 C 
ENDBRANCH  26  29
ENDBRANCH  20  24
ENDBRANCH  19  20
ENDBRANCH   1  19
TORSDOF 6
ENDMDL
MODEL 9
REMARK VINA RESULT:      -7.8      6.694     10.159
REMARK  Name = 
REMARK  9 active torsions:
REMARK  status: ('A' for Active; 'I' for Inactive)
REMARK    1  A    between atoms: C_1  and  O_2
REMARK    2  A    between atoms: O_2  and  C_3
REMARK    3  A    between atoms: C_6  and  C_7
REMARK    4  A    between atoms: C_7  and  C_8
REMARK    5  A    between atoms: C_8  and  N_9
REMARK    6  A    between atoms: C_10  and  C_12
REMARK    7  A    between atoms: C_22  and  C_23
REMARK    8  A    between atoms: C_27  and  O_28
REMARK    9  A    between atoms: O_28  and  C_29
REMARK                            x       y       z     vdW  Elec       q    Type
REMARK                         _______ _______ _______ _____ _____    ______ ____
ROOT
ATOM      1  N   UNL     1       0.748   9.582  18.584  0.00  0.00    +0.000 N 
ATOM      2  C   UNL     1       0.718  10.948  18.772  0.00  0.00    +0.000 C 
ATOM      3  O   UNL     1       1.694  11.663  18.581  0.00  0.00    +0.000 OA
ATOM      4  H   UNL     1      -0.095   9.054  18.793  0.00  0.00    +0.000 HD
ENDROOT
BRANCH   2   5
ATOM      5  C   UNL     1      -0.557  11.500  19.188  0.00  0.00    +0.000 A 
ATOM      6  C   UNL     1      -0.748  12.473  20.188  0.00  0.00    +0.000 A 
ATOM      7  N   UNL     1      -2.021  12.840  20.332  0.00  0.00    +0.000 NA
ATOM      8  N   UNL     1      -2.694  12.090  19.426  0.00  0.00    +0.000 N 
ATOM      9  C   UNL     1      -4.070  12.093  19.168  0.00  0.00    +0.000 A 
ATOM     10  C   UNL     1      -4.578  11.225  18.273  0.00  0.00    +0.000 A 
ATOM     11  C   UNL     1      -3.582  10.352  17.584  0.00  0.00    +0.000 A 
ATOM     12  N   UNL     1      -2.297  10.349  17.776  0.00  0.00    +0.000 NA
ATOM     13  C   UNL     1      -1.832  11.228  18.723  0.00  0.00    +0.000 A 
ATOM     14  C   UNL     1      -6.035  11.073  17.967  0.00  0.00    +0.000 C 
ATOM     15  C   UNL     1      -6.932  11.751  19.023  0.00  0.00    +0.000 C 
ATOM     16  C   UNL     1      -7.082  10.885  20.279  0.00  0.00    +0.000 C 
ATOM     17  C   UNL     1      -6.369  13.140  19.363  0.00  0.00    +0.000 C 
ATOM     18  C   UNL     1      -4.938  13.073  19.915  0.00  0.00    +0.000 C 
ENDBRANCH   2   5
BRANCH   1  19
ATOM     19  C   UNL     1       1.956   8.936  18.114  0.00  0.00    +0.000 C 
BRANCH  19  20
ATOM     20  C   UNL     1       2.296   7.662  18.885  0.00  0.00    +0.000 C 
BRANCH  20  24
ATOM     21  C   UNL     1       4.689   4.853  16.610  0.00  0.00    +0.000 A 
ATOM     22  C   UNL     1       4.968   6.229  16.579  0.00  0.00    +0.000 A 
ATOM     23  C   UNL     1       4.200   7.141  17.309  0.00  0.00    +0.000 A 
ATOM     24  C   UNL     1       3.100   6.700  18.043  0.00  0.00    +0.000 A 
ATOM     25  C   UNL     1       2.777   5.338  18.011  0.00  0.00    +0.000 A 
ATOM     26  C   UNL     1       3.551   4.406  17.299  0.00  0.00    +0.000 A 
BRANCH  21  28
ATOM     27  C   UNL     1       6.844   4.370  15.751  0.00  0.00    +0.000 C 
ATOM     28  O   UNL     1       5.494   3.954  15.960  0.00  0.00    +0.000 OA
ENDBRANCH  21  28
BRANCH  26  29
ATOM     29  O   UNL     1       3.051   3.137  17.416  0.00  0.00    +0.000 OA
ATOM     30  C   UNL     1       3.566   2.270  18.412  0.00  0.00    +0.000 C 
ENDBRANCH  26  29
ENDBRANCH  20  24
ENDBRANCH  19  20
ENDBRANCH   1  19
TORSDOF 6
ENDMDL
