MODEL 1
REMARK VINA RESULT:      -9.1      0.000      0.000
REMARK  Name = 
REMARK  4 active torsions:
REMARK  status: ('A' for Active; 'I' for Inactive)
REMARK    1  A    between atoms: C_2  and  C_3
REMARK    2  A    between atoms: C_2  and  C_22
REMARK    3  A    between atoms: C_9  and  C_10
REMARK    4  A    between atoms: C_10  and  C_11
REMARK                            x       y       z     vdW  Elec       q    Type
REMARK                         _______ _______ _______ _____ _____    ______ ____
ROOT
ATOM      1  C   UNL     1       6.621   5.655  17.931  0.00  0.00    +0.000 C 
ATOM      2  O   UNL     1       6.871   6.852  17.843  0.00  0.00    +0.000 OA
ATOM      3  N   UNL     1       5.591   5.123  18.702  0.00  0.00    +0.000 N 
ATOM      4  C   UNL     1       5.354   3.697  18.912  0.00  0.00    +0.000 C 
ATOM      5  C   UNL     1       3.939   3.343  18.459  0.00  0.00    +0.000 C 
ATOM      6  O   UNL     1       2.988   4.119  19.201  0.00  0.00    +0.000 OA
ATOM      7  C   UNL     1       3.143   5.537  18.957  0.00  0.00    +0.000 C 
ATOM      8  C   UNL     1       4.585   5.996  19.313  0.00  0.00    +0.000 C 
ENDROOT
BRANCH   1  10
ATOM      9  O   UNL     1       8.341   4.080  17.541  0.00  0.00    +0.000 OA
ATOM     10  C   UNL     1       7.396   4.687  17.041  0.00  0.00    +0.000 C 
BRANCH  10  11
ATOM     11  C   UNL     1       6.983   4.566  15.667  0.00  0.00    +0.000 A 
ATOM     12  C   UNL     1       5.997   3.772  15.104  0.00  0.00    +0.000 A 
ATOM     13  C   UNL     1       6.034   3.996  13.709  0.00  0.00    +0.000 A 
ATOM     14  C   UNL     1       7.040   4.909  13.502  0.00  0.00    +0.000 A 
ATOM     15  O   UNL     1       7.623   5.262  14.678  0.00  0.00    +0.000 OA
ENDBRANCH  10  11
ENDBRANCH   1  10
BRANCH   7  16
ATOM     16  C   UNL     1       2.118   6.281  19.833  0.00  0.00    +0.000 C 
BRANCH  16  17
ATOM     17  C   UNL     1       1.881   7.734  19.441  0.00  0.00    +0.000 A 
ATOM     18  C   UNL     1       2.281   8.147  18.156  0.00  0.00    +0.000 A 
ATOM     19  C   UNL     1       2.033   9.441  17.707  0.00  0.00    +0.000 A 
ATOM     20  C   UNL     1       1.396  10.353  18.537  0.00  0.00    +0.000 A 
ATOM     21  C   UNL     1       1.011   9.990  19.835  0.00  0.00    +0.000 A 
ATOM     22  C   UNL     1       0.388  10.933  20.667  0.00  0.00    +0.000 A 
ATOM     23  C   UNL     1       0.001  10.601  21.963  0.00  0.00    +0.000 A 
ATOM     24  C   UNL     1       0.228   9.320  22.442  0.00  0.00    +0.000 A 
ATOM     25  C   UNL     1       0.846   8.366  21.627  0.00  0.00    +0.000 A 
ATOM     26  C   UNL     1       1.254   8.672  20.308  0.00  0.00    +0.000 A 
ENDBRANCH  16  17
ENDBRANCH   7  16
TORSDOF 4
ENDMDL
MODEL 2
REMARK VINA RESULT:      -8.0      3.933      8.441
REMARK  Name = 
REMARK  4 active torsions:
REMARK  status: ('A' for Active; 'I' for Inactive)
REMARK    1  A    between atoms: C_2  and  C_3
REMARK    2  A    between atoms: C_2  and  C_22
REMARK    3  A    between atoms: C_9  and  C_10
REMARK    4  A    between atoms: C_10  and  C_11
REMARK                            x       y       z     vdW  Elec       q    Type
REMARK                         _______ _______ _______ _____ _____    ______ ____
ROOT
ATOM      1  C   UNL     1      -0.320  10.403  20.372  0.00  0.00    +0.000 C 
ATOM      2  O   UNL     1      -0.875   9.959  21.371  0.00  0.00    +0.000 OA
ATOM      3  N   UNL     1       0.887   9.928  19.868  0.00  0.00    +0.000 N 
ATOM      4  C   UNL     1       1.619  10.521  18.753  0.00  0.00    +0.000 C 
ATOM      5  C   UNL     1       1.825   9.473  17.661  0.00  0.00    +0.000 C 
ATOM      6  O   UNL     1       2.552   8.357  18.195  0.00  0.00    +0.000 OA
ATOM      7  C   UNL     1       1.820   7.696  19.254  0.00  0.00    +0.000 C 
ATOM      8  C   UNL     1       1.487   8.698  20.395  0.00  0.00    +0.000 C 
ENDROOT
BRANCH   1  10
ATOM      9  O   UNL     1      -0.797  12.638  19.763  0.00  0.00    +0.000 OA
ATOM     10  C   UNL     1      -1.055  11.456  19.545  0.00  0.00    +0.000 C 
BRANCH  10  11
ATOM     11  C   UNL     1      -2.016  10.994  18.579  0.00  0.00    +0.000 A 
ATOM     12  C   UNL     1      -1.872  10.074  17.552  0.00  0.00    +0.000 A 
ATOM     13  C   UNL     1      -3.108  10.022  16.869  0.00  0.00    +0.000 A 
ATOM     14  C   UNL     1      -3.932  10.912  17.515  0.00  0.00    +0.000 A 
ATOM     15  O   UNL     1      -3.285  11.507  18.551  0.00  0.00    +0.000 OA
ENDBRANCH  10  11
ENDBRANCH   1  10
BRANCH   7  16
ATOM     16  C   UNL     1       2.701   6.553  19.792  0.00  0.00    +0.000 C 
BRANCH  16  17
ATOM     17  C   UNL     1       2.804   5.342  18.874  0.00  0.00    +0.000 A 
ATOM     18  C   UNL     1       1.760   4.397  18.905  0.00  0.00    +0.000 A 
ATOM     19  C   UNL     1       1.754   3.303  18.045  0.00  0.00    +0.000 A 
ATOM     20  C   UNL     1       2.798   3.121  17.147  0.00  0.00    +0.000 A 
ATOM     21  C   UNL     1       3.871   4.021  17.108  0.00  0.00    +0.000 A 
ATOM     22  C   UNL     1       4.928   3.808  16.209  0.00  0.00    +0.000 A 
ATOM     23  C   UNL     1       6.010   4.683  16.153  0.00  0.00    +0.000 A 
ATOM     24  C   UNL     1       6.046   5.786  16.993  0.00  0.00    +0.000 A 
ATOM     25  C   UNL     1       5.002   6.017  17.893  0.00  0.00    +0.000 A 
ATOM     26  C   UNL     1       3.891   5.146  17.978  0.00  0.00    +0.000 A 
ENDBRANCH  16  17
ENDBRANCH   7  16
TORSDOF 4
ENDMDL
MODEL 3
REMARK VINA RESULT:      -7.9      4.224      8.538
REMARK  Name = 
REMARK  4 active torsions:
REMARK  status: ('A' for Active; 'I' for Inactive)
REMARK    1  A    between atoms: C_2  and  C_3
REMARK    2  A    between atoms: C_2  and  C_22
REMARK    3  A    between atoms: C_9  and  C_10
REMARK    4  A    between atoms: C_10  and  C_11
REMARK                            x       y       z     vdW  Elec       q    Type
REMARK                         _______ _______ _______ _____ _____    ______ ____
ROOT
ATOM      1  C   UNL     1      -0.504  11.109  20.213  0.00  0.00    +0.000 C 
ATOM      2  O   UNL     1      -1.080  10.899  21.275  0.00  0.00    +0.000 OA
ATOM      3  N   UNL     1       0.674  10.480  19.822  0.00  0.00    +0.000 N 
ATOM      4  C   UNL     1       1.436  10.804  18.619  0.00  0.00    +0.000 C 
ATOM      5  C   UNL     1       1.582   9.553  17.755  0.00  0.00    +0.000 C 
ATOM      6  O   UNL     1       2.248   8.526  18.503  0.00  0.00    +0.000 OA
ATOM      7  C   UNL     1       1.483   8.124  19.664  0.00  0.00    +0.000 C 
ATOM      8  C   UNL     1       1.207   9.347  20.584  0.00  0.00    +0.000 C 
ENDROOT
BRANCH   1  10
ATOM      9  O   UNL     1      -0.835  13.196  19.152  0.00  0.00    +0.000 OA
ATOM     10  C   UNL     1      -1.182  12.018  19.190  0.00  0.00    +0.000 C 
BRANCH  10  11
ATOM     11  C   UNL     1      -2.197  11.438  18.352  0.00  0.00    +0.000 A 
ATOM     12  C   UNL     1      -2.075  10.559  17.287  0.00  0.00    +0.000 A 
ATOM     13  C   UNL     1      -3.376  10.343  16.779  0.00  0.00    +0.000 A 
ATOM     14  C   UNL     1      -4.215  11.103  17.558  0.00  0.00    +0.000 A 
ATOM     15  O   UNL     1      -3.515  11.771  18.513  0.00  0.00    +0.000 OA
ENDBRANCH  10  11
ENDBRANCH   1  10
BRANCH   7  16
ATOM     16  C   UNL     1       2.301   7.063  20.423  0.00  0.00    +0.000 C 
BRANCH  16  17
ATOM     17  C   UNL     1       2.127   5.638  19.911  0.00  0.00    +0.000 A 
ATOM     18  C   UNL     1       1.146   4.832  20.520  0.00  0.00    +0.000 A 
ATOM     19  C   UNL     1       0.886   3.544  20.059  0.00  0.00    +0.000 A 
ATOM     20  C   UNL     1       1.609   3.032  18.990  0.00  0.00    +0.000 A 
ATOM     21  C   UNL     1       2.615   3.791  18.379  0.00  0.00    +0.000 A 
ATOM     22  C   UNL     1       3.350   3.246  17.314  0.00  0.00    +0.000 A 
ATOM     23  C   UNL     1       4.360   3.976  16.691  0.00  0.00    +0.000 A 
ATOM     24  C   UNL     1       4.643   5.264  17.123  0.00  0.00    +0.000 A 
ATOM     25  C   UNL     1       3.920   5.824  18.180  0.00  0.00    +0.000 A 
ATOM     26  C   UNL     1       2.892   5.108  18.836  0.00  0.00    +0.000 A 
ENDBRANCH  16  17
ENDBRANCH   7  16
TORSDOF 4
ENDMDL
MODEL 4
REMARK VINA RESULT:      -7.7      3.778      8.793
REMARK  Name = 
REMARK  4 active torsions:
REMARK  status: ('A' for Active; 'I' for Inactive)
REMARK    1  A    between atoms: C_2  and  C_3
REMARK    2  A    between atoms: C_2  and  C_22
REMARK    3  A    between atoms: C_9  and  C_10
REMARK    4  A    between atoms: C_10  and  C_11
REMARK                            x       y       z     vdW  Elec       q    Type
REMARK                         _______ _______ _______ _____ _____    ______ ____
ROOT
ATOM      1  C   UNL     1       0.338  11.282  19.699  0.00  0.00    +0.000 C 
ATOM      2  O   UNL     1       0.332  11.952  18.672  0.00  0.00    +0.000 OA
ATOM      3  N   UNL     1       0.497   9.900  19.733  0.00  0.00    +0.000 N 
ATOM      4  C   UNL     1       0.388   9.075  20.934  0.00  0.00    +0.000 C 
ATOM      5  C   UNL     1       1.683   8.291  21.133  0.00  0.00    +0.000 C 
ATOM      6  O   UNL     1       1.929   7.466  19.984  0.00  0.00    +0.000 OA
ATOM      7  C   UNL     1       2.120   8.257  18.787  0.00  0.00    +0.000 C 
ATOM      8  C   UNL     1       0.881   9.160  18.528  0.00  0.00    +0.000 C 
ENDROOT
BRANCH   1  10
ATOM      9  O   UNL     1       1.368  12.425  21.495  0.00  0.00    +0.000 OA
ATOM     10  C   UNL     1       0.303  12.013  21.039  0.00  0.00    +0.000 C 
BRANCH  10  11
ATOM     11  C   UNL     1      -0.973  12.153  21.690  0.00  0.00    +0.000 A 
ATOM     12  C   UNL     1      -1.352  11.823  22.982  0.00  0.00    +0.000 A 
ATOM     13  C   UNL     1      -2.729  12.117  23.095  0.00  0.00    +0.000 A 
ATOM     14  C   UNL     1      -3.112  12.605  21.868  0.00  0.00    +0.000 A 
ATOM     15  O   UNL     1      -2.059  12.632  21.009  0.00  0.00    +0.000 OA
ENDBRANCH  10  11
ENDBRANCH   1  10
BRANCH   7  16
ATOM     16  C   UNL     1       2.323   7.285  17.609  0.00  0.00    +0.000 C 
BRANCH  16  17
ATOM     17  C   UNL     1       3.340   6.179  17.865  0.00  0.00    +0.000 A 
ATOM     18  C   UNL     1       4.704   6.526  17.887  0.00  0.00    +0.000 A 
ATOM     19  C   UNL     1       5.682   5.581  18.183  0.00  0.00    +0.000 A 
ATOM     20  C   UNL     1       5.319   4.268  18.447  0.00  0.00    +0.000 A 
ATOM     21  C   UNL     1       3.975   3.875  18.403  0.00  0.00    +0.000 A 
ATOM     22  C   UNL     1       3.630   2.537  18.652  0.00  0.00    +0.000 A 
ATOM     23  C   UNL     1       2.302   2.119  18.609  0.00  0.00    +0.000 A 
ATOM     24  C   UNL     1       1.301   3.035  18.321  0.00  0.00    +0.000 A 
ATOM     25  C   UNL     1       1.625   4.372  18.074  0.00  0.00    +0.000 A 
ATOM     26  C   UNL     1       2.963   4.829  18.106  0.00  0.00    +0.000 A 
ENDBRANCH  16  17
ENDBRANCH   7  16
TORSDOF 4
ENDMDL
MODEL 5
REMARK VINA RESULT:      -7.7      6.393     10.754
REMARK  Name = 
REMARK  4 active torsions:
REMARK  status: ('A' for Active; 'I' for Inactive)
REMARK    1  A    between atoms: C_2  and  C_3
REMARK    2  A    between atoms: C_2  and  C_22
REMARK    3  A    between atoms: C_9  and  C_10
REMARK    4  A    between atoms: C_10  and  C_11
REMARK                            x       y       z     vdW  Elec       q    Type
REMARK                         _______ _______ _______ _____ _____    ______ ____
ROOT
ATOM      1  C   UNL     1      -5.032  12.294  19.372  0.00  0.00    +0.000 C 
ATOM      2  O   UNL     1      -4.845  12.792  20.477  0.00  0.00    +0.000 OA
ATOM      3  N   UNL     1      -4.019  11.984  18.469  0.00  0.00    +0.000 N 
ATOM      4  C   UNL     1      -4.232  11.502  17.107  0.00  0.00    +0.000 C 
ATOM      5  C   UNL     1      -3.526  10.160  16.924  0.00  0.00    +0.000 C 
ATOM      6  O   UNL     1      -2.123  10.315  17.184  0.00  0.00    +0.000 OA
ATOM      7  C   UNL     1      -1.870  10.718  18.551  0.00  0.00    +0.000 C 
ATOM      8  C   UNL     1      -2.612  12.046  18.873  0.00  0.00    +0.000 C 
ENDROOT
BRANCH   1  10
ATOM      9  O   UNL     1      -7.088  12.577  18.238  0.00  0.00    +0.000 OA
ATOM     10  C   UNL     1      -6.449  11.860  19.006  0.00  0.00    +0.000 C 
BRANCH  10  11
ATOM     11  C   UNL     1      -6.952  10.650  19.600  0.00  0.00    +0.000 A 
ATOM     12  C   UNL     1      -7.759  10.477  20.714  0.00  0.00    +0.000 A 
ATOM     13  C   UNL     1      -7.915   9.084  20.896  0.00  0.00    +0.000 A 
ATOM     14  C   UNL     1      -7.194   8.489  19.889  0.00  0.00    +0.000 A 
ATOM     15  O   UNL     1      -6.606   9.425  19.098  0.00  0.00    +0.000 OA
ENDBRANCH  10  11
ENDBRANCH   1  10
BRANCH   7  16
ATOM     16  C   UNL     1      -0.350  10.906  18.712  0.00  0.00    +0.000 C 
BRANCH  16  17
ATOM     17  C   UNL     1       0.321   9.901  19.640  0.00  0.00    +0.000 A 
ATOM     18  C   UNL     1      -0.021   9.930  21.006  0.00  0.00    +0.000 A 
ATOM     19  C   UNL     1       0.501   8.997  21.898  0.00  0.00    +0.000 A 
ATOM     20  C   UNL     1       1.386   8.028  21.448  0.00  0.00    +0.000 A 
ATOM     21  C   UNL     1       1.777   7.986  20.103  0.00  0.00    +0.000 A 
ATOM     22  C   UNL     1       2.690   7.011  19.672  0.00  0.00    +0.000 A 
ATOM     23  C   UNL     1       3.100   6.950  18.342  0.00  0.00    +0.000 A 
ATOM     24  C   UNL     1       2.597   7.861  17.425  0.00  0.00    +0.000 A 
ATOM     25  C   UNL     1       1.684   8.837  17.835  0.00  0.00    +0.000 A 
ATOM     26  C   UNL     1       1.251   8.929  19.178  0.00  0.00    +0.000 A 
ENDBRANCH  16  17
ENDBRANCH   7  16
TORSDOF 4
ENDMDL
MODEL 6
REMARK VINA RESULT:      -7.6      4.072      8.287
REMARK  Name = 
REMARK  4 active torsions:
REMARK  status: ('A' for Active; 'I' for Inactive)
REMARK    1  A    between atoms: C_2  and  C_3
REMARK    2  A    between atoms: C_2  and  C_22
REMARK    3  A    between atoms: C_9  and  C_10
REMARK    4  A    between atoms: C_10  and  C_11
REMARK                            x       y       z     vdW  Elec       q    Type
REMARK                         _______ _______ _______ _____ _____    ______ ____
ROOT
ATOM      1  C   UNL     1      -0.583  10.701  20.162  0.00  0.00    +0.000 C 
ATOM      2  O   UNL     1      -1.218  10.187  21.077  0.00  0.00    +0.000 OA
ATOM      3  N   UNL     1       0.693  10.303  19.773  0.00  0.00    +0.000 N 
ATOM      4  C   UNL     1       1.508  10.979  18.767  0.00  0.00    +0.000 C 
ATOM      5  C   UNL     1       1.880   9.991  17.663  0.00  0.00    +0.000 C 
ATOM      6  O   UNL     1       2.601   8.886  18.228  0.00  0.00    +0.000 OA
ATOM      7  C   UNL     1       1.794   8.145  19.174  0.00  0.00    +0.000 C 
ATOM      8  C   UNL     1       1.293   9.079  20.311  0.00  0.00    +0.000 C 
ENDROOT
BRANCH   1  10
ATOM      9  O   UNL     1      -1.073  12.937  19.572  0.00  0.00    +0.000 OA
ATOM     10  C   UNL     1      -1.277  11.755  19.304  0.00  0.00    +0.000 C 
BRANCH  10  11
ATOM     11  C   UNL     1      -2.142  11.295  18.250  0.00  0.00    +0.000 A 
ATOM     12  C   UNL     1      -3.488  11.543  18.034  0.00  0.00    +0.000 A 
ATOM     13  C   UNL     1      -3.863  10.810  16.885  0.00  0.00    +0.000 A 
ATOM     14  C   UNL     1      -2.727  10.157  16.468  0.00  0.00    +0.000 A 
ATOM     15  O   UNL     1      -1.679  10.441  17.286  0.00  0.00    +0.000 OA
ENDBRANCH  10  11
ENDBRANCH   1  10
BRANCH   7  16
ATOM     16  C   UNL     1       2.669   7.020  19.758  0.00  0.00    +0.000 C 
BRANCH  16  17
ATOM     17  C   UNL     1       3.004   5.901  18.779  0.00  0.00    +0.000 A 
ATOM     18  C   UNL     1       3.983   6.152  17.798  0.00  0.00    +0.000 A 
ATOM     19  C   UNL     1       4.389   5.154  16.915  0.00  0.00    +0.000 A 
ATOM     20  C   UNL     1       3.815   3.892  16.985  0.00  0.00    +0.000 A 
ATOM     21  C   UNL     1       2.814   3.613  17.926  0.00  0.00    +0.000 A 
ATOM     22  C   UNL     1       2.231   2.337  17.965  0.00  0.00    +0.000 A 
ATOM     23  C   UNL     1       1.231   2.034  18.886  0.00  0.00    +0.000 A 
ATOM     24  C   UNL     1       0.805   3.003  19.783  0.00  0.00    +0.000 A 
ATOM     25  C   UNL     1       1.377   4.278  19.760  0.00  0.00    +0.000 A 
ATOM     26  C   UNL     1       2.391   4.620  18.836  0.00  0.00    +0.000 A 
ENDBRANCH  16  17
ENDBRANCH   7  16
TORSDOF 4
ENDMDL
MODEL 7
REMARK VINA RESULT:      -7.5      4.129      9.116
REMARK  Name = 
REMARK  4 active torsions:
REMARK  status: ('A' for Active; 'I' for Inactive)
REMARK    1  A    between atoms: C_2  and  C_3
REMARK    2  A    between atoms: C_2  and  C_22
REMARK    3  A    between atoms: C_9  and  C_10
REMARK    4  A    between atoms: C_10  and  C_11
REMARK                            x       y       z     vdW  Elec       q    Type
REMARK                         _______ _______ _______ _____ _____    ______ ____
ROOT
ATOM      1  C   UNL     1       1.273  12.945  20.147  0.00  0.00    +0.000 C 
ATOM      2  O   UNL     1       2.427  13.164  20.496  0.00  0.00    +0.000 OA
ATOM      3  N   UNL     1       0.914  12.061  19.133  0.00  0.00    +0.000 N 
ATOM      4  C   UNL     1      -0.443  11.878  18.624  0.00  0.00    +0.000 C 
ATOM      5  C   UNL     1      -0.847  10.413  18.766  0.00  0.00    +0.000 C 
ATOM      6  O   UNL     1       0.072   9.586  18.037  0.00  0.00    +0.000 OA
ATOM      7  C   UNL     1       1.417   9.684  18.565  0.00  0.00    +0.000 C 
ATOM      8  C   UNL     1       1.906  11.159  18.540  0.00  0.00    +0.000 C 
ENDROOT
BRANCH   1  10
ATOM      9  O   UNL     1      -0.033  14.787  20.847  0.00  0.00    +0.000 OA
ATOM     10  C   UNL     1       0.141  13.575  20.955  0.00  0.00    +0.000 C 
BRANCH  10  11
ATOM     11  C   UNL     1      -0.634  12.711  21.805  0.00  0.00    +0.000 A 
ATOM     12  C   UNL     1      -1.918  12.871  22.301  0.00  0.00    +0.000 A 
ATOM     13  C   UNL     1      -2.184  11.756  23.126  0.00  0.00    +0.000 A 
ATOM     14  C   UNL     1      -1.049  10.981  23.089  0.00  0.00    +0.000 A 
ATOM     15  O   UNL     1      -0.103  11.548  22.294  0.00  0.00    +0.000 OA
ENDBRANCH  10  11
ENDBRANCH   1  10
BRANCH   7  16
ATOM     16  C   UNL     1       2.330   8.807  17.688  0.00  0.00    +0.000 C 
BRANCH  16  17
ATOM     17  C   UNL     1       2.749   7.487  18.325  0.00  0.00    +0.000 A 
ATOM     18  C   UNL     1       2.125   7.107  19.528  0.00  0.00    +0.000 A 
ATOM     19  C   UNL     1       2.408   5.883  20.129  0.00  0.00    +0.000 A 
ATOM     20  C   UNL     1       3.330   5.023  19.549  0.00  0.00    +0.000 A 
ATOM     21  C   UNL     1       3.995   5.379  18.368  0.00  0.00    +0.000 A 
ATOM     22  C   UNL     1       4.940   4.505  17.809  0.00  0.00    +0.000 A 
ATOM     23  C   UNL     1       5.620   4.836  16.639  0.00  0.00    +0.000 A 
ATOM     24  C   UNL     1       5.360   6.046  16.012  0.00  0.00    +0.000 A 
ATOM     25  C   UNL     1       4.421   6.928  16.553  0.00  0.00    +0.000 A 
ATOM     26  C   UNL     1       3.715   6.624  17.740  0.00  0.00    +0.000 A 
ENDBRANCH  16  17
ENDBRANCH   7  16
TORSDOF 4
ENDMDL
MODEL 8
REMARK VINA RESULT:      -7.5      1.224      1.388
REMARK  Name = 
REMARK  4 active torsions:
REMARK  status: ('A' for Active; 'I' for Inactive)
REMARK    1  A    between atoms: C_2  and  C_3
REMARK    2  A    between atoms: C_2  and  C_22
REMARK    3  A    between atoms: C_9  and  C_10
REMARK    4  A    between atoms: C_10  and  C_11
REMARK                            x       y       z     vdW  Elec       q    Type
REMARK                         _______ _______ _______ _____ _____    ______ ____
ROOT
ATOM      1  C   UNL     1       5.437   5.488  16.237  0.00  0.00    +0.000 C 
ATOM      2  O   UNL     1       5.278   6.572  15.685  0.00  0.00    +0.000 OA
ATOM      3  N   UNL     1       5.160   5.243  17.578  0.00  0.00    +0.000 N 
ATOM      4  C   UNL     1       5.455   3.995  18.278  0.00  0.00    +0.000 C 
ATOM      5  C   UNL     1       4.169   3.428  18.875  0.00  0.00    +0.000 C 
ATOM      6  O   UNL     1       3.596   4.382  19.780  0.00  0.00    +0.000 OA
ATOM      7  C   UNL     1       3.219   5.605  19.104  0.00  0.00    +0.000 C 
ATOM      8  C   UNL     1       4.448   6.234  18.390  0.00  0.00    +0.000 C 
ENDROOT
BRANCH   1  10
ATOM      9  O   UNL     1       5.530   3.171  15.775  0.00  0.00    +0.000 OA
ATOM     10  C   UNL     1       5.840   4.292  15.377  0.00  0.00    +0.000 C 
BRANCH  10  11
ATOM     11  C   UNL     1       6.574   4.556  14.168  0.00  0.00    +0.000 A 
ATOM     12  C   UNL     1       6.429   4.008  12.904  0.00  0.00    +0.000 A 
ATOM     13  C   UNL     1       7.436   4.576  12.091  0.00  0.00    +0.000 A 
ATOM     14  C   UNL     1       8.136   5.434  12.904  0.00  0.00    +0.000 A 
ATOM     15  O   UNL     1       7.626   5.431  14.163  0.00  0.00    +0.000 OA
ENDBRANCH  10  11
ENDBRANCH   1  10
BRANCH   7  16
ATOM     16  C   UNL     1       2.666   6.577  20.164  0.00  0.00    +0.000 C 
BRANCH  16  17
ATOM     17  C   UNL     1       1.973   7.810  19.597  0.00  0.00    +0.000 A 
ATOM     18  C   UNL     1       2.090   8.059  18.216  0.00  0.00    +0.000 A 
ATOM     19  C   UNL     1       1.427   9.128  17.619  0.00  0.00    +0.000 A 
ATOM     20  C   UNL     1       0.647   9.978  18.392  0.00  0.00    +0.000 A 
ATOM     21  C   UNL     1       0.532   9.783  19.775  0.00  0.00    +0.000 A 
ATOM     22  C   UNL     1      -0.244  10.666  20.541  0.00  0.00    +0.000 A 
ATOM     23  C   UNL     1      -0.371  10.499  21.918  0.00  0.00    +0.000 A 
ATOM     24  C   UNL     1       0.273   9.443  22.545  0.00  0.00    +0.000 A 
ATOM     25  C   UNL     1       1.047   8.551  21.798  0.00  0.00    +0.000 A 
ATOM     26  C   UNL     1       1.200   8.694  20.399  0.00  0.00    +0.000 A 
ENDBRANCH  16  17
ENDBRANCH   7  16
TORSDOF 4
ENDMDL
MODEL 9
REMARK VINA RESULT:      -7.4      3.821      8.820
REMARK  Name = 
REMARK  4 active torsions:
REMARK  status: ('A' for Active; 'I' for Inactive)
REMARK    1  A    between atoms: C_2  and  C_3
REMARK    2  A    between atoms: C_2  and  C_22
REMARK    3  A    between atoms: C_9  and  C_10
REMARK    4  A    between atoms: C_10  and  C_11
REMARK                            x       y       z     vdW  Elec       q    Type
REMARK                         _______ _______ _______ _____ _____    ______ ____
ROOT
ATOM      1  C   UNL     1       0.978  11.893  19.617  0.00  0.00    +0.000 C 
ATOM      2  O   UNL     1       1.138  12.524  18.577  0.00  0.00    +0.000 OA
ATOM      3  N   UNL     1       0.818  10.512  19.680  0.00  0.00    +0.000 N 
ATOM      4  C   UNL     1       0.509   9.761  20.893  0.00  0.00    +0.000 C 
ATOM      5  C   UNL     1       1.589   8.708  21.131  0.00  0.00    +0.000 C 
ATOM      6  O   UNL     1       1.656   7.823  20.002  0.00  0.00    +0.000 OA
ATOM      7  C   UNL     1       2.037   8.523  18.794  0.00  0.00    +0.000 C 
ATOM      8  C   UNL     1       1.040   9.677  18.495  0.00  0.00    +0.000 C 
ENDROOT
BRANCH   1  10
ATOM      9  O   UNL     1       2.220  12.867  21.378  0.00  0.00    +0.000 OA
ATOM     10  C   UNL     1       1.092  12.643  20.941  0.00  0.00    +0.000 C 
BRANCH  10  11
ATOM     11  C   UNL     1      -0.129  13.020  21.602  0.00  0.00    +0.000 A 
ATOM     12  C   UNL     1      -1.123  13.897  21.198  0.00  0.00    +0.000 A 
ATOM     13  C   UNL     1      -2.079  13.944  22.238  0.00  0.00    +0.000 A 
ATOM     14  C   UNL     1      -1.613  13.098  23.215  0.00  0.00    +0.000 A 
ATOM     15  O   UNL     1      -0.434  12.533  22.844  0.00  0.00    +0.000 OA
ENDBRANCH  10  11
ENDBRANCH   1  10
BRANCH   7  16
ATOM     16  C   UNL     1       2.030   7.503  17.639  0.00  0.00    +0.000 C 
BRANCH  16  17
ATOM     17  C   UNL     1       3.162   6.484  17.682  0.00  0.00    +0.000 A 
ATOM     18  C   UNL     1       4.483   6.957  17.559  0.00  0.00    +0.000 A 
ATOM     19  C   UNL     1       5.569   6.091  17.658  0.00  0.00    +0.000 A 
ATOM     20  C   UNL     1       5.357   4.735  17.867  0.00  0.00    +0.000 A 
ATOM     21  C   UNL     1       4.057   4.221  17.963  0.00  0.00    +0.000 A 
ATOM     22  C   UNL     1       3.863   2.844  18.152  0.00  0.00    +0.000 A 
ATOM     23  C   UNL     1       2.582   2.306  18.245  0.00  0.00    +0.000 A 
ATOM     24  C   UNL     1       1.477   3.140  18.154  0.00  0.00    +0.000 A 
ATOM     25  C   UNL     1       1.650   4.514  17.969  0.00  0.00    +0.000 A 
ATOM     26  C   UNL     1       2.937   5.092  17.867  0.00  0.00    +0.000 A 
ENDBRANCH  16  17
ENDBRANCH   7  16
TORSDOF 4
ENDMDL
