MODEL 1
REMARK VINA RESULT:      -8.9      0.000      0.000
REMARK  Name = 
REMARK  6 active torsions:
REMARK  status: ('A' for Active; 'I' for Inactive)
REMARK    1  A    between atoms: C_2  and  C_27
REMARK    2  A    between atoms: N_3  and  C_4
REMARK    3  A    between atoms: C_7  and  C_8
REMARK    4  A    between atoms: C_8  and  C_9
REMARK    5  A    between atoms: C_9  and  N_10
REMARK    6  A    between atoms: C_13  and  C_14
REMARK                            x       y       z     vdW  Elec       q    Type
REMARK                         _______ _______ _______ _____ _____    ______ ____
ROOT
ATOM      1  C   UNL     1       2.307   6.540  20.266  0.00  0.00    +0.000 C 
ENDROOT
BRANCH   1   5
ATOM      2  C   UNL     1       0.910  10.609  19.585  0.00  0.00    +0.000 C 
ATOM      3  C   UNL     1       0.335   9.871  20.796  0.00  0.00    +0.000 C 
ATOM      4  C   UNL     1       1.179   8.647  21.146  0.00  0.00    +0.000 C 
ATOM      5  C   UNL     1       1.352   7.704  19.944  0.00  0.00    +0.000 C 
ATOM      6  C   UNL     1       1.877   8.459  18.717  0.00  0.00    +0.000 C 
ATOM      7  C   UNL     1       1.019   9.673  18.382  0.00  0.00    +0.000 C 
BRANCH   2  10
ATOM      8  O   UNL     1       1.873  13.055  18.563  0.00  0.00    +0.000 OA
ATOM      9  C   UNL     1       0.677  12.927  18.787  0.00  0.00    +0.000 C 
ATOM     10  N   UNL     1       0.100  11.769  19.255  0.00  0.00    +0.000 N 
ATOM     11  H   UNL     1      -0.874  11.767  19.525  0.00  0.00    +0.000 HD
BRANCH   9  12
ATOM     12  C   UNL     1      -0.261  14.049  18.590  0.00  0.00    +0.000 C 
ATOM     13  C   UNL     1      -0.781  14.816  19.796  0.00  0.00    +0.000 C 
ATOM     14  C   UNL     1       0.194  15.431  18.868  0.00  0.00    +0.000 C 
ATOM     15  F   UNL     1      -0.206  16.468  18.054  0.00  0.00    +0.000 F 
ATOM     16  F   UNL     1       1.473  15.712  19.283  0.00  0.00    +0.000 F 
ENDBRANCH   9  12
ENDBRANCH   2  10
ENDBRANCH   1   5
BRANCH   1  17
ATOM     17  C   UNL     1       1.617   5.200  20.552  0.00  0.00    +0.000 C 
BRANCH  17  18
ATOM     18  N   UNL     1       1.971   4.100  19.627  0.00  0.00    +0.000 NA
ATOM     19  C   UNL     1       2.023   4.591  18.241  0.00  0.00    +0.000 C 
ATOM     20  C   UNL     1       2.648   3.612  17.246  0.00  0.00    +0.000 C 
ATOM     21  C   UNL     1       4.042   3.140  17.681  0.00  0.00    +0.000 C 
ATOM     22  C   UNL     1       3.870   2.532  19.087  0.00  0.00    +0.000 C 
ATOM     23  C   UNL     1       3.246   3.517  20.076  0.00  0.00    +0.000 C 
BRANCH  21  24
ATOM     24  C   UNL     1       5.198   4.131  17.557  0.00  0.00    +0.000 A 
ATOM     25  C   UNL     1       5.678   4.770  18.723  0.00  0.00    +0.000 A 
ATOM     26  C   UNL     1       6.773   5.656  18.698  0.00  0.00    +0.000 A 
ATOM     27  C   UNL     1       7.435   5.925  17.504  0.00  0.00    +0.000 A 
ATOM     28  C   UNL     1       6.978   5.292  16.372  0.00  0.00    +0.000 A 
ATOM     29  C   UNL     1       5.908   4.416  16.394  0.00  0.00    +0.000 A 
ATOM     30  O   UNL     1       5.698   3.891  15.153  0.00  0.00    +0.000 OA
ATOM     31  C   UNL     1       6.663   4.596  14.356  0.00  0.00    +0.000 C 
ATOM     32  O   UNL     1       7.527   5.437  15.133  0.00  0.00    +0.000 OA
ENDBRANCH  21  24
ENDBRANCH  17  18
ENDBRANCH   1  17
TORSDOF 6
ENDMDL
MODEL 2
REMARK VINA RESULT:      -8.9      1.030      1.461
REMARK  Name = 
REMARK  6 active torsions:
REMARK  status: ('A' for Active; 'I' for Inactive)
REMARK    1  A    between atoms: C_2  and  C_27
REMARK    2  A    between atoms: N_3  and  C_4
REMARK    3  A    between atoms: C_7  and  C_8
REMARK    4  A    between atoms: C_8  and  C_9
REMARK    5  A    between atoms: C_9  and  N_10
REMARK    6  A    between atoms: C_13  and  C_14
REMARK                            x       y       z     vdW  Elec       q    Type
REMARK                         _______ _______ _______ _____ _____    ______ ____
ROOT
ATOM      1  C   UNL     1       1.969   5.719  20.741  0.00  0.00    +0.000 C 
ENDROOT
BRANCH   1   5
ATOM      2  C   UNL     1       0.953   9.644  19.149  0.00  0.00    +0.000 C 
ATOM      3  C   UNL     1       2.038   8.856  18.413  0.00  0.00    +0.000 C 
ATOM      4  C   UNL     1       2.015   7.382  18.812  0.00  0.00    +0.000 C 
ATOM      5  C   UNL     1       2.121   7.197  20.334  0.00  0.00    +0.000 C 
ATOM      6  C   UNL     1       1.066   8.030  21.071  0.00  0.00    +0.000 C 
ATOM      7  C   UNL     1       1.110   9.498  20.662  0.00  0.00    +0.000 C 
BRANCH   2  10
ATOM      8  O   UNL     1      -1.206  11.450  19.330  0.00  0.00    +0.000 OA
ATOM      9  C   UNL     1      -0.140  11.835  18.872  0.00  0.00    +0.000 C 
ATOM     10  N   UNL     1       0.984  11.046  18.768  0.00  0.00    +0.000 N 
ATOM     11  H   UNL     1       1.797  11.392  18.276  0.00  0.00    +0.000 HD
BRANCH   9  12
ATOM     12  C   UNL     1       0.020  13.208  18.355  0.00  0.00    +0.000 C 
ATOM     13  C   UNL     1      -0.429  14.388  19.204  0.00  0.00    +0.000 C 
ATOM     14  C   UNL     1       1.009  14.109  18.989  0.00  0.00    +0.000 C 
ATOM     15  F   UNL     1       1.758  14.969  18.215  0.00  0.00    +0.000 F 
ATOM     16  F   UNL     1       1.806  13.705  20.033  0.00  0.00    +0.000 F 
ENDBRANCH   9  12
ENDBRANCH   2  10
ENDBRANCH   1   5
BRANCH   1  17
ATOM     17  C   UNL     1       1.007   4.906  19.865  0.00  0.00    +0.000 C 
BRANCH  17  18
ATOM     18  N   UNL     1       1.621   3.766  19.147  0.00  0.00    +0.000 NA
ATOM     19  C   UNL     1       1.881   4.123  17.745  0.00  0.00    +0.000 C 
ATOM     20  C   UNL     1       2.763   3.125  16.991  0.00  0.00    +0.000 C 
ATOM     21  C   UNL     1       4.090   2.852  17.711  0.00  0.00    +0.000 C 
ATOM     22  C   UNL     1       3.719   2.368  19.127  0.00  0.00    +0.000 C 
ATOM     23  C   UNL     1       2.839   3.370  19.874  0.00  0.00    +0.000 C 
BRANCH  21  24
ATOM     24  C   UNL     1       5.157   3.946  17.675  0.00  0.00    +0.000 A 
ATOM     25  C   UNL     1       5.514   4.591  18.881  0.00  0.00    +0.000 A 
ATOM     26  C   UNL     1       6.524   5.571  18.938  0.00  0.00    +0.000 A 
ATOM     27  C   UNL     1       7.220   5.933  17.789  0.00  0.00    +0.000 A 
ATOM     28  C   UNL     1       6.883   5.295  16.619  0.00  0.00    +0.000 A 
ATOM     29  C   UNL     1       5.898   4.326  16.560  0.00  0.00    +0.000 A 
ATOM     30  O   UNL     1       5.802   3.821  15.297  0.00  0.00    +0.000 OA
ATOM     31  C   UNL     1       6.740   4.632  14.572  0.00  0.00    +0.000 C 
ATOM     32  O   UNL     1       7.482   5.524  15.416  0.00  0.00    +0.000 OA
ENDBRANCH  21  24
ENDBRANCH  17  18
ENDBRANCH   1  17
TORSDOF 6
ENDMDL
MODEL 3
REMARK VINA RESULT:      -8.7      2.652      3.022
REMARK  Name = 
REMARK  6 active torsions:
REMARK  status: ('A' for Active; 'I' for Inactive)
REMARK    1  A    between atoms: C_2  and  C_27
REMARK    2  A    between atoms: N_3  and  C_4
REMARK    3  A    between atoms: C_7  and  C_8
REMARK    4  A    between atoms: C_8  and  C_9
REMARK    5  A    between atoms: C_9  and  N_10
REMARK    6  A    between atoms: C_13  and  C_14
REMARK                            x       y       z     vdW  Elec       q    Type
REMARK                         _______ _______ _______ _____ _____    ______ ____
ROOT
ATOM      1  C   UNL     1       2.000   7.134  19.938  0.00  0.00    +0.000 C 
ENDROOT
BRANCH   1   5
ATOM      2  C   UNL     1      -0.567  10.330  21.410  0.00  0.00    +0.000 C 
ATOM      3  C   UNL     1       0.627  10.740  20.545  0.00  0.00    +0.000 C 
ATOM      4  C   UNL     1       1.192   9.544  19.783  0.00  0.00    +0.000 C 
ATOM      5  C   UNL     1       1.552   8.381  20.722  0.00  0.00    +0.000 C 
ATOM      6  C   UNL     1       0.370   8.008  21.624  0.00  0.00    +0.000 C 
ATOM      7  C   UNL     1      -0.175   9.214  22.379  0.00  0.00    +0.000 C 
BRANCH   2  10
ATOM      8  O   UNL     1      -2.457  12.178  20.426  0.00  0.00    +0.000 OA
ATOM      9  C   UNL     1      -1.998  12.330  21.549  0.00  0.00    +0.000 C 
ATOM     10  N   UNL     1      -1.096  11.472  22.137  0.00  0.00    +0.000 N 
ATOM     11  H   UNL     1      -0.672  11.717  23.021  0.00  0.00    +0.000 HD
BRANCH   9  12
ATOM     12  C   UNL     1      -2.368  13.496  22.375  0.00  0.00    +0.000 C 
ATOM     13  C   UNL     1      -3.829  13.904  22.488  0.00  0.00    +0.000 C 
ATOM     14  C   UNL     1      -3.123  13.283  23.631  0.00  0.00    +0.000 C 
ATOM     15  F   UNL     1      -2.840  14.041  24.746  0.00  0.00    +0.000 F 
ATOM     16  F   UNL     1      -3.474  12.030  24.072  0.00  0.00    +0.000 F 
ENDBRANCH   9  12
ENDBRANCH   2  10
ENDBRANCH   1   5
BRANCH   1  17
ATOM     17  C   UNL     1       1.533   5.798  20.530  0.00  0.00    +0.000 C 
BRANCH  17  18
ATOM     18  N   UNL     1       1.869   4.602  19.725  0.00  0.00    +0.000 NA
ATOM     19  C   UNL     1       2.027   4.964  18.309  0.00  0.00    +0.000 C 
ATOM     20  C   UNL     1       2.645   3.866  17.441  0.00  0.00    +0.000 C 
ATOM     21  C   UNL     1       3.981   3.357  17.998  0.00  0.00    +0.000 C 
ATOM     22  C   UNL     1       3.695   2.887  19.438  0.00  0.00    +0.000 C 
ATOM     23  C   UNL     1       3.078   3.989  20.299  0.00  0.00    +0.000 C 
BRANCH  21  24
ATOM     24  C   UNL     1       5.202   4.265  17.860  0.00  0.00    +0.000 A 
ATOM     25  C   UNL     1       5.751   4.852  19.023  0.00  0.00    +0.000 A 
ATOM     26  C   UNL     1       6.906   5.658  18.984  0.00  0.00    +0.000 A 
ATOM     27  C   UNL     1       7.558   5.898  17.778  0.00  0.00    +0.000 A 
ATOM     28  C   UNL     1       7.032   5.315  16.649  0.00  0.00    +0.000 A 
ATOM     29  C   UNL     1       5.903   4.516  16.684  0.00  0.00    +0.000 A 
ATOM     30  O   UNL     1       5.628   4.026  15.441  0.00  0.00    +0.000 OA
ATOM     31  C   UNL     1       6.623   4.673  14.632  0.00  0.00    +0.000 C 
ATOM     32  O   UNL     1       7.562   5.439  15.399  0.00  0.00    +0.000 OA
ENDBRANCH  21  24
ENDBRANCH  17  18
ENDBRANCH   1  17
TORSDOF 6
ENDMDL
MODEL 4
REMARK VINA RESULT:      -8.7      1.133      1.286
REMARK  Name = 
REMARK  6 active torsions:
REMARK  status: ('A' for Active; 'I' for Inactive)
REMARK    1  A    between atoms: C_2  and  C_27
REMARK    2  A    between atoms: N_3  and  C_4
REMARK    3  A    between atoms: C_7  and  C_8
REMARK    4  A    between atoms: C_8  and  C_9
REMARK    5  A    between atoms: C_9  and  N_10
REMARK    6  A    between atoms: C_13  and  C_14
REMARK                            x       y       z     vdW  Elec       q    Type
REMARK                         _______ _______ _______ _____ _____    ______ ____
ROOT
ATOM      1  C   UNL     1       2.017   5.475  20.824  0.00  0.00    +0.000 C 
ENDROOT
BRANCH   1   5
ATOM      2  C   UNL     1       1.680   9.629  19.559  0.00  0.00    +0.000 C 
ATOM      3  C   UNL     1       0.622   9.113  20.536  0.00  0.00    +0.000 C 
ATOM      4  C   UNL     1       1.071   7.811  21.195  0.00  0.00    +0.000 C 
ATOM      5  C   UNL     1       1.446   6.740  20.157  0.00  0.00    +0.000 C 
ATOM      6  C   UNL     1       2.466   7.278  19.147  0.00  0.00    +0.000 C 
ATOM      7  C   UNL     1       1.998   8.575  18.498  0.00  0.00    +0.000 C 
BRANCH   2  10
ATOM      8  O   UNL     1       1.632  12.170  20.783  0.00  0.00    +0.000 OA
ATOM      9  C   UNL     1       1.236  12.051  19.632  0.00  0.00    +0.000 C 
ATOM     10  N   UNL     1       1.246  10.866  18.932  0.00  0.00    +0.000 N 
ATOM     11  H   UNL     1       0.800  10.814  18.026  0.00  0.00    +0.000 HD
BRANCH   9  12
ATOM     12  C   UNL     1       0.677  13.200  18.894  0.00  0.00    +0.000 C 
ATOM     13  C   UNL     1      -0.714  13.099  18.286  0.00  0.00    +0.000 C 
ATOM     14  C   UNL     1      -0.464  13.947  19.473  0.00  0.00    +0.000 C 
ATOM     15  F   UNL     1      -0.526  15.318  19.352  0.00  0.00    +0.000 F 
ATOM     16  F   UNL     1      -1.010  13.622  20.691  0.00  0.00    +0.000 F 
ENDBRANCH   9  12
ENDBRANCH   2  10
ENDBRANCH   1   5
BRANCH   1  17
ATOM     17  C   UNL     1       1.192   4.201  20.603  0.00  0.00    +0.000 C 
BRANCH  17  18
ATOM     18  N   UNL     1       1.702   3.297  19.548  0.00  0.00    +0.000 NA
ATOM     19  C   UNL     1       1.787   4.006  18.262  0.00  0.00    +0.000 C 
ATOM     20  C   UNL     1       2.559   3.255  17.176  0.00  0.00    +0.000 C 
ATOM     21  C   UNL     1       3.964   2.839  17.633  0.00  0.00    +0.000 C 
ATOM     22  C   UNL     1       3.769   2.001  18.912  0.00  0.00    +0.000 C 
ATOM     23  C   UNL     1       2.998   2.758  19.993  0.00  0.00    +0.000 C 
BRANCH  21  24
ATOM     24  C   UNL     1       5.027   3.930  17.747  0.00  0.00    +0.000 A 
ATOM     25  C   UNL     1       5.272   4.515  19.010  0.00  0.00    +0.000 A 
ATOM     26  C   UNL     1       6.271   5.489  19.206  0.00  0.00    +0.000 A 
ATOM     27  C   UNL     1       7.067   5.906  18.144  0.00  0.00    +0.000 A 
ATOM     28  C   UNL     1       6.839   5.326  16.918  0.00  0.00    +0.000 A 
ATOM     29  C   UNL     1       5.864   4.364  16.723  0.00  0.00    +0.000 A 
ATOM     30  O   UNL     1       5.885   3.921  15.433  0.00  0.00    +0.000 OA
ATOM     31  C   UNL     1       6.882   4.765  14.837  0.00  0.00    +0.000 C 
ATOM     32  O   UNL     1       7.543   5.613  15.787  0.00  0.00    +0.000 OA
ENDBRANCH  21  24
ENDBRANCH  17  18
ENDBRANCH   1  17
TORSDOF 6
ENDMDL
MODEL 5
REMARK VINA RESULT:      -8.6      2.177      2.465
REMARK  Name = 
REMARK  6 active torsions:
REMARK  status: ('A' for Active; 'I' for Inactive)
REMARK    1  A    between atoms: C_2  and  C_27
REMARK    2  A    between atoms: N_3  and  C_4
REMARK    3  A    between atoms: C_7  and  C_8
REMARK    4  A    between atoms: C_8  and  C_9
REMARK    5  A    between atoms: C_9  and  N_10
REMARK    6  A    between atoms: C_13  and  C_14
REMARK                            x       y       z     vdW  Elec       q    Type
REMARK                         _______ _______ _______ _____ _____    ______ ____
ROOT
ATOM      1  C   UNL     1       2.382   6.743  20.109  0.00  0.00    +0.000 C 
ENDROOT
BRANCH   1   5
ATOM      2  C   UNL     1      -0.488  10.002  20.449  0.00  0.00    +0.000 C 
ATOM      3  C   UNL     1       0.787  10.280  19.651  0.00  0.00    +0.000 C 
ATOM      4  C   UNL     1       1.496   8.981  19.275  0.00  0.00    +0.000 C 
ATOM      5  C   UNL     1       1.784   8.106  20.506  0.00  0.00    +0.000 C 
ATOM      6  C   UNL     1       0.513   7.873  21.332  0.00  0.00    +0.000 C 
ATOM      7  C   UNL     1      -0.176   9.182  21.700  0.00  0.00    +0.000 C 
BRANCH   2  10
ATOM      8  O   UNL     1      -2.295  11.433  18.822  0.00  0.00    +0.000 OA
ATOM      9  C   UNL     1      -2.000  11.874  19.924  0.00  0.00    +0.000 C 
ATOM     10  N   UNL     1      -1.155  11.242  20.807  0.00  0.00    +0.000 N 
ATOM     11  H   UNL     1      -0.866  11.716  21.652  0.00  0.00    +0.000 HD
BRANCH   9  12
ATOM     12  C   UNL     1      -2.524  13.172  20.391  0.00  0.00    +0.000 C 
ATOM     13  C   UNL     1      -4.022  13.355  20.580  0.00  0.00    +0.000 C 
ATOM     14  C   UNL     1      -3.114  13.269  21.746  0.00  0.00    +0.000 C 
ATOM     15  F   UNL     1      -2.895  14.388  22.519  0.00  0.00    +0.000 F 
ATOM     16  F   UNL     1      -3.172  12.193  22.599  0.00  0.00    +0.000 F 
ENDBRANCH   9  12
ENDBRANCH   2  10
ENDBRANCH   1   5
BRANCH   1  17
ATOM     17  C   UNL     1       1.411   5.561  20.204  0.00  0.00    +0.000 C 
BRANCH  17  18
ATOM     18  N   UNL     1       1.816   4.351  19.452  0.00  0.00    +0.000 NA
ATOM     19  C   UNL     1       1.987   4.667  18.026  0.00  0.00    +0.000 C 
ATOM     20  C   UNL     1       2.670   3.567  17.212  0.00  0.00    +0.000 C 
ATOM     21  C   UNL     1       4.017   3.141  17.813  0.00  0.00    +0.000 C 
ATOM     22  C   UNL     1       3.723   2.713  19.264  0.00  0.00    +0.000 C 
ATOM     23  C   UNL     1       3.041   3.817  20.072  0.00  0.00    +0.000 C 
BRANCH  21  24
ATOM     24  C   UNL     1       5.198   4.099  17.662  0.00  0.00    +0.000 A 
ATOM     25  C   UNL     1       5.723   4.721  18.817  0.00  0.00    +0.000 A 
ATOM     26  C   UNL     1       6.843   5.575  18.767  0.00  0.00    +0.000 A 
ATOM     27  C   UNL     1       7.482   5.829  17.558  0.00  0.00    +0.000 A 
ATOM     28  C   UNL     1       6.980   5.211  16.436  0.00  0.00    +0.000 A 
ATOM     29  C   UNL     1       5.886   4.366  16.482  0.00  0.00    +0.000 A 
ATOM     30  O   UNL     1       5.631   3.850  15.246  0.00  0.00    +0.000 OA
ATOM     31  C   UNL     1       6.596   4.529  14.427  0.00  0.00    +0.000 C 
ATOM     32  O   UNL     1       7.503   5.343  15.184  0.00  0.00    +0.000 OA
ENDBRANCH  21  24
ENDBRANCH  17  18
ENDBRANCH   1  17
TORSDOF 6
ENDMDL
MODEL 6
REMARK VINA RESULT:      -8.4      4.256      9.668
REMARK  Name = 
REMARK  6 active torsions:
REMARK  status: ('A' for Active; 'I' for Inactive)
REMARK    1  A    between atoms: C_2  and  C_27
REMARK    2  A    between atoms: N_3  and  C_4
REMARK    3  A    between atoms: C_7  and  C_8
REMARK    4  A    between atoms: C_8  and  C_9
REMARK    5  A    between atoms: C_9  and  N_10
REMARK    6  A    between atoms: C_13  and  C_14
REMARK                            x       y       z     vdW  Elec       q    Type
REMARK                         _______ _______ _______ _____ _____    ______ ____
ROOT
ATOM      1  C   UNL     1       0.794   8.325  21.020  0.00  0.00    +0.000 C 
ENDROOT
BRANCH   1   5
ATOM      2  C   UNL     1       2.840   5.784  18.135  0.00  0.00    +0.000 C 
ATOM      3  C   UNL     1       2.852   5.326  19.595  0.00  0.00    +0.000 C 
ATOM      4  C   UNL     1       1.792   6.063  20.411  0.00  0.00    +0.000 C 
ATOM      5  C   UNL     1       1.939   7.589  20.301  0.00  0.00    +0.000 C 
ATOM      6  C   UNL     1       1.981   8.039  18.835  0.00  0.00    +0.000 C 
ATOM      7  C   UNL     1       3.047   7.296  18.040  0.00  0.00    +0.000 C 
BRANCH   2  10
ATOM      8  O   UNL     1       5.614   5.815  18.646  0.00  0.00    +0.000 OA
ATOM      9  C   UNL     1       5.188   5.189  17.686  0.00  0.00    +0.000 C 
ATOM     10  N   UNL     1       3.854   5.083  17.365  0.00  0.00    +0.000 N 
ATOM     11  H   UNL     1       3.580   4.646  16.496  0.00  0.00    +0.000 HD
BRANCH   9  12
ATOM     12  C   UNL     1       6.104   4.501  16.755  0.00  0.00    +0.000 C 
ATOM     13  C   UNL     1       5.535   3.707  15.589  0.00  0.00    +0.000 C 
ATOM     14  C   UNL     1       6.229   4.995  15.365  0.00  0.00    +0.000 C 
ATOM     15  F   UNL     1       7.457   5.004  14.741  0.00  0.00    +0.000 F 
ATOM     16  F   UNL     1       5.536   6.092  14.912  0.00  0.00    +0.000 F 
ENDBRANCH   9  12
ENDBRANCH   2  10
ENDBRANCH   1   5
BRANCH   1  17
ATOM     17  C   UNL     1       1.244   9.341  22.078  0.00  0.00    +0.000 C 
BRANCH  17  18
ATOM     18  N   UNL     1       0.720  10.713  21.896  0.00  0.00    +0.000 NA
ATOM     19  C   UNL     1       1.144  11.256  20.596  0.00  0.00    +0.000 C 
ATOM     20  C   UNL     1       0.432  12.547  20.188  0.00  0.00    +0.000 C 
ATOM     21  C   UNL     1      -1.096  12.412  20.220  0.00  0.00    +0.000 C 
ATOM     22  C   UNL     1      -1.458  11.959  21.648  0.00  0.00    +0.000 C 
ATOM     23  C   UNL     1      -0.744  10.668  22.049  0.00  0.00    +0.000 C 
BRANCH  21  24
ATOM     24  C   UNL     1      -1.762  11.598  19.110  0.00  0.00    +0.000 A 
ATOM     25  C   UNL     1      -0.976  10.688  18.367  0.00  0.00    +0.000 A 
ATOM     26  C   UNL     1      -1.527   9.864  17.365  0.00  0.00    +0.000 A 
ATOM     27  C   UNL     1      -2.887   9.918  17.078  0.00  0.00    +0.000 A 
ATOM     28  C   UNL     1      -3.654  10.793  17.811  0.00  0.00    +0.000 A 
ATOM     29  C   UNL     1      -3.119  11.597  18.802  0.00  0.00    +0.000 A 
ATOM     30  O   UNL     1      -4.101  12.327  19.404  0.00  0.00    +0.000 OA
ATOM     31  C   UNL     1      -5.259  11.975  18.632  0.00  0.00    +0.000 C 
ATOM     32  O   UNL     1      -5.000  10.950  17.663  0.00  0.00    +0.000 OA
ENDBRANCH  21  24
ENDBRANCH  17  18
ENDBRANCH   1  17
TORSDOF 6
ENDMDL
MODEL 7
REMARK VINA RESULT:      -8.4      6.314     10.074
REMARK  Name = 
REMARK  6 active torsions:
REMARK  status: ('A' for Active; 'I' for Inactive)
REMARK    1  A    between atoms: C_2  and  C_27
REMARK    2  A    between atoms: N_3  and  C_4
REMARK    3  A    between atoms: C_7  and  C_8
REMARK    4  A    between atoms: C_8  and  C_9
REMARK    5  A    between atoms: C_9  and  N_10
REMARK    6  A    between atoms: C_13  and  C_14
REMARK                            x       y       z     vdW  Elec       q    Type
REMARK                         _______ _______ _______ _____ _____    ______ ____
ROOT
ATOM      1  C   UNL     1       8.583   8.227  18.385  0.00  0.00    +0.000 C 
ENDROOT
BRANCH   1   5
ATOM      2  C   UNL     1       5.123   5.594  18.117  0.00  0.00    +0.000 C 
ATOM      3  C   UNL     1       6.454   4.954  18.515  0.00  0.00    +0.000 C 
ATOM      4  C   UNL     1       7.464   6.011  18.955  0.00  0.00    +0.000 C 
ATOM      5  C   UNL     1       7.662   7.098  17.886  0.00  0.00    +0.000 C 
ATOM      6  C   UNL     1       6.321   7.700  17.450  0.00  0.00    +0.000 C 
ATOM      7  C   UNL     1       5.330   6.629  17.011  0.00  0.00    +0.000 C 
BRANCH   2  10
ATOM      8  O   UNL     1       2.392   5.510  18.820  0.00  0.00    +0.000 OA
ATOM      9  C   UNL     1       2.860   4.622  18.121  0.00  0.00    +0.000 C 
ATOM     10  N   UNL     1       4.168   4.584  17.695  0.00  0.00    +0.000 N 
ATOM     11  H   UNL     1       4.516   3.765  17.215  0.00  0.00    +0.000 HD
BRANCH   9  12
ATOM     12  C   UNL     1       2.036   3.476  17.690  0.00  0.00    +0.000 C 
ATOM     13  C   UNL     1       2.587   2.064  17.817  0.00  0.00    +0.000 C 
ATOM     14  C   UNL     1       1.506   2.541  18.709  0.00  0.00    +0.000 C 
ATOM     15  F   UNL     1       0.238   2.019  18.577  0.00  0.00    +0.000 F 
ATOM     16  F   UNL     1       1.735   2.715  20.053  0.00  0.00    +0.000 F 
ENDBRANCH   9  12
ENDBRANCH   2  10
ENDBRANCH   1   5
BRANCH   1  17
ATOM     17  C   UNL     1       8.261   9.617  17.822  0.00  0.00    +0.000 C 
BRANCH  17  18
ATOM     18  N   UNL     1       9.281  10.655  18.090  0.00  0.00    +0.000 NA
ATOM     19  C   UNL     1       8.718  11.996  17.869  0.00  0.00    +0.000 C 
ATOM     20  C   UNL     1       9.593  13.141  18.383  0.00  0.00    +0.000 C 
ATOM     21  C   UNL     1       9.972  12.976  19.861  0.00  0.00    +0.000 C 
ATOM     22  C   UNL     1      10.661  11.602  19.976  0.00  0.00    +0.000 C 
ATOM     23  C   UNL     1       9.782  10.462  19.461  0.00  0.00    +0.000 C 
BRANCH  21  24
ATOM     24  C   UNL     1       8.886  13.228  20.906  0.00  0.00    +0.000 A 
ATOM     25  C   UNL     1       8.942  12.525  22.131  0.00  0.00    +0.000 A 
ATOM     26  C   UNL     1       8.008  12.742  23.164  0.00  0.00    +0.000 A 
ATOM     27  C   UNL     1       6.989  13.677  23.009  0.00  0.00    +0.000 A 
ATOM     28  C   UNL     1       6.944  14.370  21.823  0.00  0.00    +0.000 A 
ATOM     29  C   UNL     1       7.863  14.167  20.809  0.00  0.00    +0.000 A 
ATOM     30  O   UNL     1       7.622  15.018  19.771  0.00  0.00    +0.000 OA
ATOM     31  C   UNL     1       6.421  15.682  20.194  0.00  0.00    +0.000 C 
ATOM     32  O   UNL     1       6.021  15.329  21.525  0.00  0.00    +0.000 OA
ENDBRANCH  21  24
ENDBRANCH  17  18
ENDBRANCH   1  17
TORSDOF 6
ENDMDL
MODEL 8
REMARK VINA RESULT:      -8.4      1.444      1.838
REMARK  Name = 
REMARK  6 active torsions:
REMARK  status: ('A' for Active; 'I' for Inactive)
REMARK    1  A    between atoms: C_2  and  C_27
REMARK    2  A    between atoms: N_3  and  C_4
REMARK    3  A    between atoms: C_7  and  C_8
REMARK    4  A    between atoms: C_8  and  C_9
REMARK    5  A    between atoms: C_9  and  N_10
REMARK    6  A    between atoms: C_13  and  C_14
REMARK                            x       y       z     vdW  Elec       q    Type
REMARK                         _______ _______ _______ _____ _____    ______ ____
ROOT
ATOM      1  C   UNL     1       2.006   6.011  20.674  0.00  0.00    +0.000 C 
ENDROOT
BRANCH   1   5
ATOM      2  C   UNL     1       1.611  10.089  19.195  0.00  0.00    +0.000 C 
ATOM      3  C   UNL     1       0.668   9.664  20.323  0.00  0.00    +0.000 C 
ATOM      4  C   UNL     1       1.163   8.391  21.005  0.00  0.00    +0.000 C 
ATOM      5  C   UNL     1       1.386   7.249  20.000  0.00  0.00    +0.000 C 
ATOM      6  C   UNL     1       2.289   7.695  18.844  0.00  0.00    +0.000 C 
ATOM      7  C   UNL     1       1.775   8.963  18.174  0.00  0.00    +0.000 C 
BRANCH   2  10
ATOM      8  O   UNL     1       2.332  12.727  19.886  0.00  0.00    +0.000 OA
ATOM      9  C   UNL     1       1.528  12.542  18.984  0.00  0.00    +0.000 C 
ATOM     10  N   UNL     1       1.131  11.298  18.547  0.00  0.00    +0.000 N 
ATOM     11  H   UNL     1       0.380  11.217  17.876  0.00  0.00    +0.000 HD
BRANCH   9  12
ATOM     12  C   UNL     1       0.881  13.673  18.292  0.00  0.00    +0.000 C 
ATOM     13  C   UNL     1      -0.463  14.188  18.785  0.00  0.00    +0.000 C 
ATOM     14  C   UNL     1       0.772  14.978  18.984  0.00  0.00    +0.000 C 
ATOM     15  F   UNL     1       0.948  16.151  18.282  0.00  0.00    +0.000 F 
ATOM     16  F   UNL     1       1.275  15.182  20.247  0.00  0.00    +0.000 F 
ENDBRANCH   9  12
ENDBRANCH   2  10
ENDBRANCH   1   5
BRANCH   1  17
ATOM     17  C   UNL     1       1.250   4.699  20.430  0.00  0.00    +0.000 C 
BRANCH  17  18
ATOM     18  N   UNL     1       1.990   3.681  19.651  0.00  0.00    +0.000 NA
ATOM     19  C   UNL     1       1.871   3.952  18.210  0.00  0.00    +0.000 C 
ATOM     20  C   UNL     1       2.820   3.134  17.333  0.00  0.00    +0.000 C 
ATOM     21  C   UNL     1       4.286   3.270  17.765  0.00  0.00    +0.000 C 
ATOM     22  C   UNL     1       4.337   2.851  19.248  0.00  0.00    +0.000 C 
ATOM     23  C   UNL     1       3.387   3.673  20.119  0.00  0.00    +0.000 C 
BRANCH  21  24
ATOM     24  C   UNL     1       5.001   4.584  17.454  0.00  0.00    +0.000 A 
ATOM     25  C   UNL     1       4.482   5.419  16.439  0.00  0.00    +0.000 A 
ATOM     26  C   UNL     1       5.053   6.670  16.130  0.00  0.00    +0.000 A 
ATOM     27  C   UNL     1       6.159   7.133  16.834  0.00  0.00    +0.000 A 
ATOM     28  C   UNL     1       6.655   6.327  17.832  0.00  0.00    +0.000 A 
ATOM     29  C   UNL     1       6.093   5.102  18.144  0.00  0.00    +0.000 A 
ATOM     30  O   UNL     1       6.742   4.537  19.202  0.00  0.00    +0.000 OA
ATOM     31  C   UNL     1       7.807   5.470  19.441  0.00  0.00    +0.000 C 
ATOM     32  O   UNL     1       7.720   6.645  18.622  0.00  0.00    +0.000 OA
ENDBRANCH  21  24
ENDBRANCH  17  18
ENDBRANCH   1  17
TORSDOF 6
ENDMDL
MODEL 9
REMARK VINA RESULT:      -8.4      2.869      3.277
REMARK  Name = 
REMARK  6 active torsions:
REMARK  status: ('A' for Active; 'I' for Inactive)
REMARK    1  A    between atoms: C_2  and  C_27
REMARK    2  A    between atoms: N_3  and  C_4
REMARK    3  A    between atoms: C_7  and  C_8
REMARK    4  A    between atoms: C_8  and  C_9
REMARK    5  A    between atoms: C_9  and  N_10
REMARK    6  A    between atoms: C_13  and  C_14
REMARK                            x       y       z     vdW  Elec       q    Type
REMARK                         _______ _______ _______ _____ _____    ______ ____
ROOT
ATOM      1  C   UNL     1       1.480   8.234  20.220  0.00  0.00    +0.000 C 
ENDROOT
BRANCH   1   5
ATOM      2  C   UNL     1      -0.587  11.378  22.415  0.00  0.00    +0.000 C 
ATOM      3  C   UNL     1      -0.504  10.003  23.083  0.00  0.00    +0.000 C 
ATOM      4  C   UNL     1       0.559   9.132  22.419  0.00  0.00    +0.000 C 
ATOM      5  C   UNL     1       0.336   9.007  20.902  0.00  0.00    +0.000 C 
ATOM      6  C   UNL     1       0.200  10.385  20.245  0.00  0.00    +0.000 C 
ATOM      7  C   UNL     1      -0.869  11.236  20.919  0.00  0.00    +0.000 C 
BRANCH   2  10
ATOM      8  O   UNL     1      -0.338  14.117  23.042  0.00  0.00    +0.000 OA
ATOM      9  C   UNL     1      -1.367  13.525  23.336  0.00  0.00    +0.000 C 
ATOM     10  N   UNL     1      -1.604  12.200  23.048  0.00  0.00    +0.000 N 
ATOM     11  H   UNL     1      -2.427  11.745  23.419  0.00  0.00    +0.000 HD
BRANCH   9  12
ATOM     12  C   UNL     1      -2.456  14.202  24.067  0.00  0.00    +0.000 C 
ATOM     13  C   UNL     1      -2.891  15.597  23.646  0.00  0.00    +0.000 C 
ATOM     14  C   UNL     1      -3.755  14.423  23.391  0.00  0.00    +0.000 C 
ATOM     15  F   UNL     1      -4.933  14.282  24.092  0.00  0.00    +0.000 F 
ATOM     16  F   UNL     1      -3.994  13.997  22.107  0.00  0.00    +0.000 F 
ENDBRANCH   9  12
ENDBRANCH   2  10
ENDBRANCH   1   5
BRANCH   1  17
ATOM     17  C   UNL     1       1.874   6.923  20.910  0.00  0.00    +0.000 C 
BRANCH  17  18
ATOM     18  N   UNL     1       1.842   5.722  20.045  0.00  0.00    +0.000 NA
ATOM     19  C   UNL     1       2.098   6.092  18.645  0.00  0.00    +0.000 C 
ATOM     20  C   UNL     1       2.364   4.906  17.716  0.00  0.00    +0.000 C 
ATOM     21  C   UNL     1       3.493   4.000  18.226  0.00  0.00    +0.000 C 
ATOM     22  C   UNL     1       3.083   3.563  19.647  0.00  0.00    +0.000 C 
ATOM     23  C   UNL     1       2.820   4.753  20.570  0.00  0.00    +0.000 C 
BRANCH  21  24
ATOM     24  C   UNL     1       4.926   4.516  18.112  0.00  0.00    +0.000 A 
ATOM     25  C   UNL     1       5.561   5.031  19.265  0.00  0.00    +0.000 A 
ATOM     26  C   UNL     1       6.897   5.477  19.251  0.00  0.00    +0.000 A 
ATOM     27  C   UNL     1       7.649   5.414  18.083  0.00  0.00    +0.000 A 
ATOM     28  C   UNL     1       7.037   4.899  16.964  0.00  0.00    +0.000 A 
ATOM     29  C   UNL     1       5.727   4.453  16.975  0.00  0.00    +0.000 A 
ATOM     30  O   UNL     1       5.387   3.946  15.755  0.00  0.00    +0.000 OA
ATOM     31  C   UNL     1       6.563   4.213  14.976  0.00  0.00    +0.000 C 
ATOM     32  O   UNL     1       7.642   4.755  15.751  0.00  0.00    +0.000 OA
ENDBRANCH  21  24
ENDBRANCH  17  18
ENDBRANCH   1  17
TORSDOF 6
ENDMDL
