MODEL 1
REMARK VINA RESULT:      -7.6      0.000      0.000
REMARK  Name = 
REMARK  3 active torsions:
REMARK  status: ('A' for Active; 'I' for Inactive)
REMARK    1  A    between atoms: C_1  and  N_2
REMARK    2  A    between atoms: N_7  and  C_8
REMARK    3  A    between atoms: C_8  and  C_9
REMARK                            x       y       z     vdW  Elec       q    Type
REMARK                         _______ _______ _______ _____ _____    ______ ____
ROOT
ATOM      1  C   UNL     1       1.770   7.276  20.231  0.00  0.00    +0.000 C 
ATOM      2  N   UNL     1       2.612   6.292  19.590  0.00  0.00    +0.000 N 
ATOM      3  C   UNL     1       3.861   6.620  18.939  0.00  0.00    +0.000 C 
ATOM      4  C   UNL     1       4.380   5.270  18.335  0.00  0.00    +0.000 C 
ATOM      5  C   UNL     1       5.815   4.944  18.809  0.00  0.00    +0.000 C 
ATOM      6  C   UNL     1       6.825   5.897  18.147  0.00  0.00    +0.000 C 
ATOM      7  N   UNL     1       6.760   5.828  16.665  0.00  0.00    +0.000 NA
ATOM      8  C   UNL     1       5.406   6.194  16.190  0.00  0.00    +0.000 C 
ATOM      9  C   UNL     1       4.316   5.276  16.787  0.00  0.00    +0.000 C 
ATOM     10  C   UNL     1       3.389   4.272  18.865  0.00  0.00    +0.000 A 
ATOM     11  C   UNL     1       3.388   2.882  18.699  0.00  0.00    +0.000 A 
ATOM     12  C   UNL     1       2.345   2.137  19.267  0.00  0.00    +0.000 A 
ATOM     13  C   UNL     1       1.319   2.786  19.977  0.00  0.00    +0.000 A 
ATOM     14  C   UNL     1       1.331   4.183  20.125  0.00  0.00    +0.000 A 
ATOM     15  F   UNL     1       0.337   4.801  20.810  0.00  0.00    +0.000 F 
ATOM     16  C   UNL     1       2.391   4.906  19.556  0.00  0.00    +0.000 A 
ENDROOT
BRANCH   7  17
ATOM     17  C   UNL     1       7.217   4.539  16.090  0.00  0.00    +0.000 C 
BRANCH  17  18
ATOM     18  C   UNL     1       7.134   4.525  14.588  0.00  0.00    +0.000 A 
ATOM     19  C   UNL     1       6.255   3.656  13.930  0.00  0.00    +0.000 A 
ATOM     20  C   UNL     1       6.197   3.650  12.536  0.00  0.00    +0.000 A 
ATOM     21  C   UNL     1       7.017   4.517  11.812  0.00  0.00    +0.000 A 
ATOM     22  N   UNL     1       7.863   5.357  12.463  0.00  0.00    +0.000 NA
ATOM     23  C   UNL     1       7.940   5.382  13.819  0.00  0.00    +0.000 A 
ENDBRANCH  17  18
ENDBRANCH   7  17
TORSDOF 2
ENDMDL
MODEL 2
REMARK VINA RESULT:      -7.4      0.600      1.011
REMARK  Name = 
REMARK  3 active torsions:
REMARK  status: ('A' for Active; 'I' for Inactive)
REMARK    1  A    between atoms: C_1  and  N_2
REMARK    2  A    between atoms: N_7  and  C_8
REMARK    3  A    between atoms: C_8  and  C_9
REMARK                            x       y       z     vdW  Elec       q    Type
REMARK                         _______ _______ _______ _____ _____    ______ ____
ROOT
ATOM      1  C   UNL     1       1.722   7.271  20.130  0.00  0.00    +0.000 C 
ATOM      2  N   UNL     1       2.602   6.303  19.517  0.00  0.00    +0.000 N 
ATOM      3  C   UNL     1       3.817   6.665  18.820  0.00  0.00    +0.000 C 
ATOM      4  C   UNL     1       4.395   5.316  18.268  0.00  0.00    +0.000 C 
ATOM      5  C   UNL     1       5.855   5.090  18.723  0.00  0.00    +0.000 C 
ATOM      6  C   UNL     1       6.798   6.062  17.991  0.00  0.00    +0.000 C 
ATOM      7  N   UNL     1       6.704   5.918  16.516  0.00  0.00    +0.000 NA
ATOM      8  C   UNL     1       5.323   6.188  16.058  0.00  0.00    +0.000 C 
ATOM      9  C   UNL     1       4.297   5.244  16.724  0.00  0.00    +0.000 C 
ATOM     10  C   UNL     1       3.471   4.295  18.870  0.00  0.00    +0.000 A 
ATOM     11  C   UNL     1       3.541   2.900  18.769  0.00  0.00    +0.000 A 
ATOM     12  C   UNL     1       2.553   2.129  19.397  0.00  0.00    +0.000 A 
ATOM     13  C   UNL     1       1.509   2.757  20.101  0.00  0.00    +0.000 A 
ATOM     14  C   UNL     1       1.448   4.158  20.182  0.00  0.00    +0.000 A 
ATOM     15  F   UNL     1       0.438   4.756  20.860  0.00  0.00    +0.000 F 
ATOM     16  C   UNL     1       2.455   4.907  19.554  0.00  0.00    +0.000 A 
ENDROOT
BRANCH   7  17
ATOM     17  C   UNL     1       7.218   4.628  15.993  0.00  0.00    +0.000 C 
BRANCH  17  18
ATOM     18  C   UNL     1       7.117   4.543  14.493  0.00  0.00    +0.000 A 
ATOM     19  C   UNL     1       7.886   5.382  13.678  0.00  0.00    +0.000 A 
ATOM     20  C   UNL     1       7.773   5.295  12.290  0.00  0.00    +0.000 A 
ATOM     21  C   UNL     1       6.894   4.367  11.730  0.00  0.00    +0.000 A 
ATOM     22  N   UNL     1       6.156   3.558  12.533  0.00  0.00    +0.000 NA
ATOM     23  C   UNL     1       6.245   3.623  13.888  0.00  0.00    +0.000 A 
ENDBRANCH  17  18
ENDBRANCH   7  17
TORSDOF 2
ENDMDL
MODEL 3
REMARK VINA RESULT:      -7.0      1.285      2.742
REMARK  Name = 
REMARK  3 active torsions:
REMARK  status: ('A' for Active; 'I' for Inactive)
REMARK    1  A    between atoms: C_1  and  N_2
REMARK    2  A    between atoms: N_7  and  C_8
REMARK    3  A    between atoms: C_8  and  C_9
REMARK                            x       y       z     vdW  Elec       q    Type
REMARK                         _______ _______ _______ _____ _____    ______ ____
ROOT
ATOM      1  C   UNL     1       2.337   4.260  21.283  0.00  0.00    +0.000 C 
ATOM      2  N   UNL     1       2.934   4.886  20.125  0.00  0.00    +0.000 N 
ATOM      3  C   UNL     1       3.883   4.216  19.263  0.00  0.00    +0.000 C 
ATOM      4  C   UNL     1       4.306   5.289  18.201  0.00  0.00    +0.000 C 
ATOM      5  C   UNL     1       4.087   4.783  16.757  0.00  0.00    +0.000 C 
ATOM      6  C   UNL     1       5.119   3.696  16.410  0.00  0.00    +0.000 C 
ATOM      7  N   UNL     1       6.512   4.187  16.563  0.00  0.00    +0.000 NA
ATOM      8  C   UNL     1       6.756   4.623  17.957  0.00  0.00    +0.000 C 
ATOM      9  C   UNL     1       5.777   5.734  18.395  0.00  0.00    +0.000 C 
ATOM     10  C   UNL     1       3.396   6.441  18.521  0.00  0.00    +0.000 A 
ATOM     11  C   UNL     1       3.283   7.666  17.850  0.00  0.00    +0.000 A 
ATOM     12  C   UNL     1       2.375   8.617  18.336  0.00  0.00    +0.000 A 
ATOM     13  C   UNL     1       1.607   8.341  19.482  0.00  0.00    +0.000 A 
ATOM     14  C   UNL     1       1.741   7.111  20.148  0.00  0.00    +0.000 A 
ATOM     15  F   UNL     1       0.999   6.853  21.252  0.00  0.00    +0.000 F 
ATOM     16  C   UNL     1       2.649   6.171  19.636  0.00  0.00    +0.000 A 
ENDROOT
BRANCH   7  17
ATOM     17  C   UNL     1       6.906   5.228  15.582  0.00  0.00    +0.000 C 
BRANCH  17  18
ATOM     18  C   UNL     1       6.856   4.722  14.166  0.00  0.00    +0.000 A 
ATOM     19  C   UNL     1       5.900   3.775  13.779  0.00  0.00    +0.000 A 
ATOM     20  C   UNL     1       5.875   3.310  12.464  0.00  0.00    +0.000 A 
ATOM     21  C   UNL     1       6.805   3.800  11.545  0.00  0.00    +0.000 A 
ATOM     22  N   UNL     1       7.725   4.720  11.934  0.00  0.00    +0.000 NA
ATOM     23  C   UNL     1       7.773   5.188  13.208  0.00  0.00    +0.000 A 
ENDBRANCH  17  18
ENDBRANCH   7  17
TORSDOF 2
ENDMDL
MODEL 4
REMARK VINA RESULT:      -6.9      1.469      2.974
REMARK  Name = 
REMARK  3 active torsions:
REMARK  status: ('A' for Active; 'I' for Inactive)
REMARK    1  A    between atoms: C_1  and  N_2
REMARK    2  A    between atoms: N_7  and  C_8
REMARK    3  A    between atoms: C_8  and  C_9
REMARK                            x       y       z     vdW  Elec       q    Type
REMARK                         _______ _______ _______ _____ _____    ______ ____
ROOT
ATOM      1  C   UNL     1       2.221   4.608  21.294  0.00  0.00    +0.000 C 
ATOM      2  N   UNL     1       2.848   5.178  20.124  0.00  0.00    +0.000 N 
ATOM      3  C   UNL     1       3.809   4.465  19.312  0.00  0.00    +0.000 C 
ATOM      4  C   UNL     1       4.263   5.488  18.214  0.00  0.00    +0.000 C 
ATOM      5  C   UNL     1       4.071   4.922  16.789  0.00  0.00    +0.000 C 
ATOM      6  C   UNL     1       5.100   3.813  16.511  0.00  0.00    +0.000 C 
ATOM      7  N   UNL     1       6.494   4.300  16.673  0.00  0.00    +0.000 NA
ATOM      8  C   UNL     1       6.712   4.793  18.051  0.00  0.00    +0.000 C 
ATOM      9  C   UNL     1       5.734   5.930  18.421  0.00  0.00    +0.000 C 
ATOM     10  C   UNL     1       3.356   6.660  18.465  0.00  0.00    +0.000 A 
ATOM     11  C   UNL     1       3.268   7.855  17.741  0.00  0.00    +0.000 A 
ATOM     12  C   UNL     1       2.358   8.834  18.166  0.00  0.00    +0.000 A 
ATOM     13  C   UNL     1       1.564   8.613  19.306  0.00  0.00    +0.000 A 
ATOM     14  C   UNL     1       1.674   7.411  20.026  0.00  0.00    +0.000 A 
ATOM     15  F   UNL     1       0.906   7.206  21.124  0.00  0.00    +0.000 F 
ATOM     16  C   UNL     1       2.584   6.443  19.574  0.00  0.00    +0.000 A 
ENDROOT
BRANCH   7  17
ATOM     17  C   UNL     1       6.917   5.295  15.656  0.00  0.00    +0.000 C 
BRANCH  17  18
ATOM     18  C   UNL     1       6.871   4.735  14.260  0.00  0.00    +0.000 A 
ATOM     19  C   UNL     1       7.684   5.267  13.252  0.00  0.00    +0.000 A 
ATOM     20  C   UNL     1       7.622   4.742  11.961  0.00  0.00    +0.000 A 
ATOM     21  C   UNL     1       6.749   3.686  11.690  0.00  0.00    +0.000 A 
ATOM     22  N   UNL     1       5.969   3.179  12.679  0.00  0.00    +0.000 NA
ATOM     23  C   UNL     1       6.008   3.673  13.944  0.00  0.00    +0.000 A 
ENDBRANCH  17  18
ENDBRANCH   7  17
TORSDOF 2
ENDMDL
MODEL 5
REMARK VINA RESULT:      -6.2      4.819      7.476
REMARK  Name = 
REMARK  3 active torsions:
REMARK  status: ('A' for Active; 'I' for Inactive)
REMARK    1  A    between atoms: C_1  and  N_2
REMARK    2  A    between atoms: N_7  and  C_8
REMARK    3  A    between atoms: C_8  and  C_9
REMARK                            x       y       z     vdW  Elec       q    Type
REMARK                         _______ _______ _______ _____ _____    ______ ____
ROOT
ATOM      1  C   UNL     1       1.770  13.273  19.091  0.00  0.00    +0.000 C 
ATOM      2  N   UNL     1       1.258  11.932  18.933  0.00  0.00    +0.000 N 
ATOM      3  C   UNL     1       2.030  10.747  19.238  0.00  0.00    +0.000 C 
ATOM      4  C   UNL     1       1.107   9.541  18.849  0.00  0.00    +0.000 C 
ATOM      5  C   UNL     1       0.918   8.561  20.029  0.00  0.00    +0.000 C 
ATOM      6  C   UNL     1       2.219   7.781  20.290  0.00  0.00    +0.000 C 
ATOM      7  N   UNL     1       2.667   7.036  19.086  0.00  0.00    +0.000 NA
ATOM      8  C   UNL     1       2.908   7.968  17.962  0.00  0.00    +0.000 C 
ATOM      9  C   UNL     1       1.647   8.787  17.608  0.00  0.00    +0.000 C 
ATOM     10  C   UNL     1      -0.185  10.220  18.490  0.00  0.00    +0.000 A 
ATOM     11  C   UNL     1      -1.399   9.629  18.120  0.00  0.00    +0.000 A 
ATOM     12  C   UNL     1      -2.483  10.460  17.802  0.00  0.00    +0.000 A 
ATOM     13  C   UNL     1      -2.337  11.858  17.846  0.00  0.00    +0.000 A 
ATOM     14  C   UNL     1      -1.108  12.434  18.209  0.00  0.00    +0.000 A 
ATOM     15  F   UNL     1      -0.976  13.782  18.247  0.00  0.00    +0.000 F 
ATOM     16  C   UNL     1      -0.042  11.581  18.533  0.00  0.00    +0.000 A 
ENDROOT
BRANCH   7  17
ATOM     17  C   UNL     1       1.778   5.915  18.694  0.00  0.00    +0.000 C 
BRANCH  17  18
ATOM     18  C   UNL     1       2.011   4.685  19.530  0.00  0.00    +0.000 A 
ATOM     19  C   UNL     1       0.977   4.139  20.299  0.00  0.00    +0.000 A 
ATOM     20  C   UNL     1       1.213   3.004  21.075  0.00  0.00    +0.000 A 
ATOM     21  C   UNL     1       2.483   2.423  21.072  0.00  0.00    +0.000 A 
ATOM     22  N   UNL     1       3.476   2.962  20.319  0.00  0.00    +0.000 NA
ATOM     23  C   UNL     1       3.273   4.068  19.556  0.00  0.00    +0.000 A 
ENDBRANCH  17  18
ENDBRANCH   7  17
TORSDOF 2
ENDMDL
MODEL 6
REMARK VINA RESULT:      -6.0     10.276     12.924
REMARK  Name = 
REMARK  3 active torsions:
REMARK  status: ('A' for Active; 'I' for Inactive)
REMARK    1  A    between atoms: C_1  and  N_2
REMARK    2  A    between atoms: N_7  and  C_8
REMARK    3  A    between atoms: C_8  and  C_9
REMARK                            x       y       z     vdW  Elec       q    Type
REMARK                         _______ _______ _______ _____ _____    ______ ____
ROOT
ATOM      1  C   UNL     1       9.678  15.997  17.484  0.00  0.00    +0.000 C 
ATOM      2  N   UNL     1       9.728  15.147  18.651  0.00  0.00    +0.000 N 
ATOM      3  C   UNL     1       8.945  15.389  19.843  0.00  0.00    +0.000 C 
ATOM      4  C   UNL     1       9.374  14.270  20.854  0.00  0.00    +0.000 C 
ATOM      5  C   UNL     1       8.158  13.469  21.372  0.00  0.00    +0.000 C 
ATOM      6  C   UNL     1       7.317  14.334  22.327  0.00  0.00    +0.000 C 
ATOM      7  N   UNL     1       8.118  14.827  23.476  0.00  0.00    +0.000 NA
ATOM      8  C   UNL     1       9.256  15.646  22.999  0.00  0.00    +0.000 C 
ATOM      9  C   UNL     1      10.176  14.855  22.043  0.00  0.00    +0.000 C 
ATOM     10  C   UNL     1      10.282  13.409  20.022  0.00  0.00    +0.000 A 
ATOM     11  C   UNL     1      10.918  12.217  20.389  0.00  0.00    +0.000 A 
ATOM     12  C   UNL     1      11.747  11.581  19.454  0.00  0.00    +0.000 A 
ATOM     13  C   UNL     1      11.940  12.147  18.181  0.00  0.00    +0.000 A 
ATOM     14  C   UNL     1      11.302  13.350  17.834  0.00  0.00    +0.000 A 
ATOM     15  F   UNL     1      11.494  13.890  16.605  0.00  0.00    +0.000 F 
ATOM     16  C   UNL     1      10.468  13.961  18.783  0.00  0.00    +0.000 A 
ENDROOT
BRANCH   7  17
ATOM     17  C   UNL     1       8.556  13.767  24.417  0.00  0.00    +0.000 C 
BRANCH  17  18
ATOM     18  C   UNL     1       7.396  13.125  25.129  0.00  0.00    +0.000 A 
ATOM     19  C   UNL     1       7.138  11.757  24.982  0.00  0.00    +0.000 A 
ATOM     20  C   UNL     1       6.053  11.180  25.642  0.00  0.00    +0.000 A 
ATOM     21  C   UNL     1       5.237  11.976  26.447  0.00  0.00    +0.000 A 
ATOM     22  N   UNL     1       5.501  13.302  26.583  0.00  0.00    +0.000 NA
ATOM     23  C   UNL     1       6.550  13.889  25.950  0.00  0.00    +0.000 A 
ENDBRANCH  17  18
ENDBRANCH   7  17
TORSDOF 2
ENDMDL
MODEL 7
REMARK VINA RESULT:      -5.9      4.353      7.124
REMARK  Name = 
REMARK  3 active torsions:
REMARK  status: ('A' for Active; 'I' for Inactive)
REMARK    1  A    between atoms: C_1  and  N_2
REMARK    2  A    between atoms: N_7  and  C_8
REMARK    3  A    between atoms: C_8  and  C_9
REMARK                            x       y       z     vdW  Elec       q    Type
REMARK                         _______ _______ _______ _____ _____    ______ ____
ROOT
ATOM      1  C   UNL     1       0.313  13.240  21.067  0.00  0.00    +0.000 C 
ATOM      2  N   UNL     1       0.123  12.021  20.313  0.00  0.00    +0.000 N 
ATOM      3  C   UNL     1       1.107  10.963  20.256  0.00  0.00    +0.000 C 
ATOM      4  C   UNL     1       0.507   9.894  19.278  0.00  0.00    +0.000 C 
ATOM      5  C   UNL     1       0.438   8.495  19.932  0.00  0.00    +0.000 C 
ATOM      6  C   UNL     1       1.851   7.904  20.081  0.00  0.00    +0.000 C 
ATOM      7  N   UNL     1       2.552   7.813  18.776  0.00  0.00    +0.000 NA
ATOM      8  C   UNL     1       2.679   9.154  18.162  0.00  0.00    +0.000 C 
ATOM      9  C   UNL     1       1.303   9.826  17.951  0.00  0.00    +0.000 C 
ATOM     10  C   UNL     1      -0.866  10.438  19.002  0.00  0.00    +0.000 A 
ATOM     11  C   UNL     1      -1.885   9.862  18.233  0.00  0.00    +0.000 A 
ATOM     12  C   UNL     1      -3.094  10.558  18.089  0.00  0.00    +0.000 A 
ATOM     13  C   UNL     1      -3.263  11.814  18.699  0.00  0.00    +0.000 A 
ATOM     14  C   UNL     1      -2.225  12.381  19.459  0.00  0.00    +0.000 A 
ATOM     15  F   UNL     1      -2.395  13.592  20.042  0.00  0.00    +0.000 F 
ATOM     16  C   UNL     1      -1.029  11.660  19.597  0.00  0.00    +0.000 A 
ENDROOT
BRANCH   7  17
ATOM     17  C   UNL     1       1.967   6.827  17.834  0.00  0.00    +0.000 C 
BRANCH  17  18
ATOM     18  C   UNL     1       2.484   5.434  18.076  0.00  0.00    +0.000 A 
ATOM     19  C   UNL     1       1.644   4.325  17.918  0.00  0.00    +0.000 A 
ATOM     20  C   UNL     1       2.137   3.042  18.155  0.00  0.00    +0.000 A 
ATOM     21  C   UNL     1       3.468   2.879  18.545  0.00  0.00    +0.000 A 
ATOM     22  N   UNL     1       4.271   3.964  18.692  0.00  0.00    +0.000 NA
ATOM     23  C   UNL     1       3.816   5.225  18.469  0.00  0.00    +0.000 A 
ENDBRANCH  17  18
ENDBRANCH   7  17
TORSDOF 2
ENDMDL
MODEL 8
REMARK VINA RESULT:      -5.8      4.456      7.038
REMARK  Name = 
REMARK  3 active torsions:
REMARK  status: ('A' for Active; 'I' for Inactive)
REMARK    1  A    between atoms: C_1  and  N_2
REMARK    2  A    between atoms: N_7  and  C_8
REMARK    3  A    between atoms: C_8  and  C_9
REMARK                            x       y       z     vdW  Elec       q    Type
REMARK                         _______ _______ _______ _____ _____    ______ ____
ROOT
ATOM      1  C   UNL     1       1.865  13.225  19.411  0.00  0.00    +0.000 C 
ATOM      2  N   UNL     1       1.330  11.915  19.120  0.00  0.00    +0.000 N 
ATOM      3  C   UNL     1       2.066  10.690  19.342  0.00  0.00    +0.000 C 
ATOM      4  C   UNL     1       1.130   9.545  18.821  0.00  0.00    +0.000 C 
ATOM      5  C   UNL     1       0.882   8.470  19.904  0.00  0.00    +0.000 C 
ATOM      6  C   UNL     1       2.158   7.640  20.133  0.00  0.00    +0.000 C 
ATOM      7  N   UNL     1       2.627   6.992  18.882  0.00  0.00    +0.000 NA
ATOM      8  C   UNL     1       2.925   8.013  17.852  0.00  0.00    +0.000 C 
ATOM      9  C   UNL     1       1.693   8.890  17.535  0.00  0.00    +0.000 C 
ATOM     10  C   UNL     1      -0.135  10.284  18.485  0.00  0.00    +0.000 A 
ATOM     11  C   UNL     1      -1.349   9.757  18.028  0.00  0.00    +0.000 A 
ATOM     12  C   UNL     1      -2.404  10.638  17.753  0.00  0.00    +0.000 A 
ATOM     13  C   UNL     1      -2.230  12.024  17.924  0.00  0.00    +0.000 A 
ATOM     14  C   UNL     1      -1.001  12.536  18.374  0.00  0.00    +0.000 A 
ATOM     15  F   UNL     1      -0.841  13.872  18.535  0.00  0.00    +0.000 F 
ATOM     16  C   UNL     1       0.036  11.632  18.652  0.00  0.00    +0.000 A 
ENDROOT
BRANCH   7  17
ATOM     17  C   UNL     1       1.728   5.931  18.366  0.00  0.00    +0.000 C 
BRANCH  17  18
ATOM     18  C   UNL     1       2.335   4.560  18.492  0.00  0.00    +0.000 A 
ATOM     19  C   UNL     1       3.702   4.406  18.748  0.00  0.00    +0.000 A 
ATOM     20  C   UNL     1       4.249   3.127  18.853  0.00  0.00    +0.000 A 
ATOM     21  C   UNL     1       3.422   2.012  18.704  0.00  0.00    +0.000 A 
ATOM     22  N   UNL     1       2.097   2.177  18.458  0.00  0.00    +0.000 NA
ATOM     23  C   UNL     1       1.539   3.411  18.350  0.00  0.00    +0.000 A 
ENDBRANCH  17  18
ENDBRANCH   7  17
TORSDOF 2
ENDMDL
MODEL 9
REMARK VINA RESULT:      -5.8      9.378     10.504
REMARK  Name = 
REMARK  3 active torsions:
REMARK  status: ('A' for Active; 'I' for Inactive)
REMARK    1  A    between atoms: C_1  and  N_2
REMARK    2  A    between atoms: N_7  and  C_8
REMARK    3  A    between atoms: C_8  and  C_9
REMARK                            x       y       z     vdW  Elec       q    Type
REMARK                         _______ _______ _______ _____ _____    ______ ____
ROOT
ATOM      1  C   UNL     1      -5.398  12.663  20.170  0.00  0.00    +0.000 C 
ATOM      2  N   UNL     1      -4.077  12.370  19.665  0.00  0.00    +0.000 N 
ATOM      3  C   UNL     1      -2.867  12.628  20.414  0.00  0.00    +0.000 C 
ATOM      4  C   UNL     1      -1.693  12.226  19.455  0.00  0.00    +0.000 C 
ATOM      5  C   UNL     1      -0.743  11.198  20.111  0.00  0.00    +0.000 C 
ATOM      6  C   UNL     1       0.085  11.870  21.221  0.00  0.00    +0.000 C 
ATOM      7  N   UNL     1       0.870  13.020  20.705  0.00  0.00    +0.000 NA
ATOM      8  C   UNL     1      -0.030  14.041  20.124  0.00  0.00    +0.000 C 
ATOM      9  C   UNL     1      -0.895  13.466  18.980  0.00  0.00    +0.000 C 
ATOM     10  C   UNL     1      -2.420  11.629  18.283  0.00  0.00    +0.000 A 
ATOM     11  C   UNL     1      -1.873  11.039  17.137  0.00  0.00    +0.000 A 
ATOM     12  C   UNL     1      -2.743  10.560  16.146  0.00  0.00    +0.000 A 
ATOM     13  C   UNL     1      -4.134  10.687  16.307  0.00  0.00    +0.000 A 
ATOM     14  C   UNL     1      -4.664  11.291  17.459  0.00  0.00    +0.000 A 
ATOM     15  F   UNL     1      -6.007  11.412  17.606  0.00  0.00    +0.000 F 
ATOM     16  C   UNL     1      -3.774  11.753  18.441  0.00  0.00    +0.000 A 
ENDROOT
BRANCH   7  17
ATOM     17  C   UNL     1       1.960  12.647  19.770  0.00  0.00    +0.000 C 
BRANCH  17  18
ATOM     18  C   UNL     1       2.810  13.829  19.388  0.00  0.00    +0.000 A 
ATOM     19  C   UNL     1       2.850  14.280  18.064  0.00  0.00    +0.000 A 
ATOM     20  C   UNL     1       3.650  15.372  17.726  0.00  0.00    +0.000 A 
ATOM     21  C   UNL     1       4.402  16.004  18.718  0.00  0.00    +0.000 A 
ATOM     22  N   UNL     1       4.352  15.557  19.999  0.00  0.00    +0.000 NA
ATOM     23  C   UNL     1       3.582  14.495  20.354  0.00  0.00    +0.000 A 
ENDBRANCH  17  18
ENDBRANCH   7  17
TORSDOF 2
ENDMDL
