MODEL 1
REMARK VINA RESULT:      -8.3      0.000      0.000
REMARK  Name = 
REMARK  9 active torsions:
REMARK  status: ('A' for Active; 'I' for Inactive)
REMARK    1  A    between atoms: C_1  and  C_2
REMARK    2  A    between atoms: C_2  and  O_3
REMARK    3  A    between atoms: O_3  and  C_4
REMARK    4  A    between atoms: C_7  and  C_8
REMARK    5  A    between atoms: N_9  and  N_10
REMARK    6  A    between atoms: C_11  and  C_13
REMARK    7  A    between atoms: C_18  and  O_19
REMARK    8  A    between atoms: C_21  and  C_22
REMARK    9  A    between atoms: C_22  and  N_23
REMARK                            x       y       z     vdW  Elec       q    Type
REMARK                         _______ _______ _______ _____ _____    ______ ____
ROOT
ATOM      1  C   UNL     1      -1.173  11.558  20.946  0.00  0.00    +0.000 A 
ATOM      2  C   UNL     1      -0.108  10.751  21.374  0.00  0.00    +0.000 A 
ATOM      3  C   UNL     1       0.686  10.036  20.454  0.00  0.00    +0.000 A 
ATOM      4  C   UNL     1       0.458  10.133  19.079  0.00  0.00    +0.000 A 
ATOM      5  C   UNL     1      -0.558  10.992  18.631  0.00  0.00    +0.000 A 
ATOM      6  C   UNL     1      -1.399  11.689  19.549  0.00  0.00    +0.000 A 
ENDROOT
BRANCH   4   7
ATOM      7  C   UNL     1       1.229   9.274  18.113  0.00  0.00    +0.000 C 
ATOM      8  N   UNL     1       2.272   8.610  18.505  0.00  0.00    +0.000 NA
BRANCH   8   9
ATOM      9  N   UNL     1       2.929   7.783  17.615  0.00  0.00    +0.000 N 
ATOM     10  C   UNL     1       3.517   6.609  18.110  0.00  0.00    +0.000 C 
ATOM     11  O   UNL     1       3.435   6.278  19.298  0.00  0.00    +0.000 OA
ATOM     12  H   UNL     1       2.973   7.996  16.615  0.00  0.00    +0.000 HD
BRANCH  10  13
ATOM     13  C   UNL     1       4.270   5.692  17.186  0.00  0.00    +0.000 A 
ATOM     14  C   UNL     1       4.996   6.306  16.139  0.00  0.00    +0.000 A 
ATOM     15  C   UNL     1       5.705   5.560  15.190  0.00  0.00    +0.000 A 
ATOM     16  C   UNL     1       5.708   4.173  15.271  0.00  0.00    +0.000 A 
ATOM     17  C   UNL     1       5.011   3.543  16.303  0.00  0.00    +0.000 A 
ATOM     18  C   UNL     1       4.298   4.294  17.258  0.00  0.00    +0.000 A 
BRANCH  18  19
ATOM     19  O   UNL     1       3.632   3.630  18.254  0.00  0.00    +0.000 OA
ATOM     20  H   UNL     1       4.274   3.042  18.701  0.00  0.00    +0.000 HD
ENDBRANCH  18  19
ENDBRANCH  10  13
ENDBRANCH   8   9
ENDBRANCH   4   7
BRANCH   1  21
ATOM     21  O   UNL     1      -2.037  12.217  21.801  0.00  0.00    +0.000 OA
BRANCH  21  23
ATOM     22  C   UNL     1      -3.408  12.206  23.837  0.00  0.00    +0.000 C 
ATOM     23  C   UNL     1      -2.093  11.791  23.173  0.00  0.00    +0.000 C 
ENDBRANCH  21  23
ENDBRANCH   1  21
BRANCH   6  24
ATOM     24  C   UNL     1      -2.599  12.463  19.000  0.00  0.00    +0.000 C 
BRANCH  24  25
ATOM     25  N   UNL     1      -3.946  11.842  19.142  0.00  0.00    +0.000 NA
ATOM     26  C   UNL     1      -4.634  11.769  17.852  0.00  0.00    +0.000 C 
ATOM     27  C   UNL     1      -6.174  11.568  17.863  0.00  0.00    +0.000 C 
ATOM     28  C   UNL     1      -6.813  11.638  19.246  0.00  0.00    +0.000 C 
ATOM     29  C   UNL     1      -6.219  12.859  19.919  0.00  0.00    +0.000 C 
ATOM     30  C   UNL     1      -4.713  12.577  20.181  0.00  0.00    +0.000 C 
ATOM     31  C   UNL     1      -6.470  14.119  19.083  0.00  0.00    +0.000 A 
ATOM     32  C   UNL     1      -6.536  15.330  19.666  0.00  0.00    +0.000 A 
ATOM     33  C   UNL     1      -6.655  16.523  18.869  0.00  0.00    +0.000 A 
ATOM     34  C   UNL     1      -6.816  16.446  17.541  0.00  0.00    +0.000 A 
ATOM     35  C   UNL     1      -6.926  15.122  16.888  0.00  0.00    +0.000 A 
ATOM     36  O   UNL     1      -7.218  15.067  15.697  0.00  0.00    +0.000 OA
ATOM     37  N   UNL     1      -6.670  14.011  17.697  0.00  0.00    +0.000 N 
ATOM     38  C   UNL     1      -6.797  12.710  17.049  0.00  0.00    +0.000 C 
ENDBRANCH  24  25
ENDBRANCH   6  24
TORSDOF 8
ENDMDL
MODEL 2
REMARK VINA RESULT:      -8.3      2.520      4.556
REMARK  Name = 
REMARK  9 active torsions:
REMARK  status: ('A' for Active; 'I' for Inactive)
REMARK    1  A    between atoms: C_1  and  C_2
REMARK    2  A    between atoms: C_2  and  O_3
REMARK    3  A    between atoms: O_3  and  C_4
REMARK    4  A    between atoms: C_7  and  C_8
REMARK    5  A    between atoms: N_9  and  N_10
REMARK    6  A    between atoms: C_11  and  C_13
REMARK    7  A    between atoms: C_18  and  O_19
REMARK    8  A    between atoms: C_21  and  C_22
REMARK    9  A    between atoms: C_22  and  N_23
REMARK                            x       y       z     vdW  Elec       q    Type
REMARK                         _______ _______ _______ _____ _____    ______ ____
ROOT
ATOM      1  C   UNL     1      -2.795  11.234  18.194  0.00  0.00    +0.000 A 
ATOM      2  C   UNL     1      -2.476  10.069  17.482  0.00  0.00    +0.000 A 
ATOM      3  C   UNL     1      -1.158   9.568  17.447  0.00  0.00    +0.000 A 
ATOM      4  C   UNL     1      -0.129  10.202  18.149  0.00  0.00    +0.000 A 
ATOM      5  C   UNL     1      -0.446  11.328  18.924  0.00  0.00    +0.000 A 
ATOM      6  C   UNL     1      -1.765  11.873  18.936  0.00  0.00    +0.000 A 
ENDROOT
BRANCH   4   7
ATOM      7  C   UNL     1       1.294   9.733  18.008  0.00  0.00    +0.000 C 
ATOM      8  N   UNL     1       1.594   8.478  18.142  0.00  0.00    +0.000 NA
BRANCH   8   9
ATOM      9  N   UNL     1       2.898   8.064  17.950  0.00  0.00    +0.000 N 
ATOM     10  C   UNL     1       3.174   6.690  18.015  0.00  0.00    +0.000 C 
ATOM     11  O   UNL     1       2.292   5.846  18.201  0.00  0.00    +0.000 OA
ATOM     12  H   UNL     1       3.648   8.729  17.743  0.00  0.00    +0.000 HD
BRANCH  10  13
ATOM     13  C   UNL     1       4.583   6.193  17.845  0.00  0.00    +0.000 A 
ATOM     14  C   UNL     1       5.150   5.506  18.944  0.00  0.00    +0.000 A 
ATOM     15  C   UNL     1       6.466   5.029  18.925  0.00  0.00    +0.000 A 
ATOM     16  C   UNL     1       7.249   5.225  17.794  0.00  0.00    +0.000 A 
ATOM     17  C   UNL     1       6.710   5.889  16.691  0.00  0.00    +0.000 A 
ATOM     18  C   UNL     1       5.385   6.368  16.711  0.00  0.00    +0.000 A 
BRANCH  18  19
ATOM     19  O   UNL     1       4.900   7.009  15.602  0.00  0.00    +0.000 OA
ATOM     20  H   UNL     1       5.140   6.473  14.819  0.00  0.00    +0.000 HD
ENDBRANCH  18  19
ENDBRANCH  10  13
ENDBRANCH   8   9
ENDBRANCH   4   7
BRANCH   1  21
ATOM     21  O   UNL     1      -4.048  11.819  18.200  0.00  0.00    +0.000 OA
BRANCH  21  23
ATOM     22  C   UNL     1      -6.077  12.631  17.082  0.00  0.00    +0.000 C 
ATOM     23  C   UNL     1      -4.854  11.714  17.014  0.00  0.00    +0.000 C 
ENDBRANCH  21  23
ENDBRANCH   1  21
BRANCH   6  24
ATOM     24  C   UNL     1      -2.001  13.203  19.654  0.00  0.00    +0.000 C 
BRANCH  24  25
ATOM     25  N   UNL     1      -1.510  13.329  21.056  0.00  0.00    +0.000 NA
ATOM     26  C   UNL     1      -2.031  12.251  21.897  0.00  0.00    +0.000 C 
ATOM     27  C   UNL     1      -1.993  12.453  23.438  0.00  0.00    +0.000 C 
ATOM     28  C   UNL     1      -1.563  13.846  23.885  0.00  0.00    +0.000 C 
ATOM     29  C   UNL     1      -2.347  14.820  23.027  0.00  0.00    +0.000 C 
ATOM     30  C   UNL     1      -1.837  14.688  21.564  0.00  0.00    +0.000 C 
ATOM     31  C   UNL     1      -3.853  14.587  23.174  0.00  0.00    +0.000 A 
ATOM     32  C   UNL     1      -4.728  15.590  22.975  0.00  0.00    +0.000 A 
ATOM     33  C   UNL     1      -6.146  15.344  22.999  0.00  0.00    +0.000 A 
ATOM     34  C   UNL     1      -6.626  14.138  23.330  0.00  0.00    +0.000 A 
ATOM     35  C   UNL     1      -5.695  13.058  23.727  0.00  0.00    +0.000 A 
ATOM     36  O   UNL     1      -6.153  12.007  24.167  0.00  0.00    +0.000 OA
ATOM     37  N   UNL     1      -4.333  13.323  23.554  0.00  0.00    +0.000 N 
ATOM     38  C   UNL     1      -3.422  12.259  23.965  0.00  0.00    +0.000 C 
ENDBRANCH  24  25
ENDBRANCH   6  24
TORSDOF 8
ENDMDL
MODEL 3
REMARK VINA RESULT:      -8.1      2.570      4.223
REMARK  Name = 
REMARK  9 active torsions:
REMARK  status: ('A' for Active; 'I' for Inactive)
REMARK    1  A    between atoms: C_1  and  C_2
REMARK    2  A    between atoms: C_2  and  O_3
REMARK    3  A    between atoms: O_3  and  C_4
REMARK    4  A    between atoms: C_7  and  C_8
REMARK    5  A    between atoms: N_9  and  N_10
REMARK    6  A    between atoms: C_11  and  C_13
REMARK    7  A    between atoms: C_18  and  O_19
REMARK    8  A    between atoms: C_21  and  C_22
REMARK    9  A    between atoms: C_22  and  N_23
REMARK                            x       y       z     vdW  Elec       q    Type
REMARK                         _______ _______ _______ _____ _____    ______ ____
ROOT
ATOM      1  C   UNL     1      -2.799  11.312  18.119  0.00  0.00    +0.000 A 
ATOM      2  C   UNL     1      -2.469  10.142  17.420  0.00  0.00    +0.000 A 
ATOM      3  C   UNL     1      -1.157   9.625  17.433  0.00  0.00    +0.000 A 
ATOM      4  C   UNL     1      -0.146  10.247  18.170  0.00  0.00    +0.000 A 
ATOM      5  C   UNL     1      -0.477  11.379  18.932  0.00  0.00    +0.000 A 
ATOM      6  C   UNL     1      -1.789  11.940  18.896  0.00  0.00    +0.000 A 
ENDROOT
BRANCH   4   7
ATOM      7  C   UNL     1       1.275   9.762  18.081  0.00  0.00    +0.000 C 
ATOM      8  N   UNL     1       1.551   8.499  18.194  0.00  0.00    +0.000 NA
BRANCH   8   9
ATOM      9  N   UNL     1       2.857   8.070  18.050  0.00  0.00    +0.000 N 
ATOM     10  C   UNL     1       3.108   6.690  18.072  0.00  0.00    +0.000 C 
ATOM     11  O   UNL     1       2.205   5.854  18.179  0.00  0.00    +0.000 OA
ATOM     12  H   UNL     1       3.626   8.730  17.907  0.00  0.00    +0.000 HD
BRANCH  10  13
ATOM     13  C   UNL     1       4.517   6.176  17.951  0.00  0.00    +0.000 A 
ATOM     14  C   UNL     1       5.420   6.972  17.208  0.00  0.00    +0.000 A 
ATOM     15  C   UNL     1       6.747   6.583  16.989  0.00  0.00    +0.000 A 
ATOM     16  C   UNL     1       7.205   5.384  17.520  0.00  0.00    +0.000 A 
ATOM     17  C   UNL     1       6.339   4.586  18.268  0.00  0.00    +0.000 A 
ATOM     18  C   UNL     1       5.003   4.978  18.488  0.00  0.00    +0.000 A 
BRANCH  18  19
ATOM     19  O   UNL     1       4.193   4.164  19.234  0.00  0.00    +0.000 OA
ATOM     20  H   UNL     1       3.282   4.252  18.887  0.00  0.00    +0.000 HD
ENDBRANCH  18  19
ENDBRANCH  10  13
ENDBRANCH   8   9
ENDBRANCH   4   7
BRANCH   1  21
ATOM     21  O   UNL     1      -4.045  11.912  18.079  0.00  0.00    +0.000 OA
BRANCH  21  23
ATOM     22  C   UNL     1      -5.475  12.269  20.042  0.00  0.00    +0.000 C 
ATOM     23  C   UNL     1      -5.097  11.348  18.880  0.00  0.00    +0.000 C 
ENDBRANCH  21  23
ENDBRANCH   1  21
BRANCH   6  24
ATOM     24  C   UNL     1      -2.034  13.274  19.604  0.00  0.00    +0.000 C 
BRANCH  24  25
ATOM     25  N   UNL     1      -1.556  13.409  21.009  0.00  0.00    +0.000 NA
ATOM     26  C   UNL     1      -2.091  12.342  21.855  0.00  0.00    +0.000 C 
ATOM     27  C   UNL     1      -2.067  12.557  23.394  0.00  0.00    +0.000 C 
ATOM     28  C   UNL     1      -1.633  13.952  23.833  0.00  0.00    +0.000 C 
ATOM     29  C   UNL     1      -2.402  14.922  22.959  0.00  0.00    +0.000 C 
ATOM     30  C   UNL     1      -1.880  14.774  21.502  0.00  0.00    +0.000 C 
ATOM     31  C   UNL     1      -3.912  14.699  23.093  0.00  0.00    +0.000 A 
ATOM     32  C   UNL     1      -4.779  15.706  22.877  0.00  0.00    +0.000 A 
ATOM     33  C   UNL     1      -6.199  15.467  22.890  0.00  0.00    +0.000 A 
ATOM     34  C   UNL     1      -6.688  14.267  23.227  0.00  0.00    +0.000 A 
ATOM     35  C   UNL     1      -5.767  13.186  23.643  0.00  0.00    +0.000 A 
ATOM     36  O   UNL     1      -6.235  12.142  24.087  0.00  0.00    +0.000 OA
ATOM     37  N   UNL     1      -4.403  13.441  23.481  0.00  0.00    +0.000 N 
ATOM     38  C   UNL     1      -3.501  12.376  23.909  0.00  0.00    +0.000 C 
ENDBRANCH  24  25
ENDBRANCH   6  24
TORSDOF 8
ENDMDL
MODEL 4
REMARK VINA RESULT:      -8.1      1.323      1.734
REMARK  Name = 
REMARK  9 active torsions:
REMARK  status: ('A' for Active; 'I' for Inactive)
REMARK    1  A    between atoms: C_1  and  C_2
REMARK    2  A    between atoms: C_2  and  O_3
REMARK    3  A    between atoms: O_3  and  C_4
REMARK    4  A    between atoms: C_7  and  C_8
REMARK    5  A    between atoms: N_9  and  N_10
REMARK    6  A    between atoms: C_11  and  C_13
REMARK    7  A    between atoms: C_18  and  O_19
REMARK    8  A    between atoms: C_21  and  C_22
REMARK    9  A    between atoms: C_22  and  N_23
REMARK                            x       y       z     vdW  Elec       q    Type
REMARK                         _______ _______ _______ _____ _____    ______ ____
ROOT
ATOM      1  C   UNL     1      -2.044  12.422  22.173  0.00  0.00    +0.000 A 
ATOM      2  C   UNL     1      -1.184  11.745  23.051  0.00  0.00    +0.000 A 
ATOM      3  C   UNL     1      -0.376  10.678  22.608  0.00  0.00    +0.000 A 
ATOM      4  C   UNL     1      -0.381  10.279  21.269  0.00  0.00    +0.000 A 
ATOM      5  C   UNL     1      -1.181  10.993  20.364  0.00  0.00    +0.000 A 
ATOM      6  C   UNL     1      -2.038  12.048  20.802  0.00  0.00    +0.000 A 
ENDROOT
BRANCH   4   7
ATOM      7  C   UNL     1       0.390   9.064  20.830  0.00  0.00    +0.000 C 
ATOM      8  N   UNL     1       1.234   9.135  19.847  0.00  0.00    +0.000 NA
BRANCH   8   9
ATOM      9  N   UNL     1       1.974   8.021  19.500  0.00  0.00    +0.000 N 
ATOM     10  C   UNL     1       2.479   7.940  18.193  0.00  0.00    +0.000 C 
ATOM     11  O   UNL     1       2.315   8.840  17.363  0.00  0.00    +0.000 OA
ATOM     12  H   UNL     1       2.175   7.278  20.175  0.00  0.00    +0.000 HD
BRANCH  10  13
ATOM     13  C   UNL     1       3.262   6.732  17.759  0.00  0.00    +0.000 A 
ATOM     14  C   UNL     1       4.394   6.970  16.945  0.00  0.00    +0.000 A 
ATOM     15  C   UNL     1       5.182   5.927  16.443  0.00  0.00    +0.000 A 
ATOM     16  C   UNL     1       4.856   4.613  16.753  0.00  0.00    +0.000 A 
ATOM     17  C   UNL     1       3.751   4.351  17.565  0.00  0.00    +0.000 A 
ATOM     18  C   UNL     1       2.959   5.401  18.070  0.00  0.00    +0.000 A 
BRANCH  18  19
ATOM     19  O   UNL     1       1.889   5.093  18.867  0.00  0.00    +0.000 OA
ATOM     20  H   UNL     1       1.977   5.605  19.696  0.00  0.00    +0.000 HD
ENDBRANCH  18  19
ENDBRANCH  10  13
ENDBRANCH   8   9
ENDBRANCH   4   7
BRANCH   1  21
ATOM     21  O   UNL     1      -2.919  13.420  22.563  0.00  0.00    +0.000 OA
BRANCH  21  23
ATOM     22  C   UNL     1      -1.650  15.491  22.202  0.00  0.00    +0.000 C 
ATOM     23  C   UNL     1      -2.377  14.588  23.202  0.00  0.00    +0.000 C 
ENDBRANCH  21  23
ENDBRANCH   1  21
BRANCH   6  24
ATOM     24  C   UNL     1      -3.016  12.661  19.799  0.00  0.00    +0.000 C 
BRANCH  24  25
ATOM     25  N   UNL     1      -4.330  11.984  19.611  0.00  0.00    +0.000 NA
ATOM     26  C   UNL     1      -4.723  11.973  18.201  0.00  0.00    +0.000 C 
ATOM     27  C   UNL     1      -6.219  11.715  17.869  0.00  0.00    +0.000 C 
ATOM     28  C   UNL     1      -7.140  11.670  19.084  0.00  0.00    +0.000 C 
ATOM     29  C   UNL     1      -6.764  12.865  19.937  0.00  0.00    +0.000 C 
ATOM     30  C   UNL     1      -5.336  12.621  20.502  0.00  0.00    +0.000 C 
ATOM     31  C   UNL     1      -6.893  14.167  19.141  0.00  0.00    +0.000 A 
ATOM     32  C   UNL     1      -7.141  15.334  19.764  0.00  0.00    +0.000 A 
ATOM     33  C   UNL     1      -7.147  16.572  19.030  0.00  0.00    +0.000 A 
ATOM     34  C   UNL     1      -7.018  16.578  17.697  0.00  0.00    +0.000 A 
ATOM     35  C   UNL     1      -6.921  15.298  16.960  0.00  0.00    +0.000 A 
ATOM     36  O   UNL     1      -6.950  15.311  15.733  0.00  0.00    +0.000 OA
ATOM     37  N   UNL     1      -6.788  14.145  17.741  0.00  0.00    +0.000 N 
ATOM     38  C   UNL     1      -6.710  12.886  17.007  0.00  0.00    +0.000 C 
ENDBRANCH  24  25
ENDBRANCH   6  24
TORSDOF 8
ENDMDL
MODEL 5
REMARK VINA RESULT:      -8.0      8.545     11.952
REMARK  Name = 
REMARK  9 active torsions:
REMARK  status: ('A' for Active; 'I' for Inactive)
REMARK    1  A    between atoms: C_1  and  C_2
REMARK    2  A    between atoms: C_2  and  O_3
REMARK    3  A    between atoms: O_3  and  C_4
REMARK    4  A    between atoms: C_7  and  C_8
REMARK    5  A    between atoms: N_9  and  N_10
REMARK    6  A    between atoms: C_11  and  C_13
REMARK    7  A    between atoms: C_18  and  O_19
REMARK    8  A    between atoms: C_21  and  C_22
REMARK    9  A    between atoms: C_22  and  N_23
REMARK                            x       y       z     vdW  Elec       q    Type
REMARK                         _______ _______ _______ _____ _____    ______ ____
ROOT
ATOM      1  C   UNL     1       5.803   5.055  17.278  0.00  0.00    +0.000 A 
ATOM      2  C   UNL     1       7.156   4.796  17.543  0.00  0.00    +0.000 A 
ATOM      3  C   UNL     1       8.022   5.813  17.997  0.00  0.00    +0.000 A 
ATOM      4  C   UNL     1       7.552   7.108  18.229  0.00  0.00    +0.000 A 
ATOM      5  C   UNL     1       6.185   7.365  18.036  0.00  0.00    +0.000 A 
ATOM      6  C   UNL     1       5.304   6.360  17.536  0.00  0.00    +0.000 A 
ENDROOT
BRANCH   4   7
ATOM      7  C   UNL     1       8.505   8.214  18.594  0.00  0.00    +0.000 C 
ATOM      8  N   UNL     1       8.414   9.379  18.031  0.00  0.00    +0.000 NA
BRANCH   8   9
ATOM      9  N   UNL     1       9.262  10.395  18.425  0.00  0.00    +0.000 N 
ATOM     10  C   UNL     1       8.991  11.697  17.977  0.00  0.00    +0.000 C 
ATOM     11  O   UNL     1       8.008  11.966  17.280  0.00  0.00    +0.000 OA
ATOM     12  H   UNL     1      10.058  10.221  19.045  0.00  0.00    +0.000 HD
BRANCH  10  13
ATOM     13  C   UNL     1       9.903  12.832  18.353  0.00  0.00    +0.000 A 
ATOM     14  C   UNL     1       9.301  13.948  18.981  0.00  0.00    +0.000 A 
ATOM     15  C   UNL     1      10.036  15.083  19.343  0.00  0.00    +0.000 A 
ATOM     16  C   UNL     1      11.402  15.124  19.090  0.00  0.00    +0.000 A 
ATOM     17  C   UNL     1      12.023  14.032  18.484  0.00  0.00    +0.000 A 
ATOM     18  C   UNL     1      11.283  12.889  18.120  0.00  0.00    +0.000 A 
BRANCH  18  19
ATOM     19  O   UNL     1      11.938  11.840  17.533  0.00  0.00    +0.000 OA
ATOM     20  H   UNL     1      11.759  11.040  18.066  0.00  0.00    +0.000 HD
ENDBRANCH  18  19
ENDBRANCH  10  13
ENDBRANCH   8   9
ENDBRANCH   4   7
BRANCH   1  21
ATOM     21  O   UNL     1       4.925   4.123  16.755  0.00  0.00    +0.000 OA
BRANCH  21  23
ATOM     22  C   UNL     1       5.524   4.373  14.388  0.00  0.00    +0.000 C 
ATOM     23  C   UNL     1       5.311   3.417  15.564  0.00  0.00    +0.000 C 
ENDBRANCH  21  23
ENDBRANCH   1  21
BRANCH   6  24
ATOM     24  C   UNL     1       3.870   6.756  17.178  0.00  0.00    +0.000 C 
BRANCH  24  25
ATOM     25  N   UNL     1       2.797   6.428  18.158  0.00  0.00    +0.000 NA
ATOM     26  C   UNL     1       3.357   6.131  19.477  0.00  0.00    +0.000 C 
ATOM     27  C   UNL     1       2.463   5.359  20.486  0.00  0.00    +0.000 C 
ATOM     28  C   UNL     1       1.147   4.850  19.907  0.00  0.00    +0.000 C 
ATOM     29  C   UNL     1       1.495   4.207  18.580  0.00  0.00    +0.000 C 
ATOM     30  C   UNL     1       1.958   5.330  17.610  0.00  0.00    +0.000 C 
ATOM     31  C   UNL     1       2.532   3.094  18.769  0.00  0.00    +0.000 A 
ATOM     32  C   UNL     1       2.601   2.064  17.906  0.00  0.00    +0.000 A 
ATOM     33  C   UNL     1       3.647   1.082  18.017  0.00  0.00    +0.000 A 
ATOM     34  C   UNL     1       4.506   1.110  19.044  0.00  0.00    +0.000 A 
ATOM     35  C   UNL     1       4.349   2.126  20.108  0.00  0.00    +0.000 A 
ATOM     36  O   UNL     1       5.049   2.050  21.115  0.00  0.00    +0.000 OA
ATOM     37  N   UNL     1       3.400   3.125  19.872  0.00  0.00    +0.000 N 
ATOM     38  C   UNL     1       3.240   4.114  20.934  0.00  0.00    +0.000 C 
ENDBRANCH  24  25
ENDBRANCH   6  24
TORSDOF 8
ENDMDL
MODEL 6
REMARK VINA RESULT:      -8.0      4.360      6.201
REMARK  Name = 
REMARK  9 active torsions:
REMARK  status: ('A' for Active; 'I' for Inactive)
REMARK    1  A    between atoms: C_1  and  C_2
REMARK    2  A    between atoms: C_2  and  O_3
REMARK    3  A    between atoms: O_3  and  C_4
REMARK    4  A    between atoms: C_7  and  C_8
REMARK    5  A    between atoms: N_9  and  N_10
REMARK    6  A    between atoms: C_11  and  C_13
REMARK    7  A    between atoms: C_18  and  O_19
REMARK    8  A    between atoms: C_21  and  C_22
REMARK    9  A    between atoms: C_22  and  N_23
REMARK                            x       y       z     vdW  Elec       q    Type
REMARK                         _______ _______ _______ _____ _____    ______ ____
ROOT
ATOM      1  C   UNL     1      -0.986  11.550  22.651  0.00  0.00    +0.000 A 
ATOM      2  C   UNL     1      -0.855  10.215  23.061  0.00  0.00    +0.000 A 
ATOM      3  C   UNL     1      -0.120   9.283  22.300  0.00  0.00    +0.000 A 
ATOM      4  C   UNL     1       0.532   9.667  21.125  0.00  0.00    +0.000 A 
ATOM      5  C   UNL     1       0.470  11.016  20.740  0.00  0.00    +0.000 A 
ATOM      6  C   UNL     1      -0.305  11.963  21.474  0.00  0.00    +0.000 A 
ENDROOT
BRANCH   4   7
ATOM      7  C   UNL     1       1.210   8.643  20.256  0.00  0.00    +0.000 C 
ATOM      8  N   UNL     1       1.898   7.678  20.785  0.00  0.00    +0.000 NA
BRANCH   8   9
ATOM      9  N   UNL     1       2.462   6.717  19.970  0.00  0.00    +0.000 N 
ATOM     10  C   UNL     1       1.941   5.415  20.020  0.00  0.00    +0.000 C 
ATOM     11  O   UNL     1       0.979   5.114  20.734  0.00  0.00    +0.000 OA
ATOM     12  H   UNL     1       3.226   6.939  19.326  0.00  0.00    +0.000 HD
BRANCH  10  13
ATOM     13  C   UNL     1       2.543   4.326  19.175  0.00  0.00    +0.000 A 
ATOM     14  C   UNL     1       2.260   2.995  19.561  0.00  0.00    +0.000 A 
ATOM     15  C   UNL     1       2.793   1.894  18.881  0.00  0.00    +0.000 A 
ATOM     16  C   UNL     1       3.623   2.102  17.786  0.00  0.00    +0.000 A 
ATOM     17  C   UNL     1       3.908   3.405  17.376  0.00  0.00    +0.000 A 
ATOM     18  C   UNL     1       3.370   4.513  18.061  0.00  0.00    +0.000 A 
BRANCH  18  19
ATOM     19  O   UNL     1       3.674   5.772  17.617  0.00  0.00    +0.000 OA
ATOM     20  H   UNL     1       3.801   5.724  16.648  0.00  0.00    +0.000 HD
ENDBRANCH  18  19
ENDBRANCH  10  13
ENDBRANCH   8   9
ENDBRANCH   4   7
BRANCH   1  21
ATOM     21  O   UNL     1      -1.759  12.490  23.309  0.00  0.00    +0.000 OA
BRANCH  21  23
ATOM     22  C   UNL     1      -3.942  12.575  24.428  0.00  0.00    +0.000 C 
ATOM     23  C   UNL     1      -3.182  12.464  23.105  0.00  0.00    +0.000 C 
ENDBRANCH  21  23
ENDBRANCH   1  21
BRANCH   6  24
ATOM     24  C   UNL     1      -0.478  13.370  20.899  0.00  0.00    +0.000 C 
BRANCH  24  25
ATOM     25  N   UNL     1       0.202  14.493  21.605  0.00  0.00    +0.000 NA
ATOM     26  C   UNL     1      -0.107  15.778  20.976  0.00  0.00    +0.000 C 
ATOM     27  C   UNL     1       0.830  16.979  21.284  0.00  0.00    +0.000 C 
ATOM     28  C   UNL     1       2.076  16.621  22.088  0.00  0.00    +0.000 C 
ATOM     29  C   UNL     1       2.651  15.379  21.437  0.00  0.00    +0.000 C 
ATOM     30  C   UNL     1       1.659  14.207  21.682  0.00  0.00    +0.000 C 
ATOM     31  C   UNL     1       2.949  15.628  19.955  0.00  0.00    +0.000 A 
ATOM     32  C   UNL     1       3.908  14.929  19.318  0.00  0.00    +0.000 A 
ATOM     33  C   UNL     1       4.109  15.081  17.901  0.00  0.00    +0.000 A 
ATOM     34  C   UNL     1       3.425  16.000  17.207  0.00  0.00    +0.000 A 
ATOM     35  C   UNL     1       2.489  16.907  17.909  0.00  0.00    +0.000 A 
ATOM     36  O   UNL     1       1.981  17.837  17.288  0.00  0.00    +0.000 OA
ATOM     37  N   UNL     1       2.243  16.620  19.255  0.00  0.00    +0.000 N 
ATOM     38  C   UNL     1       1.332  17.529  19.943  0.00  0.00    +0.000 C 
ENDBRANCH  24  25
ENDBRANCH   6  24
TORSDOF 8
ENDMDL
MODEL 7
REMARK VINA RESULT:      -8.0      8.566     12.008
REMARK  Name = 
REMARK  9 active torsions:
REMARK  status: ('A' for Active; 'I' for Inactive)
REMARK    1  A    between atoms: C_1  and  C_2
REMARK    2  A    between atoms: C_2  and  O_3
REMARK    3  A    between atoms: O_3  and  C_4
REMARK    4  A    between atoms: C_7  and  C_8
REMARK    5  A    between atoms: N_9  and  N_10
REMARK    6  A    between atoms: C_11  and  C_13
REMARK    7  A    between atoms: C_18  and  O_19
REMARK    8  A    between atoms: C_21  and  C_22
REMARK    9  A    between atoms: C_22  and  N_23
REMARK                            x       y       z     vdW  Elec       q    Type
REMARK                         _______ _______ _______ _____ _____    ______ ____
ROOT
ATOM      1  C   UNL     1       5.996   5.047  17.371  0.00  0.00    +0.000 A 
ATOM      2  C   UNL     1       7.349   4.867  17.691  0.00  0.00    +0.000 A 
ATOM      3  C   UNL     1       8.155   5.947  18.104  0.00  0.00    +0.000 A 
ATOM      4  C   UNL     1       7.623   7.232  18.240  0.00  0.00    +0.000 A 
ATOM      5  C   UNL     1       6.253   7.415  17.992  0.00  0.00    +0.000 A 
ATOM      6  C   UNL     1       5.432   6.342  17.531  0.00  0.00    +0.000 A 
ENDROOT
BRANCH   4   7
ATOM      7  C   UNL     1       8.515   8.400  18.562  0.00  0.00    +0.000 C 
ATOM      8  N   UNL     1       8.332   9.550  17.989  0.00  0.00    +0.000 NA
BRANCH   8   9
ATOM      9  N   UNL     1       9.126  10.623  18.345  0.00  0.00    +0.000 N 
ATOM     10  C   UNL     1       8.777  11.894  17.865  0.00  0.00    +0.000 C 
ATOM     11  O   UNL     1       7.772  12.088  17.173  0.00  0.00    +0.000 OA
ATOM     12  H   UNL     1       9.937  10.511  18.959  0.00  0.00    +0.000 HD
BRANCH  10  13
ATOM     13  C   UNL     1       9.628  13.088  18.198  0.00  0.00    +0.000 A 
ATOM     14  C   UNL     1      10.884  12.825  18.794  0.00  0.00    +0.000 A 
ATOM     15  C   UNL     1      11.751  13.851  19.187  0.00  0.00    +0.000 A 
ATOM     16  C   UNL     1      11.380  15.175  18.985  0.00  0.00    +0.000 A 
ATOM     17  C   UNL     1      10.153  15.463  18.387  0.00  0.00    +0.000 A 
ATOM     18  C   UNL     1       9.281  14.429  17.991  0.00  0.00    +0.000 A 
BRANCH  18  19
ATOM     19  O   UNL     1       8.089  14.762  17.404  0.00  0.00    +0.000 OA
ATOM     20  H   UNL     1       7.418  14.833  18.112  0.00  0.00    +0.000 HD
ENDBRANCH  18  19
ENDBRANCH  10  13
ENDBRANCH   8   9
ENDBRANCH   4   7
BRANCH   1  21
ATOM     21  O   UNL     1       5.176   4.046  16.883  0.00  0.00    +0.000 OA
BRANCH  21  23
ATOM     22  C   UNL     1       5.585   4.408  14.490  0.00  0.00    +0.000 C 
ATOM     23  C   UNL     1       5.541   3.408  15.647  0.00  0.00    +0.000 C 
ENDBRANCH  21  23
ENDBRANCH   1  21
BRANCH   6  24
ATOM     24  C   UNL     1       3.995   6.649  17.107  0.00  0.00    +0.000 C 
BRANCH  24  25
ATOM     25  N   UNL     1       2.909   6.369  18.089  0.00  0.00    +0.000 NA
ATOM     26  C   UNL     1       3.456   6.087  19.417  0.00  0.00    +0.000 C 
ATOM     27  C   UNL     1       2.539   5.359  20.438  0.00  0.00    +0.000 C 
ATOM     28  C   UNL     1       1.212   4.872  19.864  0.00  0.00    +0.000 C 
ATOM     29  C   UNL     1       1.550   4.191  18.552  0.00  0.00    +0.000 C 
ATOM     30  C   UNL     1       2.046   5.281  17.560  0.00  0.00    +0.000 C 
ATOM     31  C   UNL     1       2.557   3.057  18.769  0.00  0.00    +0.000 A 
ATOM     32  C   UNL     1       2.604   2.007  17.929  0.00  0.00    +0.000 A 
ATOM     33  C   UNL     1       3.625   1.002  18.066  0.00  0.00    +0.000 A 
ATOM     34  C   UNL     1       4.480   1.030  19.097  0.00  0.00    +0.000 A 
ATOM     35  C   UNL     1       4.344   2.073  20.138  0.00  0.00    +0.000 A 
ATOM     36  O   UNL     1       5.037   2.001  21.149  0.00  0.00    +0.000 OA
ATOM     37  N   UNL     1       3.421   3.090  19.876  0.00  0.00    +0.000 N 
ATOM     38  C   UNL     1       3.282   4.105  20.916  0.00  0.00    +0.000 C 
ENDBRANCH  24  25
ENDBRANCH   6  24
TORSDOF 8
ENDMDL
MODEL 8
REMARK VINA RESULT:      -7.9      1.638      1.750
REMARK  Name = 
REMARK  9 active torsions:
REMARK  status: ('A' for Active; 'I' for Inactive)
REMARK    1  A    between atoms: C_1  and  C_2
REMARK    2  A    between atoms: C_2  and  O_3
REMARK    3  A    between atoms: O_3  and  C_4
REMARK    4  A    between atoms: C_7  and  C_8
REMARK    5  A    between atoms: N_9  and  N_10
REMARK    6  A    between atoms: C_11  and  C_13
REMARK    7  A    between atoms: C_18  and  O_19
REMARK    8  A    between atoms: C_21  and  C_22
REMARK    9  A    between atoms: C_22  and  N_23
REMARK                            x       y       z     vdW  Elec       q    Type
REMARK                         _______ _______ _______ _____ _____    ______ ____
ROOT
ATOM      1  C   UNL     1      -1.352  12.475  21.534  0.00  0.00    +0.000 A 
ATOM      2  C   UNL     1      -0.418  11.801  22.335  0.00  0.00    +0.000 A 
ATOM      3  C   UNL     1       0.147  10.574  21.928  0.00  0.00    +0.000 A 
ATOM      4  C   UNL     1      -0.182  10.004  20.696  0.00  0.00    +0.000 A 
ATOM      5  C   UNL     1      -1.060  10.701  19.852  0.00  0.00    +0.000 A 
ATOM      6  C   UNL     1      -1.675  11.922  20.265  0.00  0.00    +0.000 A 
ENDROOT
BRANCH   4   7
ATOM      7  C   UNL     1       0.330   8.638  20.324  0.00  0.00    +0.000 C 
ATOM      8  N   UNL     1       1.571   8.319  20.526  0.00  0.00    +0.000 NA
BRANCH   8   9
ATOM      9  N   UNL     1       2.003   7.041  20.232  0.00  0.00    +0.000 N 
ATOM     10  C   UNL     1       2.617   6.818  18.990  0.00  0.00    +0.000 C 
ATOM     11  O   UNL     1       2.814   7.726  18.176  0.00  0.00    +0.000 OA
ATOM     12  H   UNL     1       1.905   6.273  20.901  0.00  0.00    +0.000 HD
BRANCH  10  13
ATOM     13  C   UNL     1       3.076   5.437  18.610  0.00  0.00    +0.000 A 
ATOM     14  C   UNL     1       2.171   4.654  17.855  0.00  0.00    +0.000 A 
ATOM     15  C   UNL     1       2.464   3.340  17.473  0.00  0.00    +0.000 A 
ATOM     16  C   UNL     1       3.681   2.776  17.837  0.00  0.00    +0.000 A 
ATOM     17  C   UNL     1       4.596   3.530  18.572  0.00  0.00    +0.000 A 
ATOM     18  C   UNL     1       4.301   4.854  18.955  0.00  0.00    +0.000 A 
BRANCH  18  19
ATOM     19  O   UNL     1       5.235   5.555  19.670  0.00  0.00    +0.000 OA
ATOM     20  H   UNL     1       6.120   5.266  19.371  0.00  0.00    +0.000 HD
ENDBRANCH  18  19
ENDBRANCH  10  13
ENDBRANCH   8   9
ENDBRANCH   4   7
BRANCH   1  21
ATOM     21  O   UNL     1      -2.001  13.636  21.912  0.00  0.00    +0.000 OA
BRANCH  21  23
ATOM     22  C   UNL     1      -3.471  12.717  23.651  0.00  0.00    +0.000 C 
ATOM     23  C   UNL     1      -2.419  13.767  23.282  0.00  0.00    +0.000 C 
ENDBRANCH  21  23
ENDBRANCH   1  21
BRANCH   6  24
ATOM     24  C   UNL     1      -2.757  12.534  19.375  0.00  0.00    +0.000 C 
BRANCH  24  25
ATOM     25  N   UNL     1      -4.107  11.903  19.395  0.00  0.00    +0.000 NA
ATOM     26  C   UNL     1      -4.682  11.841  18.050  0.00  0.00    +0.000 C 
ATOM     27  C   UNL     1      -6.217  11.630  17.928  0.00  0.00    +0.000 C 
ATOM     28  C   UNL     1      -6.971  11.680  19.253  0.00  0.00    +0.000 C 
ATOM     29  C   UNL     1      -6.446  12.897  19.987  0.00  0.00    +0.000 C 
ATOM     30  C   UNL     1      -4.965  12.621  20.373  0.00  0.00    +0.000 C 
ATOM     31  C   UNL     1      -6.634  14.164  19.147  0.00  0.00    +0.000 A 
ATOM     32  C   UNL     1      -6.757  15.369  19.735  0.00  0.00    +0.000 A 
ATOM     33  C   UNL     1      -6.817  16.570  18.944  0.00  0.00    +0.000 A 
ATOM     34  C   UNL     1      -6.864  16.507  17.607  0.00  0.00    +0.000 A 
ATOM     35  C   UNL     1      -6.908  15.191  16.932  0.00  0.00    +0.000 A 
ATOM     36  O   UNL     1      -7.098  15.148  15.720  0.00  0.00    +0.000 OA
ATOM     37  N   UNL     1      -6.714  14.072  17.748  0.00  0.00    +0.000 N 
ATOM     38  C   UNL     1      -6.776  12.778  17.077  0.00  0.00    +0.000 C 
ENDBRANCH  24  25
ENDBRANCH   6  24
TORSDOF 8
ENDMDL
MODEL 9
REMARK VINA RESULT:      -7.9      4.451      6.293
REMARK  Name = 
REMARK  9 active torsions:
REMARK  status: ('A' for Active; 'I' for Inactive)
REMARK    1  A    between atoms: C_1  and  C_2
REMARK    2  A    between atoms: C_2  and  O_3
REMARK    3  A    between atoms: O_3  and  C_4
REMARK    4  A    between atoms: C_7  and  C_8
REMARK    5  A    between atoms: N_9  and  N_10
REMARK    6  A    between atoms: C_11  and  C_13
REMARK    7  A    between atoms: C_18  and  O_19
REMARK    8  A    between atoms: C_21  and  C_22
REMARK    9  A    between atoms: C_22  and  N_23
REMARK                            x       y       z     vdW  Elec       q    Type
REMARK                         _______ _______ _______ _____ _____    ______ ____
ROOT
ATOM      1  C   UNL     1      -1.243  12.075  22.707  0.00  0.00    +0.000 A 
ATOM      2  C   UNL     1      -1.367  10.843  23.367  0.00  0.00    +0.000 A 
ATOM      3  C   UNL     1      -0.679   9.697  22.918  0.00  0.00    +0.000 A 
ATOM      4  C   UNL     1       0.178   9.758  21.816  0.00  0.00    +0.000 A 
ATOM      5  C   UNL     1       0.368  10.999  21.188  0.00  0.00    +0.000 A 
ATOM      6  C   UNL     1      -0.353  12.159  21.602  0.00  0.00    +0.000 A 
ENDROOT
BRANCH   4   7
ATOM      7  C   UNL     1       0.812   8.508  21.270  0.00  0.00    +0.000 C 
ATOM      8  N   UNL     1       1.626   8.565  20.261  0.00  0.00    +0.000 NA
BRANCH   8   9
ATOM      9  N   UNL     1       2.242   7.412  19.815  0.00  0.00    +0.000 N 
ATOM     10  C   UNL     1       2.548   7.309  18.450  0.00  0.00    +0.000 C 
ATOM     11  O   UNL     1       2.320   8.222  17.649  0.00  0.00    +0.000 OA
ATOM     12  H   UNL     1       2.493   6.654  20.456  0.00  0.00    +0.000 HD
BRANCH  10  13
ATOM     13  C   UNL     1       3.189   6.060  17.911  0.00  0.00    +0.000 A 
ATOM     14  C   UNL     1       2.425   4.871  17.989  0.00  0.00    +0.000 A 
ATOM     15  C   UNL     1       2.925   3.637  17.558  0.00  0.00    +0.000 A 
ATOM     16  C   UNL     1       4.207   3.564  17.028  0.00  0.00    +0.000 A 
ATOM     17  C   UNL     1       4.977   4.724  16.927  0.00  0.00    +0.000 A 
ATOM     18  C   UNL     1       4.473   5.966  17.361  0.00  0.00    +0.000 A 
BRANCH  18  19
ATOM     19  O   UNL     1       5.265   7.077  17.236  0.00  0.00    +0.000 OA
ATOM     20  H   UNL     1       5.107   7.645  18.018  0.00  0.00    +0.000 HD
ENDBRANCH  18  19
ENDBRANCH  10  13
ENDBRANCH   8   9
ENDBRANCH   4   7
BRANCH   1  21
ATOM     21  O   UNL     1      -1.953  13.211  23.049  0.00  0.00    +0.000 OA
BRANCH  21  23
ATOM     22  C   UNL     1      -3.427  14.258  24.710  0.00  0.00    +0.000 C 
ATOM     23  C   UNL     1      -3.168  13.054  23.800  0.00  0.00    +0.000 C 
ENDBRANCH  21  23
ENDBRANCH   1  21
BRANCH   6  24
ATOM     24  C   UNL     1      -0.235  13.433  20.763  0.00  0.00    +0.000 C 
BRANCH  24  25
ATOM     25  N   UNL     1       0.370  14.633  21.407  0.00  0.00    +0.000 NA
ATOM     26  C   UNL     1       0.111  15.841  20.624  0.00  0.00    +0.000 C 
ATOM     27  C   UNL     1       1.009  17.082  20.890  0.00  0.00    +0.000 C 
ATOM     28  C   UNL     1       2.178  16.828  21.835  0.00  0.00    +0.000 C 
ATOM     29  C   UNL     1       2.818  15.535  21.370  0.00  0.00    +0.000 C 
ATOM     30  C   UNL     1       1.816  14.378  21.645  0.00  0.00    +0.000 C 
ATOM     31  C   UNL     1       3.249  15.636  19.903  0.00  0.00    +0.000 A 
ATOM     32  C   UNL     1       4.266  14.891  19.432  0.00  0.00    +0.000 A 
ATOM     33  C   UNL     1       4.595  14.900  18.030  0.00  0.00    +0.000 A 
ATOM     34  C   UNL     1       3.971  15.732  17.186  0.00  0.00    +0.000 A 
ATOM     35  C   UNL     1       2.970  16.692  17.703  0.00  0.00    +0.000 A 
ATOM     36  O   UNL     1       2.514  17.545  16.946  0.00  0.00    +0.000 OA
ATOM     37  N   UNL     1       2.603  16.540  19.044  0.00  0.00    +0.000 N 
ATOM     38  C   UNL     1       1.628  17.500  19.549  0.00  0.00    +0.000 C 
ENDBRANCH  24  25
ENDBRANCH   6  24
TORSDOF 8
ENDMDL
