MODEL 1
REMARK VINA RESULT:      -7.6      0.000      0.000
REMARK  Name = 
REMARK  9 active torsions:
REMARK  status: ('A' for Active; 'I' for Inactive)
REMARK    1  A    between atoms: N_1  and  C_2
REMARK    2  A    between atoms: C_2  and  C_3
REMARK    3  A    between atoms: C_2  and  C_17
REMARK    4  A    between atoms: C_3  and  C_4
REMARK    5  A    between atoms: C_7  and  C_8
REMARK    6  A    between atoms: C_11  and  O_12
REMARK    7  A    between atoms: N_19  and  C_20
REMARK    8  A    between atoms: C_25  and  C_26
REMARK    9  A    between atoms: C_26  and  O_28
REMARK                            x       y       z     vdW  Elec       q    Type
REMARK                         _______ _______ _______ _____ _____    ______ ____
ROOT
ATOM      1  C   UNL     1       2.368   3.403  21.275  0.00  0.00    +0.000 C 
ENDROOT
BRANCH   1   2
ATOM      2  C   UNL     1       1.687   4.647  20.681  0.00  0.00    +0.000 C 
ATOM      3  O   UNL     1       0.619   4.576  20.073  0.00  0.00    +0.000 OA
ATOM      4  N   UNL     1       2.415   5.816  20.828  0.00  0.00    +0.000 N 
ATOM      5  H   UNL     1       3.423   5.681  20.925  0.00  0.00    +0.000 HD
BRANCH   4   6
ATOM      6  C   UNL     1       1.898   7.069  20.442  0.00  0.00    +0.000 A 
ATOM      7  C   UNL     1       1.132   7.799  21.365  0.00  0.00    +0.000 A 
ATOM      8  C   UNL     1       0.621   9.055  21.037  0.00  0.00    +0.000 A 
ATOM      9  C   UNL     1       0.866   9.594  19.778  0.00  0.00    +0.000 A 
ATOM     10  C   UNL     1       1.630   8.880  18.855  0.00  0.00    +0.000 A 
ATOM     11  C   UNL     1       2.153   7.617  19.179  0.00  0.00    +0.000 A 
BRANCH  11  12
ATOM     12  C   UNL     1       2.883   6.903  18.099  0.00  0.00    +0.000 C 
ATOM     13  O   UNL     1       3.912   7.331  17.612  0.00  0.00    +0.000 OA
BRANCH  12  14
ATOM     14  O   UNL     1       2.267   5.784  17.661  0.00  0.00    +0.000 OA
ATOM     15  H   UNL     1       1.293   5.816  17.716  0.00  0.00    +0.000 HD
ENDBRANCH  12  14
ENDBRANCH  11  12
ENDBRANCH   4   6
ENDBRANCH   1   2
BRANCH   1  16
ATOM     16  N   UNL     1       1.467   2.723  22.239  0.00  0.00    +0.000 NA
ATOM     17  H   UNL     1       0.541   3.150  22.187  0.00  0.00    +0.000 HD
ATOM     18  H   UNL     1       1.793   2.919  23.190  0.00  0.00    +0.000 HD
ENDBRANCH   1  16
BRANCH   1  19
ATOM     19  C   UNL     1       2.890   2.508  20.135  0.00  0.00    +0.000 C 
BRANCH  19  20
ATOM     20  C   UNL     1       3.948   3.163  19.302  0.00  0.00    +0.000 A 
ATOM     21  C   UNL     1       5.047   3.894  19.693  0.00  0.00    +0.000 A 
ATOM     22  N   UNL     1       5.847   4.359  18.671  0.00  0.00    +0.000 NA
ATOM     23  C   UNL     1       5.375   3.986  17.502  0.00  0.00    +0.000 A 
ATOM     24  S   UNL     1       3.908   3.084  17.595  0.00  0.00    +0.000 S 
BRANCH  23  25
ATOM     25  C   UNL     1       5.987   4.289  16.197  0.00  0.00    +0.000 A 
ATOM     26  C   UNL     1       5.677   3.491  15.073  0.00  0.00    +0.000 A 
ATOM     27  C   UNL     1       6.224   3.745  13.817  0.00  0.00    +0.000 A 
ATOM     28  C   UNL     1       7.101   4.813  13.662  0.00  0.00    +0.000 A 
ATOM     29  C   UNL     1       7.434   5.615  14.745  0.00  0.00    +0.000 A 
ATOM     30  C   UNL     1       6.884   5.358  16.009  0.00  0.00    +0.000 A 
ATOM     31 CL   UNL     1       7.415   6.392  17.294  0.00  0.00    +0.000 Cl
BRANCH  28  32
ATOM     32  O   UNL     1       7.668   5.100  12.458  0.00  0.00    +0.000 OA
ATOM     33  H   UNL     1       7.462   4.390  11.830  0.00  0.00    +0.000 HD
ENDBRANCH  28  32
ENDBRANCH  23  25
ENDBRANCH  19  20
ENDBRANCH   1  19
TORSDOF 9
ENDMDL
MODEL 2
REMARK VINA RESULT:      -7.5      4.785      6.960
REMARK  Name = 
REMARK  9 active torsions:
REMARK  status: ('A' for Active; 'I' for Inactive)
REMARK    1  A    between atoms: N_1  and  C_2
REMARK    2  A    between atoms: C_2  and  C_3
REMARK    3  A    between atoms: C_2  and  C_17
REMARK    4  A    between atoms: C_3  and  C_4
REMARK    5  A    between atoms: C_7  and  C_8
REMARK    6  A    between atoms: C_11  and  O_12
REMARK    7  A    between atoms: N_19  and  C_20
REMARK    8  A    between atoms: C_25  and  C_26
REMARK    9  A    between atoms: C_26  and  O_28
REMARK                            x       y       z     vdW  Elec       q    Type
REMARK                         _______ _______ _______ _____ _____    ______ ____
ROOT
ATOM      1  C   UNL     1       0.813  11.524  18.981  0.00  0.00    +0.000 C 
ENDROOT
BRANCH   1   2
ATOM      2  C   UNL     1      -0.567  12.096  18.622  0.00  0.00    +0.000 C 
ATOM      3  O   UNL     1      -0.706  13.241  18.191  0.00  0.00    +0.000 OA
ATOM      4  N   UNL     1      -1.623  11.242  18.894  0.00  0.00    +0.000 N 
ATOM      5  H   UNL     1      -1.438  10.557  19.629  0.00  0.00    +0.000 HD
BRANCH   4   6
ATOM      6  C   UNL     1      -2.948  11.554  18.530  0.00  0.00    +0.000 A 
ATOM      7  C   UNL     1      -3.771  12.205  19.462  0.00  0.00    +0.000 A 
ATOM      8  C   UNL     1      -5.082  12.558  19.137  0.00  0.00    +0.000 A 
ATOM      9  C   UNL     1      -5.586  12.258  17.876  0.00  0.00    +0.000 A 
ATOM     10  C   UNL     1      -4.775  11.617  16.940  0.00  0.00    +0.000 A 
ATOM     11  C   UNL     1      -3.454  11.263  17.257  0.00  0.00    +0.000 A 
BRANCH  11  12
ATOM     12  C   UNL     1      -2.700  10.510  16.219  0.00  0.00    +0.000 C 
ATOM     13  O   UNL     1      -2.826  10.731  15.031  0.00  0.00    +0.000 OA
BRANCH  12  14
ATOM     14  O   UNL     1      -1.925   9.518  16.709  0.00  0.00    +0.000 OA
ATOM     15  H   UNL     1      -1.432   9.758  17.517  0.00  0.00    +0.000 HD
ENDBRANCH  12  14
ENDBRANCH  11  12
ENDBRANCH   4   6
ENDBRANCH   1   2
BRANCH   1  16
ATOM     16  N   UNL     1       1.684  12.580  19.558  0.00  0.00    +0.000 NA
ATOM     17  H   UNL     1       2.344  12.893  18.845  0.00  0.00    +0.000 HD
ATOM     18  H   UNL     1       2.266  12.162  20.290  0.00  0.00    +0.000 HD
ENDBRANCH   1  16
BRANCH   1  19
ATOM     19  C   UNL     1       0.639  10.275  19.865  0.00  0.00    +0.000 C 
BRANCH  19  20
ATOM     20  C   UNL     1       1.359   9.071  19.342  0.00  0.00    +0.000 A 
ATOM     21  C   UNL     1       1.774   8.783  18.061  0.00  0.00    +0.000 A 
ATOM     22  N   UNL     1       2.430   7.580  17.905  0.00  0.00    +0.000 NA
ATOM     23  C   UNL     1       2.528   6.948  19.053  0.00  0.00    +0.000 A 
ATOM     24  S   UNL     1       1.785   7.774  20.372  0.00  0.00    +0.000 S 
BRANCH  23  25
ATOM     25  C   UNL     1       3.186   5.646  19.259  0.00  0.00    +0.000 A 
ATOM     26  C   UNL     1       4.536   5.473  18.881  0.00  0.00    +0.000 A 
ATOM     27  C   UNL     1       5.201   4.263  19.066  0.00  0.00    +0.000 A 
ATOM     28  C   UNL     1       4.521   3.194  19.636  0.00  0.00    +0.000 A 
ATOM     29  C   UNL     1       3.191   3.325  20.014  0.00  0.00    +0.000 A 
ATOM     30  C   UNL     1       2.522   4.542  19.827  0.00  0.00    +0.000 A 
ATOM     31 CL   UNL     1       0.852   4.570  20.288  0.00  0.00    +0.000 Cl
BRANCH  28  32
ATOM     32  O   UNL     1       5.122   1.989  19.832  0.00  0.00    +0.000 OA
ATOM     33  H   UNL     1       5.775   1.838  19.129  0.00  0.00    +0.000 HD
ENDBRANCH  28  32
ENDBRANCH  23  25
ENDBRANCH  19  20
ENDBRANCH   1  19
TORSDOF 9
ENDMDL
MODEL 3
REMARK VINA RESULT:      -7.3      4.689      8.895
REMARK  Name = 
REMARK  9 active torsions:
REMARK  status: ('A' for Active; 'I' for Inactive)
REMARK    1  A    between atoms: N_1  and  C_2
REMARK    2  A    between atoms: C_2  and  C_3
REMARK    3  A    between atoms: C_2  and  C_17
REMARK    4  A    between atoms: C_3  and  C_4
REMARK    5  A    between atoms: C_7  and  C_8
REMARK    6  A    between atoms: C_11  and  O_12
REMARK    7  A    between atoms: N_19  and  C_20
REMARK    8  A    between atoms: C_25  and  C_26
REMARK    9  A    between atoms: C_26  and  O_28
REMARK                            x       y       z     vdW  Elec       q    Type
REMARK                         _______ _______ _______ _____ _____    ______ ____
ROOT
ATOM      1  C   UNL     1       2.179   7.409  18.774  0.00  0.00    +0.000 C 
ENDROOT
BRANCH   1   2
ATOM      2  C   UNL     1       3.074   6.355  18.103  0.00  0.00    +0.000 C 
ATOM      3  O   UNL     1       2.723   5.181  17.988  0.00  0.00    +0.000 OA
ATOM      4  N   UNL     1       4.317   6.830  17.716  0.00  0.00    +0.000 N 
ATOM      5  H   UNL     1       4.648   7.639  18.246  0.00  0.00    +0.000 HD
BRANCH   4   6
ATOM      6  C   UNL     1       5.225   6.035  16.988  0.00  0.00    +0.000 A 
ATOM      7  C   UNL     1       5.221   6.114  15.587  0.00  0.00    +0.000 A 
ATOM      8  C   UNL     1       6.120   5.365  14.825  0.00  0.00    +0.000 A 
ATOM      9  C   UNL     1       7.029   4.524  15.458  0.00  0.00    +0.000 A 
ATOM     10  C   UNL     1       7.045   4.442  16.851  0.00  0.00    +0.000 A 
ATOM     11  C   UNL     1       6.148   5.196  17.624  0.00  0.00    +0.000 A 
BRANCH  11  12
ATOM     12  C   UNL     1       6.190   4.976  19.094  0.00  0.00    +0.000 C 
ATOM     13  O   UNL     1       7.059   5.449  19.802  0.00  0.00    +0.000 OA
BRANCH  12  14
ATOM     14  O   UNL     1       5.227   4.151  19.558  0.00  0.00    +0.000 OA
ATOM     15  H   UNL     1       5.012   4.277  20.502  0.00  0.00    +0.000 HD
ENDBRANCH  12  14
ENDBRANCH  11  12
ENDBRANCH   4   6
ENDBRANCH   1   2
BRANCH   1  16
ATOM     16  N   UNL     1       2.300   7.334  20.253  0.00  0.00    +0.000 NA
ATOM     17  H   UNL     1       1.541   7.871  20.676  0.00  0.00    +0.000 HD
ATOM     18  H   UNL     1       3.156   7.820  20.538  0.00  0.00    +0.000 HD
ENDBRANCH   1  16
BRANCH   1  19
ATOM     19  C   UNL     1       2.474   8.795  18.171  0.00  0.00    +0.000 C 
BRANCH  19  20
ATOM     20  C   UNL     1       1.308   9.732  18.234  0.00  0.00    +0.000 A 
ATOM     21  C   UNL     1       1.251  11.033  18.682  0.00  0.00    +0.000 A 
ATOM     22  N   UNL     1       0.013  11.637  18.597  0.00  0.00    +0.000 NA
ATOM     23  C   UNL     1      -0.874  10.814  18.083  0.00  0.00    +0.000 A 
ATOM     24  S   UNL     1      -0.248   9.249  17.718  0.00  0.00    +0.000 S 
BRANCH  23  25
ATOM     25  C   UNL     1      -2.290  11.133  17.831  0.00  0.00    +0.000 A 
ATOM     26  C   UNL     1      -2.867  10.823  16.580  0.00  0.00    +0.000 A 
ATOM     27  C   UNL     1      -4.204  11.098  16.299  0.00  0.00    +0.000 A 
ATOM     28  C   UNL     1      -4.995  11.693  17.275  0.00  0.00    +0.000 A 
ATOM     29  C   UNL     1      -4.460  12.017  18.514  0.00  0.00    +0.000 A 
ATOM     30  C   UNL     1      -3.114  11.743  18.796  0.00  0.00    +0.000 A 
ATOM     31 CL   UNL     1      -2.546  12.240  20.355  0.00  0.00    +0.000 Cl
BRANCH  28  32
ATOM     32  O   UNL     1      -6.304  11.988  17.050  0.00  0.00    +0.000 OA
ATOM     33  H   UNL     1      -6.704  11.282  16.517  0.00  0.00    +0.000 HD
ENDBRANCH  28  32
ENDBRANCH  23  25
ENDBRANCH  19  20
ENDBRANCH   1  19
TORSDOF 9
ENDMDL
MODEL 4
REMARK VINA RESULT:      -7.2      4.929      6.647
REMARK  Name = 
REMARK  9 active torsions:
REMARK  status: ('A' for Active; 'I' for Inactive)
REMARK    1  A    between atoms: N_1  and  C_2
REMARK    2  A    between atoms: C_2  and  C_3
REMARK    3  A    between atoms: C_2  and  C_17
REMARK    4  A    between atoms: C_3  and  C_4
REMARK    5  A    between atoms: C_7  and  C_8
REMARK    6  A    between atoms: C_11  and  O_12
REMARK    7  A    between atoms: N_19  and  C_20
REMARK    8  A    between atoms: C_25  and  C_26
REMARK    9  A    between atoms: C_26  and  O_28
REMARK                            x       y       z     vdW  Elec       q    Type
REMARK                         _______ _______ _______ _____ _____    ______ ____
ROOT
ATOM      1  C   UNL     1       0.390  10.932  18.561  0.00  0.00    +0.000 C 
ENDROOT
BRANCH   1   2
ATOM      2  C   UNL     1      -0.950  11.683  18.609  0.00  0.00    +0.000 C 
ATOM      3  O   UNL     1      -1.016  12.881  18.884  0.00  0.00    +0.000 OA
ATOM      4  N   UNL     1      -2.058  10.880  18.389  0.00  0.00    +0.000 N 
ATOM      5  H   UNL     1      -1.922   9.894  18.620  0.00  0.00    +0.000 HD
BRANCH   4   6
ATOM      6  C   UNL     1      -3.357  11.415  18.287  0.00  0.00    +0.000 A 
ATOM      7  C   UNL     1      -3.988  11.887  19.449  0.00  0.00    +0.000 A 
ATOM      8  C   UNL     1      -5.264  12.449  19.394  0.00  0.00    +0.000 A 
ATOM      9  C   UNL     1      -5.927  12.540  18.174  0.00  0.00    +0.000 A 
ATOM     10  C   UNL     1      -5.308  12.079  17.013  0.00  0.00    +0.000 A 
ATOM     11  C   UNL     1      -4.022  11.517  17.059  0.00  0.00    +0.000 A 
BRANCH  11  12
ATOM     12  C   UNL     1      -3.484  10.981  15.780  0.00  0.00    +0.000 C 
ATOM     13  O   UNL     1      -4.121  10.229  15.068  0.00  0.00    +0.000 OA
BRANCH  12  14
ATOM     14  O   UNL     1      -2.210  11.344  15.520  0.00  0.00    +0.000 OA
ATOM     15  H   UNL     1      -1.725  11.685  16.296  0.00  0.00    +0.000 HD
ENDBRANCH  12  14
ENDBRANCH  11  12
ENDBRANCH   4   6
ENDBRANCH   1   2
BRANCH   1  16
ATOM     16  N   UNL     1       1.490  11.847  18.162  0.00  0.00    +0.000 NA
ATOM     17  H   UNL     1       1.480  12.665  18.774  0.00  0.00    +0.000 HD
ATOM     18  H   UNL     1       1.289  12.215  17.228  0.00  0.00    +0.000 HD
ENDBRANCH   1  16
BRANCH   1  19
ATOM     19  C   UNL     1       0.615  10.194  19.895  0.00  0.00    +0.000 C 
BRANCH  19  20
ATOM     20  C   UNL     1       1.371   8.911  19.745  0.00  0.00    +0.000 A 
ATOM     21  C   UNL     1       1.586   7.907  20.662  0.00  0.00    +0.000 A 
ATOM     22  N   UNL     1       2.325   6.834  20.208  0.00  0.00    +0.000 NA
ATOM     23  C   UNL     1       2.672   7.005  18.951  0.00  0.00    +0.000 A 
ATOM     24  S   UNL     1       2.148   8.504  18.278  0.00  0.00    +0.000 S 
BRANCH  23  25
ATOM     25  C   UNL     1       3.448   6.050  18.142  0.00  0.00    +0.000 A 
ATOM     26  C   UNL     1       4.739   6.401  17.688  0.00  0.00    +0.000 A 
ATOM     27  C   UNL     1       5.514   5.528  16.927  0.00  0.00    +0.000 A 
ATOM     28  C   UNL     1       5.005   4.275  16.603  0.00  0.00    +0.000 A 
ATOM     29  C   UNL     1       3.738   3.898  17.027  0.00  0.00    +0.000 A 
ATOM     30  C   UNL     1       2.958   4.778  17.791  0.00  0.00    +0.000 A 
ATOM     31 CL   UNL     1       1.374   4.218  18.215  0.00  0.00    +0.000 Cl
BRANCH  28  32
ATOM     32  O   UNL     1       5.718   3.387  15.858  0.00  0.00    +0.000 OA
ATOM     33  H   UNL     1       6.178   2.770  16.449  0.00  0.00    +0.000 HD
ENDBRANCH  28  32
ENDBRANCH  23  25
ENDBRANCH  19  20
ENDBRANCH   1  19
TORSDOF 9
ENDMDL
MODEL 5
REMARK VINA RESULT:      -7.1      5.101      6.997
REMARK  Name = 
REMARK  9 active torsions:
REMARK  status: ('A' for Active; 'I' for Inactive)
REMARK    1  A    between atoms: N_1  and  C_2
REMARK    2  A    between atoms: C_2  and  C_3
REMARK    3  A    between atoms: C_2  and  C_17
REMARK    4  A    between atoms: C_3  and  C_4
REMARK    5  A    between atoms: C_7  and  C_8
REMARK    6  A    between atoms: C_11  and  O_12
REMARK    7  A    between atoms: N_19  and  C_20
REMARK    8  A    between atoms: C_25  and  C_26
REMARK    9  A    between atoms: C_26  and  O_28
REMARK                            x       y       z     vdW  Elec       q    Type
REMARK                         _______ _______ _______ _____ _____    ______ ____
ROOT
ATOM      1  C   UNL     1       0.440  11.529  20.285  0.00  0.00    +0.000 C 
ENDROOT
BRANCH   1   2
ATOM      2  C   UNL     1      -0.767  12.069  19.501  0.00  0.00    +0.000 C 
ATOM      3  O   UNL     1      -0.768  13.193  18.998  0.00  0.00    +0.000 OA
ATOM      4  N   UNL     1      -1.857  11.213  19.479  0.00  0.00    +0.000 N 
ATOM      5  H   UNL     1      -1.904  10.563  20.265  0.00  0.00    +0.000 HD
BRANCH   4   6
ATOM      6  C   UNL     1      -3.009  11.494  18.717  0.00  0.00    +0.000 A 
ATOM      7  C   UNL     1      -3.052  11.080  17.377  0.00  0.00    +0.000 A 
ATOM      8  C   UNL     1      -4.182  11.313  16.591  0.00  0.00    +0.000 A 
ATOM      9  C   UNL     1      -5.280  11.968  17.137  0.00  0.00    +0.000 A 
ATOM     10  C   UNL     1      -5.251  12.379  18.470  0.00  0.00    +0.000 A 
ATOM     11  C   UNL     1      -4.120  12.144  19.269  0.00  0.00    +0.000 A 
BRANCH  11  12
ATOM     12  C   UNL     1      -4.157  12.694  20.650  0.00  0.00    +0.000 C 
ATOM     13  O   UNL     1      -4.945  12.303  21.488  0.00  0.00    +0.000 OA
BRANCH  12  14
ATOM     14  O   UNL     1      -3.290  13.707  20.865  0.00  0.00    +0.000 OA
ATOM     15  H   UNL     1      -3.137  14.274  20.085  0.00  0.00    +0.000 HD
ENDBRANCH  12  14
ENDBRANCH  11  12
ENDBRANCH   4   6
ENDBRANCH   1   2
BRANCH   1  16
ATOM     16  N   UNL     1       0.565  12.221  21.594  0.00  0.00    +0.000 NA
ATOM     17  H   UNL     1       0.796  13.202  21.431  0.00  0.00    +0.000 HD
ATOM     18  H   UNL     1       1.375  11.839  22.092  0.00  0.00    +0.000 HD
ENDBRANCH   1  16
BRANCH   1  19
ATOM     19  C   UNL     1       0.354   9.994  20.371  0.00  0.00    +0.000 C 
BRANCH  19  20
ATOM     20  C   UNL     1       1.198   9.293  19.352  0.00  0.00    +0.000 A 
ATOM     21  C   UNL     1       1.484   9.651  18.053  0.00  0.00    +0.000 A 
ATOM     22  N   UNL     1       2.314   8.788  17.368  0.00  0.00    +0.000 NA
ATOM     23  C   UNL     1       2.670   7.778  18.130  0.00  0.00    +0.000 A 
ATOM     24  S   UNL     1       1.974   7.813  19.708  0.00  0.00    +0.000 S 
BRANCH  23  25
ATOM     25  C   UNL     1       3.565   6.679  17.730  0.00  0.00    +0.000 A 
ATOM     26  C   UNL     1       4.888   6.963  17.322  0.00  0.00    +0.000 A 
ATOM     27  C   UNL     1       5.773   5.956  16.944  0.00  0.00    +0.000 A 
ATOM     28  C   UNL     1       5.346   4.633  16.966  0.00  0.00    +0.000 A 
ATOM     29  C   UNL     1       4.051   4.316  17.355  0.00  0.00    +0.000 A 
ATOM     30  C   UNL     1       3.160   5.331  17.734  0.00  0.00    +0.000 A 
ATOM     31 CL   UNL     1       1.558   4.819  18.148  0.00  0.00    +0.000 Cl
BRANCH  28  32
ATOM     32  O   UNL     1       6.168   3.612  16.600  0.00  0.00    +0.000 OA
ATOM     33  H   UNL     1       5.778   3.141  15.846  0.00  0.00    +0.000 HD
ENDBRANCH  28  32
ENDBRANCH  23  25
ENDBRANCH  19  20
ENDBRANCH   1  19
TORSDOF 9
ENDMDL
MODEL 6
REMARK VINA RESULT:      -7.1      3.629      7.986
REMARK  Name = 
REMARK  9 active torsions:
REMARK  status: ('A' for Active; 'I' for Inactive)
REMARK    1  A    between atoms: N_1  and  C_2
REMARK    2  A    between atoms: C_2  and  C_3
REMARK    3  A    between atoms: C_2  and  C_17
REMARK    4  A    between atoms: C_3  and  C_4
REMARK    5  A    between atoms: C_7  and  C_8
REMARK    6  A    between atoms: C_11  and  O_12
REMARK    7  A    between atoms: N_19  and  C_20
REMARK    8  A    between atoms: C_25  and  C_26
REMARK    9  A    between atoms: C_26  and  O_28
REMARK                            x       y       z     vdW  Elec       q    Type
REMARK                         _______ _______ _______ _____ _____    ______ ____
ROOT
ATOM      1  C   UNL     1       2.148   5.173  18.981  0.00  0.00    +0.000 C 
ENDROOT
BRANCH   1   2
ATOM      2  C   UNL     1       3.328   4.569  18.203  0.00  0.00    +0.000 C 
ATOM      3  O   UNL     1       3.622   3.376  18.287  0.00  0.00    +0.000 OA
ATOM      4  N   UNL     1       4.057   5.493  17.472  0.00  0.00    +0.000 N 
ATOM      5  H   UNL     1       4.008   6.450  17.826  0.00  0.00    +0.000 HD
BRANCH   4   6
ATOM      6  C   UNL     1       5.105   5.104  16.613  0.00  0.00    +0.000 A 
ATOM      7  C   UNL     1       4.793   4.697  15.307  0.00  0.00    +0.000 A 
ATOM      8  C   UNL     1       5.799   4.328  14.412  0.00  0.00    +0.000 A 
ATOM      9  C   UNL     1       7.129   4.357  14.818  0.00  0.00    +0.000 A 
ATOM     10  C   UNL     1       7.451   4.766  16.112  0.00  0.00    +0.000 A 
ATOM     11  C   UNL     1       6.445   5.144  17.016  0.00  0.00    +0.000 A 
BRANCH  11  12
ATOM     12  C   UNL     1       6.885   5.483  18.396  0.00  0.00    +0.000 C 
ATOM     13  O   UNL     1       7.699   6.357  18.626  0.00  0.00    +0.000 OA
BRANCH  12  14
ATOM     14  O   UNL     1       6.358   4.692  19.355  0.00  0.00    +0.000 OA
ATOM     15  H   UNL     1       5.893   5.177  20.063  0.00  0.00    +0.000 HD
ENDBRANCH  12  14
ENDBRANCH  11  12
ENDBRANCH   4   6
ENDBRANCH   1   2
BRANCH   1  16
ATOM     16  N   UNL     1       1.460   4.129  19.783  0.00  0.00    +0.000 NA
ATOM     17  H   UNL     1       1.542   4.363  20.773  0.00  0.00    +0.000 HD
ATOM     18  H   UNL     1       1.969   3.245  19.678  0.00  0.00    +0.000 HD
ENDBRANCH   1  16
BRANCH   1  19
ATOM     19  C   UNL     1       2.633   6.392  19.787  0.00  0.00    +0.000 C 
BRANCH  19  20
ATOM     20  C   UNL     1       2.088   7.693  19.285  0.00  0.00    +0.000 A 
ATOM     21  C   UNL     1       2.116   8.224  18.015  0.00  0.00    +0.000 A 
ATOM     22  N   UNL     1       1.509   9.455  17.871  0.00  0.00    +0.000 NA
ATOM     23  C   UNL     1       1.012   9.867  19.016  0.00  0.00    +0.000 A 
ATOM     24  S   UNL     1       1.300   8.790  20.332  0.00  0.00    +0.000 S 
BRANCH  23  25
ATOM     25  C   UNL     1       0.280  11.128  19.226  0.00  0.00    +0.000 A 
ATOM     26  C   UNL     1      -1.048  11.098  19.705  0.00  0.00    +0.000 A 
ATOM     27  C   UNL     1      -1.777  12.265  19.927  0.00  0.00    +0.000 A 
ATOM     28  C   UNL     1      -1.182  13.495  19.671  0.00  0.00    +0.000 A 
ATOM     29  C   UNL     1       0.120  13.563  19.194  0.00  0.00    +0.000 A 
ATOM     30  C   UNL     1       0.852  12.389  18.969  0.00  0.00    +0.000 A 
ATOM     31 CL   UNL     1       2.446  12.598  18.324  0.00  0.00    +0.000 Cl
BRANCH  28  32
ATOM     32  O   UNL     1      -1.852  14.664  19.865  0.00  0.00    +0.000 OA
ATOM     33  H   UNL     1      -2.775  14.554  19.586  0.00  0.00    +0.000 HD
ENDBRANCH  28  32
ENDBRANCH  23  25
ENDBRANCH  19  20
ENDBRANCH   1  19
TORSDOF 9
ENDMDL
MODEL 7
REMARK VINA RESULT:      -7.0      2.607      6.684
REMARK  Name = 
REMARK  9 active torsions:
REMARK  status: ('A' for Active; 'I' for Inactive)
REMARK    1  A    between atoms: N_1  and  C_2
REMARK    2  A    between atoms: C_2  and  C_3
REMARK    3  A    between atoms: C_2  and  C_17
REMARK    4  A    between atoms: C_3  and  C_4
REMARK    5  A    between atoms: C_7  and  C_8
REMARK    6  A    between atoms: C_11  and  O_12
REMARK    7  A    between atoms: N_19  and  C_20
REMARK    8  A    between atoms: C_25  and  C_26
REMARK    9  A    between atoms: C_26  and  O_28
REMARK                            x       y       z     vdW  Elec       q    Type
REMARK                         _______ _______ _______ _____ _____    ______ ____
ROOT
ATOM      1  C   UNL     1       3.584   2.256  18.844  0.00  0.00    +0.000 C 
ENDROOT
BRANCH   1   2
ATOM      2  C   UNL     1       3.993   2.975  17.548  0.00  0.00    +0.000 C 
ATOM      3  O   UNL     1       3.160   3.369  16.731  0.00  0.00    +0.000 OA
ATOM      4  N   UNL     1       5.362   3.067  17.359  0.00  0.00    +0.000 N 
ATOM      5  H   UNL     1       5.907   2.346  17.834  0.00  0.00    +0.000 HD
BRANCH   4   6
ATOM      6  C   UNL     1       5.919   3.788  16.284  0.00  0.00    +0.000 A 
ATOM      7  C   UNL     1       5.615   3.390  14.972  0.00  0.00    +0.000 A 
ATOM      8  C   UNL     1       6.122   4.090  13.876  0.00  0.00    +0.000 A 
ATOM      9  C   UNL     1       6.945   5.192  14.080  0.00  0.00    +0.000 A 
ATOM     10  C   UNL     1       7.249   5.600  15.379  0.00  0.00    +0.000 A 
ATOM     11  C   UNL     1       6.738   4.905  16.487  0.00  0.00    +0.000 A 
BRANCH  11  12
ATOM     12  C   UNL     1       7.188   5.369  17.826  0.00  0.00    +0.000 C 
ATOM     13  O   UNL     1       7.145   4.659  18.813  0.00  0.00    +0.000 OA
BRANCH  12  14
ATOM     14  O   UNL     1       7.579   6.661  17.862  0.00  0.00    +0.000 OA
ATOM     15  H   UNL     1       6.883   7.296  17.606  0.00  0.00    +0.000 HD
ENDBRANCH  12  14
ENDBRANCH  11  12
ENDBRANCH   4   6
ENDBRANCH   1   2
BRANCH   1  16
ATOM     16  N   UNL     1       4.181   0.898  18.900  0.00  0.00    +0.000 NA
ATOM     17  H   UNL     1       3.692   0.292  18.239  0.00  0.00    +0.000 HD
ATOM     18  H   UNL     1       3.989   0.491  19.821  0.00  0.00    +0.000 HD
ENDBRANCH   1  16
BRANCH   1  19
ATOM     19  C   UNL     1       3.904   3.154  20.053  0.00  0.00    +0.000 C 
BRANCH  19  20
ATOM     20  C   UNL     1       3.064   4.392  20.114  0.00  0.00    +0.000 A 
ATOM     21  C   UNL     1       1.918   4.641  20.836  0.00  0.00    +0.000 A 
ATOM     22  N   UNL     1       1.380   5.902  20.683  0.00  0.00    +0.000 NA
ATOM     23  C   UNL     1       2.106   6.622  19.856  0.00  0.00    +0.000 A 
ATOM     24  S   UNL     1       3.457   5.778  19.194  0.00  0.00    +0.000 S 
BRANCH  23  25
ATOM     25  C   UNL     1       1.837   8.019  19.478  0.00  0.00    +0.000 A 
ATOM     26  C   UNL     1       2.179   8.476  18.186  0.00  0.00    +0.000 A 
ATOM     27  C   UNL     1       1.936   9.786  17.780  0.00  0.00    +0.000 A 
ATOM     28  C   UNL     1       1.339  10.672  18.669  0.00  0.00    +0.000 A 
ATOM     29  C   UNL     1       0.994  10.261  19.950  0.00  0.00    +0.000 A 
ATOM     30  C   UNL     1       1.241   8.943  20.358  0.00  0.00    +0.000 A 
ATOM     31 CL   UNL     1       0.816   8.561  21.994  0.00  0.00    +0.000 Cl
BRANCH  28  32
ATOM     32  O   UNL     1       1.085  11.965  18.326  0.00  0.00    +0.000 OA
ATOM     33  H   UNL     1       0.442  11.982  17.598  0.00  0.00    +0.000 HD
ENDBRANCH  28  32
ENDBRANCH  23  25
ENDBRANCH  19  20
ENDBRANCH   1  19
TORSDOF 9
ENDMDL
MODEL 8
REMARK VINA RESULT:      -7.0      3.571      7.886
REMARK  Name = 
REMARK  9 active torsions:
REMARK  status: ('A' for Active; 'I' for Inactive)
REMARK    1  A    between atoms: N_1  and  C_2
REMARK    2  A    between atoms: C_2  and  C_3
REMARK    3  A    between atoms: C_2  and  C_17
REMARK    4  A    between atoms: C_3  and  C_4
REMARK    5  A    between atoms: C_7  and  C_8
REMARK    6  A    between atoms: C_11  and  O_12
REMARK    7  A    between atoms: N_19  and  C_20
REMARK    8  A    between atoms: C_25  and  C_26
REMARK    9  A    between atoms: C_26  and  O_28
REMARK                            x       y       z     vdW  Elec       q    Type
REMARK                         _______ _______ _______ _____ _____    ______ ____
ROOT
ATOM      1  C   UNL     1       2.116   5.238  18.889  0.00  0.00    +0.000 C 
ENDROOT
BRANCH   1   2
ATOM      2  C   UNL     1       3.259   4.629  18.059  0.00  0.00    +0.000 C 
ATOM      3  O   UNL     1       3.420   3.412  17.968  0.00  0.00    +0.000 OA
ATOM      4  N   UNL     1       4.113   5.565  17.499  0.00  0.00    +0.000 N 
ATOM      5  H   UNL     1       4.150   6.458  17.994  0.00  0.00    +0.000 HD
BRANCH   4   6
ATOM      6  C   UNL     1       5.150   5.195  16.620  0.00  0.00    +0.000 A 
ATOM      7  C   UNL     1       4.828   4.866  15.293  0.00  0.00    +0.000 A 
ATOM      8  C   UNL     1       5.824   4.519  14.379  0.00  0.00    +0.000 A 
ATOM      9  C   UNL     1       7.154   4.490  14.785  0.00  0.00    +0.000 A 
ATOM     10  C   UNL     1       7.486   4.820  16.099  0.00  0.00    +0.000 A 
ATOM     11  C   UNL     1       6.490   5.176  17.023  0.00  0.00    +0.000 A 
BRANCH  11  12
ATOM     12  C   UNL     1       6.939   5.428  18.418  0.00  0.00    +0.000 C 
ATOM     13  O   UNL     1       6.495   4.814  19.369  0.00  0.00    +0.000 OA
BRANCH  12  14
ATOM     14  O   UNL     1       7.823   6.442  18.540  0.00  0.00    +0.000 OA
ATOM     15  H   UNL     1       7.893   7.009  17.748  0.00  0.00    +0.000 HD
ENDBRANCH  12  14
ENDBRANCH  11  12
ENDBRANCH   4   6
ENDBRANCH   1   2
BRANCH   1  16
ATOM     16  N   UNL     1       1.214   4.173  19.398  0.00  0.00    +0.000 NA
ATOM     17  H   UNL     1       0.956   4.390  20.362  0.00  0.00    +0.000 HD
ATOM     18  H   UNL     1       1.741   3.297  19.458  0.00  0.00    +0.000 HD
ENDBRANCH   1  16
BRANCH   1  19
ATOM     19  C   UNL     1       2.703   6.162  19.972  0.00  0.00    +0.000 C 
BRANCH  19  20
ATOM     20  C   UNL     1       1.913   7.418  20.174  0.00  0.00    +0.000 A 
ATOM     21  C   UNL     1       1.088   7.778  21.216  0.00  0.00    +0.000 A 
ATOM     22  N   UNL     1       0.505   9.024  21.110  0.00  0.00    +0.000 NA
ATOM     23  C   UNL     1       0.882   9.623  20.002  0.00  0.00    +0.000 A 
ATOM     24  S   UNL     1       1.932   8.675  19.016  0.00  0.00    +0.000 S 
BRANCH  23  25
ATOM     25  C   UNL     1       0.469  10.972  19.577  0.00  0.00    +0.000 A 
ATOM     26  C   UNL     1       1.103  12.107  20.129  0.00  0.00    +0.000 A 
ATOM     27  C   UNL     1       0.753  13.402  19.751  0.00  0.00    +0.000 A 
ATOM     28  C   UNL     1      -0.249  13.585  18.805  0.00  0.00    +0.000 A 
ATOM     29  C   UNL     1      -0.898  12.493  18.245  0.00  0.00    +0.000 A 
ATOM     30  C   UNL     1      -0.546  11.191  18.627  0.00  0.00    +0.000 A 
ATOM     31 CL   UNL     1      -1.462   9.912  17.900  0.00  0.00    +0.000 Cl
BRANCH  28  32
ATOM     32  O   UNL     1      -0.633  14.828  18.405  0.00  0.00    +0.000 OA
ATOM     33  H   UNL     1      -1.578  14.946  18.593  0.00  0.00    +0.000 HD
ENDBRANCH  28  32
ENDBRANCH  23  25
ENDBRANCH  19  20
ENDBRANCH   1  19
TORSDOF 9
ENDMDL
MODEL 9
REMARK VINA RESULT:      -7.0      4.344      6.677
REMARK  Name = 
REMARK  9 active torsions:
REMARK  status: ('A' for Active; 'I' for Inactive)
REMARK    1  A    between atoms: N_1  and  C_2
REMARK    2  A    between atoms: C_2  and  C_3
REMARK    3  A    between atoms: C_2  and  C_17
REMARK    4  A    between atoms: C_3  and  C_4
REMARK    5  A    between atoms: C_7  and  C_8
REMARK    6  A    between atoms: C_11  and  O_12
REMARK    7  A    between atoms: N_19  and  C_20
REMARK    8  A    between atoms: C_25  and  C_26
REMARK    9  A    between atoms: C_26  and  O_28
REMARK                            x       y       z     vdW  Elec       q    Type
REMARK                         _______ _______ _______ _____ _____    ______ ____
ROOT
ATOM      1  C   UNL     1      -0.105  10.248  18.884  0.00  0.00    +0.000 C 
ENDROOT
BRANCH   1   2
ATOM      2  C   UNL     1      -0.355  11.604  19.563  0.00  0.00    +0.000 C 
ATOM      3  O   UNL     1      -0.917  12.532  18.979  0.00  0.00    +0.000 OA
ATOM      4  N   UNL     1       0.168  11.703  20.842  0.00  0.00    +0.000 N 
ATOM      5  H   UNL     1       0.959  11.084  21.027  0.00  0.00    +0.000 HD
BRANCH   4   6
ATOM      6  C   UNL     1      -0.060  12.831  21.656  0.00  0.00    +0.000 A 
ATOM      7  C   UNL     1       0.665  14.006  21.402  0.00  0.00    +0.000 A 
ATOM      8  C   UNL     1       0.455  15.156  22.164  0.00  0.00    +0.000 A 
ATOM      9  C   UNL     1      -0.479  15.141  23.194  0.00  0.00    +0.000 A 
ATOM     10  C   UNL     1      -1.209  13.980  23.452  0.00  0.00    +0.000 A 
ATOM     11  C   UNL     1      -1.008  12.821  22.686  0.00  0.00    +0.000 A 
BRANCH  11  12
ATOM     12  C   UNL     1      -1.775  11.614  23.094  0.00  0.00    +0.000 C 
ATOM     13  O   UNL     1      -1.262  10.516  23.195  0.00  0.00    +0.000 OA
BRANCH  12  14
ATOM     14  O   UNL     1      -3.096  11.832  23.270  0.00  0.00    +0.000 OA
ATOM     15  H   UNL     1      -3.671  11.278  22.708  0.00  0.00    +0.000 HD
ENDBRANCH  12  14
ENDBRANCH  11  12
ENDBRANCH   4   6
ENDBRANCH   1   2
BRANCH   1  16
ATOM     16  N   UNL     1      -0.705  10.225  17.525  0.00  0.00    +0.000 NA
ATOM     17  H   UNL     1      -0.288  10.969  16.965  0.00  0.00    +0.000 HD
ATOM     18  H   UNL     1      -1.696  10.474  17.599  0.00  0.00    +0.000 HD
ENDBRANCH   1  16
BRANCH   1  19
ATOM     19  C   UNL     1       1.398   9.918  18.933  0.00  0.00    +0.000 C 
BRANCH  19  20
ATOM     20  C   UNL     1       1.685   8.509  19.350  0.00  0.00    +0.000 A 
ATOM     21  C   UNL     1       1.535   7.911  20.581  0.00  0.00    +0.000 A 
ATOM     22  N   UNL     1       1.880   6.577  20.640  0.00  0.00    +0.000 NA
ATOM     23  C   UNL     1       2.287   6.147  19.466  0.00  0.00    +0.000 A 
ATOM     24  S   UNL     1       2.306   7.364  18.244  0.00  0.00    +0.000 S 
BRANCH  23  25
ATOM     25  C   UNL     1       2.713   4.771  19.160  0.00  0.00    +0.000 A 
ATOM     26  C   UNL     1       1.744   3.769  18.930  0.00  0.00    +0.000 A 
ATOM     27  C   UNL     1       2.100   2.456  18.628  0.00  0.00    +0.000 A 
ATOM     28  C   UNL     1       3.446   2.119  18.552  0.00  0.00    +0.000 A 
ATOM     29  C   UNL     1       4.427   3.075  18.778  0.00  0.00    +0.000 A 
ATOM     30  C   UNL     1       4.068   4.395  19.083  0.00  0.00    +0.000 A 
ATOM     31 CL   UNL     1       5.377   5.486  19.398  0.00  0.00    +0.000 Cl
BRANCH  28  32
ATOM     32  O   UNL     1       3.848   0.850  18.267  0.00  0.00    +0.000 OA
ATOM     33  H   UNL     1       4.501   0.874  17.550  0.00  0.00    +0.000 HD
ENDBRANCH  28  32
ENDBRANCH  23  25
ENDBRANCH  19  20
ENDBRANCH   1  19
TORSDOF 9
ENDMDL
