MODEL 1
REMARK VINA RESULT:      -7.6      0.000      0.000
REMARK  Name = 
REMARK  4 active torsions:
REMARK  status: ('A' for Active; 'I' for Inactive)
REMARK    1  A    between atoms: C_4  and  S_5
REMARK    2  A    between atoms: S_5  and  C_6
REMARK    3  A    between atoms: N_15  and  C_16
REMARK    4  A    between atoms: C_16  and  C_17
REMARK                            x       y       z     vdW  Elec       q    Type
REMARK                         _______ _______ _______ _____ _____    ______ ____
ROOT
ATOM      1  O   UNL     1       3.772   2.514  17.251  0.00  0.00    +0.000 OA
ATOM      2  C   UNL     1       3.243   3.507  17.694  0.00  0.00    +0.000 C 
ATOM      3  C   UNL     1       1.913   3.853  18.369  0.00  0.00    +0.000 C 
ATOM      4  C   UNL     1       2.394   5.321  18.265  0.00  0.00    +0.000 C 
ATOM      5  N   UNL     1       3.689   4.788  17.838  0.00  0.00    +0.000 N 
ATOM      6  C   UNL     1       4.696   5.428  17.153  0.00  0.00    +0.000 C 
ATOM      7  O   UNL     1       4.660   6.623  16.878  0.00  0.00    +0.000 OA
ATOM      8  N   UNL     1       5.742   4.607  16.809  0.00  0.00    +0.000 N 
ATOM      9  H   UNL     1       5.534   3.615  16.728  0.00  0.00    +0.000 HD
ENDROOT
BRANCH   4  10
ATOM     10  S   UNL     1       2.562   6.157  19.882  0.00  0.00    +0.000 S 
BRANCH  10  11
ATOM     11  C   UNL     1       1.975   7.781  19.445  0.00  0.00    +0.000 A 
ATOM     12  C   UNL     1       1.291   8.523  20.414  0.00  0.00    +0.000 A 
ATOM     13  C   UNL     1       0.785   9.787  20.111  0.00  0.00    +0.000 A 
ATOM     14  C   UNL     1       0.968  10.322  18.839  0.00  0.00    +0.000 A 
ATOM     15  C   UNL     1       1.670   9.599  17.874  0.00  0.00    +0.000 A 
ATOM     16  C   UNL     1       2.179   8.332  18.178  0.00  0.00    +0.000 A 
ENDBRANCH  10  11
ENDBRANCH   4  10
BRANCH   8  17
ATOM     17  C   UNL     1       6.911   5.100  16.119  0.00  0.00    +0.000 C 
BRANCH  17  18
ATOM     18  C   UNL     1       6.922   4.732  14.653  0.00  0.00    +0.000 A 
ATOM     19  C   UNL     1       6.017   3.769  14.175  0.00  0.00    +0.000 A 
ATOM     20  C   UNL     1       5.975   3.442  12.815  0.00  0.00    +0.000 A 
ATOM     21  C   UNL     1       6.830   4.074  11.916  0.00  0.00    +0.000 A 
ATOM     22  C   UNL     1       7.718   5.045  12.372  0.00  0.00    +0.000 A 
ATOM     23  C   UNL     1       7.756   5.379  13.728  0.00  0.00    +0.000 A 
ENDBRANCH  17  18
ENDBRANCH   8  17
TORSDOF 4
ENDMDL
MODEL 2
REMARK VINA RESULT:      -7.6      0.131      1.458
REMARK  Name = 
REMARK  4 active torsions:
REMARK  status: ('A' for Active; 'I' for Inactive)
REMARK    1  A    between atoms: C_4  and  S_5
REMARK    2  A    between atoms: S_5  and  C_6
REMARK    3  A    between atoms: N_15  and  C_16
REMARK    4  A    between atoms: C_16  and  C_17
REMARK                            x       y       z     vdW  Elec       q    Type
REMARK                         _______ _______ _______ _____ _____    ______ ____
ROOT
ATOM      1  O   UNL     1       3.604   2.491  17.287  0.00  0.00    +0.000 OA
ATOM      2  C   UNL     1       3.101   3.500  17.726  0.00  0.00    +0.000 C 
ATOM      3  C   UNL     1       1.778   3.884  18.395  0.00  0.00    +0.000 C 
ATOM      4  C   UNL     1       2.300   5.337  18.291  0.00  0.00    +0.000 C 
ATOM      5  N   UNL     1       3.581   4.768  17.870  0.00  0.00    +0.000 N 
ATOM      6  C   UNL     1       4.609   5.377  17.188  0.00  0.00    +0.000 C 
ATOM      7  O   UNL     1       4.607   6.573  16.912  0.00  0.00    +0.000 OA
ATOM      8  N   UNL     1       5.633   4.527  16.850  0.00  0.00    +0.000 N 
ATOM      9  H   UNL     1       5.398   3.542  16.770  0.00  0.00    +0.000 HD
ENDROOT
BRANCH   4  10
ATOM     10  S   UNL     1       2.485   6.171  19.908  0.00  0.00    +0.000 S 
BRANCH  10  11
ATOM     11  C   UNL     1       1.930   7.805  19.470  0.00  0.00    +0.000 A 
ATOM     12  C   UNL     1       2.190   8.270  18.176  0.00  0.00    +0.000 A 
ATOM     13  C   UNL     1       1.803   9.555  17.794  0.00  0.00    +0.000 A 
ATOM     14  C   UNL     1       1.144  10.381  18.702  0.00  0.00    +0.000 A 
ATOM     15  C   UNL     1       0.859   9.916  19.986  0.00  0.00    +0.000 A 
ATOM     16  C   UNL     1       1.246   8.628  20.369  0.00  0.00    +0.000 A 
ENDBRANCH  10  11
ENDBRANCH   4  10
BRANCH   8  17
ATOM     17  C   UNL     1       6.818   4.986  16.164  0.00  0.00    +0.000 C 
BRANCH  17  18
ATOM     18  C   UNL     1       6.784   4.695  14.681  0.00  0.00    +0.000 A 
ATOM     19  C   UNL     1       7.721   5.311  13.834  0.00  0.00    +0.000 A 
ATOM     20  C   UNL     1       7.740   5.026  12.464  0.00  0.00    +0.000 A 
ATOM     21  C   UNL     1       6.831   4.119  11.925  0.00  0.00    +0.000 A 
ATOM     22  C   UNL     1       5.910   3.486  12.756  0.00  0.00    +0.000 A 
ATOM     23  C   UNL     1       5.894   3.764  14.125  0.00  0.00    +0.000 A 
ENDBRANCH  17  18
ENDBRANCH   8  17
TORSDOF 4
ENDMDL
MODEL 3
REMARK VINA RESULT:      -7.6      0.120      1.034
REMARK  Name = 
REMARK  4 active torsions:
REMARK  status: ('A' for Active; 'I' for Inactive)
REMARK    1  A    between atoms: C_4  and  S_5
REMARK    2  A    between atoms: S_5  and  C_6
REMARK    3  A    between atoms: N_15  and  C_16
REMARK    4  A    between atoms: C_16  and  C_17
REMARK                            x       y       z     vdW  Elec       q    Type
REMARK                         _______ _______ _______ _____ _____    ______ ____
ROOT
ATOM      1  O   UNL     1       3.912   2.543  17.396  0.00  0.00    +0.000 OA
ATOM      2  C   UNL     1       3.368   3.533  17.827  0.00  0.00    +0.000 C 
ATOM      3  C   UNL     1       2.044   3.861  18.522  0.00  0.00    +0.000 C 
ATOM      4  C   UNL     1       2.484   5.338  18.372  0.00  0.00    +0.000 C 
ATOM      5  N   UNL     1       3.783   4.827  17.930  0.00  0.00    +0.000 N 
ATOM      6  C   UNL     1       4.759   5.475  17.208  0.00  0.00    +0.000 C 
ATOM      7  O   UNL     1       4.686   6.663  16.906  0.00  0.00    +0.000 OA
ATOM      8  N   UNL     1       5.818   4.673  16.861  0.00  0.00    +0.000 N 
ATOM      9  H   UNL     1       5.634   3.675  16.809  0.00  0.00    +0.000 HD
ENDROOT
BRANCH   4  10
ATOM     10  S   UNL     1       2.665   6.217  19.965  0.00  0.00    +0.000 S 
BRANCH  10  11
ATOM     11  C   UNL     1       1.958   7.791  19.523  0.00  0.00    +0.000 A 
ATOM     12  C   UNL     1       2.078   8.223  18.198  0.00  0.00    +0.000 A 
ATOM     13  C   UNL     1       1.568   9.463  17.808  0.00  0.00    +0.000 A 
ATOM     14  C   UNL     1       0.928  10.274  18.741  0.00  0.00    +0.000 A 
ATOM     15  C   UNL     1       0.782   9.840  20.059  0.00  0.00    +0.000 A 
ATOM     16  C   UNL     1       1.292   8.597  20.449  0.00  0.00    +0.000 A 
ENDBRANCH  10  11
ENDBRANCH   4  10
BRANCH   8  17
ATOM     17  C   UNL     1       6.959   5.178  16.134  0.00  0.00    +0.000 C 
BRANCH  17  18
ATOM     18  C   UNL     1       6.945   4.779  14.676  0.00  0.00    +0.000 A 
ATOM     19  C   UNL     1       6.038   3.801  14.236  0.00  0.00    +0.000 A 
ATOM     20  C   UNL     1       5.973   3.445  12.884  0.00  0.00    +0.000 A 
ATOM     21  C   UNL     1       6.808   4.063  11.956  0.00  0.00    +0.000 A 
ATOM     22  C   UNL     1       7.698   5.048  12.375  0.00  0.00    +0.000 A 
ATOM     23  C   UNL     1       7.759   5.411  13.723  0.00  0.00    +0.000 A 
ENDBRANCH  17  18
ENDBRANCH   8  17
TORSDOF 4
ENDMDL
MODEL 4
REMARK VINA RESULT:      -7.5      2.761      6.556
REMARK  Name = 
REMARK  4 active torsions:
REMARK  status: ('A' for Active; 'I' for Inactive)
REMARK    1  A    between atoms: C_4  and  S_5
REMARK    2  A    between atoms: S_5  and  C_6
REMARK    3  A    between atoms: N_15  and  C_16
REMARK    4  A    between atoms: C_16  and  C_17
REMARK                            x       y       z     vdW  Elec       q    Type
REMARK                         _______ _______ _______ _____ _____    ______ ____
ROOT
ATOM      1  O   UNL     1       1.175   2.839  18.936  0.00  0.00    +0.000 OA
ATOM      2  C   UNL     1       2.293   2.949  18.488  0.00  0.00    +0.000 C 
ATOM      3  C   UNL     1       3.248   2.090  17.655  0.00  0.00    +0.000 C 
ATOM      4  C   UNL     1       4.280   3.212  17.923  0.00  0.00    +0.000 C 
ATOM      5  N   UNL     1       3.178   3.987  18.495  0.00  0.00    +0.000 N 
ATOM      6  C   UNL     1       3.238   5.057  19.358  0.00  0.00    +0.000 C 
ATOM      7  O   UNL     1       4.295   5.575  19.703  0.00  0.00    +0.000 OA
ATOM      8  N   UNL     1       2.009   5.490  19.793  0.00  0.00    +0.000 N 
ATOM      9  H   UNL     1       1.256   4.808  19.777  0.00  0.00    +0.000 HD
ENDROOT
BRANCH   4  10
ATOM     10  S   UNL     1       4.897   4.024  16.405  0.00  0.00    +0.000 S 
BRANCH  10  11
ATOM     11  C   UNL     1       6.065   5.160  17.124  0.00  0.00    +0.000 A 
ATOM     12  C   UNL     1       6.993   4.664  18.045  0.00  0.00    +0.000 A 
ATOM     13  C   UNL     1       7.909   5.520  18.660  0.00  0.00    +0.000 A 
ATOM     14  C   UNL     1       7.907   6.877  18.349  0.00  0.00    +0.000 A 
ATOM     15  C   UNL     1       7.000   7.376  17.414  0.00  0.00    +0.000 A 
ATOM     16  C   UNL     1       6.084   6.519  16.797  0.00  0.00    +0.000 A 
ENDBRANCH  10  11
ENDBRANCH   4  10
BRANCH   8  17
ATOM     17  C   UNL     1       1.861   6.624  20.674  0.00  0.00    +0.000 C 
BRANCH  17  18
ATOM     18  C   UNL     1       1.657   7.922  19.926  0.00  0.00    +0.000 A 
ATOM     19  C   UNL     1       2.134   8.043  18.610  0.00  0.00    +0.000 A 
ATOM     20  C   UNL     1       1.920   9.217  17.879  0.00  0.00    +0.000 A 
ATOM     21  C   UNL     1       1.224  10.280  18.449  0.00  0.00    +0.000 A 
ATOM     22  C   UNL     1       0.729  10.167  19.745  0.00  0.00    +0.000 A 
ATOM     23  C   UNL     1       0.935   8.993  20.475  0.00  0.00    +0.000 A 
ENDBRANCH  17  18
ENDBRANCH   8  17
TORSDOF 4
ENDMDL
MODEL 5
REMARK VINA RESULT:      -7.4      4.313      6.189
REMARK  Name = 
REMARK  4 active torsions:
REMARK  status: ('A' for Active; 'I' for Inactive)
REMARK    1  A    between atoms: C_4  and  S_5
REMARK    2  A    between atoms: S_5  and  C_6
REMARK    3  A    between atoms: N_15  and  C_16
REMARK    4  A    between atoms: C_16  and  C_17
REMARK                            x       y       z     vdW  Elec       q    Type
REMARK                         _______ _______ _______ _____ _____    ______ ____
ROOT
ATOM      1  O   UNL     1       7.555   5.544  19.942  0.00  0.00    +0.000 OA
ATOM      2  C   UNL     1       6.534   5.439  19.303  0.00  0.00    +0.000 C 
ATOM      3  C   UNL     1       5.333   4.490  19.273  0.00  0.00    +0.000 C 
ATOM      4  C   UNL     1       4.902   5.287  18.018  0.00  0.00    +0.000 C 
ATOM      5  N   UNL     1       5.981   6.225  18.335  0.00  0.00    +0.000 N 
ATOM      6  C   UNL     1       6.603   7.130  17.506  0.00  0.00    +0.000 C 
ATOM      7  O   UNL     1       6.242   7.331  16.351  0.00  0.00    +0.000 OA
ATOM      8  N   UNL     1       7.657   7.786  18.092  0.00  0.00    +0.000 N 
ATOM      9  H   UNL     1       8.113   7.312  18.868  0.00  0.00    +0.000 HD
ENDROOT
BRANCH   4  10
ATOM     10  S   UNL     1       3.281   6.114  18.192  0.00  0.00    +0.000 S 
BRANCH  10  11
ATOM     11  C   UNL     1       2.301   4.740  18.762  0.00  0.00    +0.000 A 
ATOM     12  C   UNL     1       1.787   4.786  20.062  0.00  0.00    +0.000 A 
ATOM     13  C   UNL     1       1.040   3.720  20.566  0.00  0.00    +0.000 A 
ATOM     14  C   UNL     1       0.794   2.606  19.768  0.00  0.00    +0.000 A 
ATOM     15  C   UNL     1       1.282   2.563  18.462  0.00  0.00    +0.000 A 
ATOM     16  C   UNL     1       2.030   3.631  17.956  0.00  0.00    +0.000 A 
ENDBRANCH  10  11
ENDBRANCH   4  10
BRANCH   8  17
ATOM     17  C   UNL     1       8.414   8.801  17.396  0.00  0.00    +0.000 C 
BRANCH  17  18
ATOM     18  C   UNL     1       8.746   9.986  18.274  0.00  0.00    +0.000 A 
ATOM     19  C   UNL     1       9.134   9.770  19.607  0.00  0.00    +0.000 A 
ATOM     20  C   UNL     1       9.490  10.846  20.429  0.00  0.00    +0.000 A 
ATOM     21  C   UNL     1       9.469  12.146  19.930  0.00  0.00    +0.000 A 
ATOM     22  C   UNL     1       9.106  12.372  18.605  0.00  0.00    +0.000 A 
ATOM     23  C   UNL     1       8.757  11.299  17.780  0.00  0.00    +0.000 A 
ENDBRANCH  17  18
ENDBRANCH   8  17
TORSDOF 4
ENDMDL
MODEL 6
REMARK VINA RESULT:      -7.4      2.774      6.665
REMARK  Name = 
REMARK  4 active torsions:
REMARK  status: ('A' for Active; 'I' for Inactive)
REMARK    1  A    between atoms: C_4  and  S_5
REMARK    2  A    between atoms: S_5  and  C_6
REMARK    3  A    between atoms: N_15  and  C_16
REMARK    4  A    between atoms: C_16  and  C_17
REMARK                            x       y       z     vdW  Elec       q    Type
REMARK                         _______ _______ _______ _____ _____    ______ ____
ROOT
ATOM      1  O   UNL     1       1.002   3.236  18.582  0.00  0.00    +0.000 OA
ATOM      2  C   UNL     1       2.153   3.272  18.214  0.00  0.00    +0.000 C 
ATOM      3  C   UNL     1       3.092   2.370  17.407  0.00  0.00    +0.000 C 
ATOM      4  C   UNL     1       4.189   3.392  17.792  0.00  0.00    +0.000 C 
ATOM      5  N   UNL     1       3.115   4.232  18.324  0.00  0.00    +0.000 N 
ATOM      6  C   UNL     1       3.200   5.259  19.237  0.00  0.00    +0.000 C 
ATOM      7  O   UNL     1       4.269   5.675  19.672  0.00  0.00    +0.000 OA
ATOM      8  N   UNL     1       1.983   5.774  19.609  0.00  0.00    +0.000 N 
ATOM      9  H   UNL     1       1.181   5.157  19.514  0.00  0.00    +0.000 HD
ENDROOT
BRANCH   4  10
ATOM     10  S   UNL     1       4.971   4.209  16.355  0.00  0.00    +0.000 S 
BRANCH  10  11
ATOM     11  C   UNL     1       6.161   5.230  17.199  0.00  0.00    +0.000 A 
ATOM     12  C   UNL     1       6.216   6.590  16.877  0.00  0.00    +0.000 A 
ATOM     13  C   UNL     1       7.153   7.426  17.488  0.00  0.00    +0.000 A 
ATOM     14  C   UNL     1       8.033   6.907  18.433  0.00  0.00    +0.000 A 
ATOM     15  C   UNL     1       7.968   5.558  18.779  0.00  0.00    +0.000 A 
ATOM     16  C   UNL     1       7.030   4.720  18.168  0.00  0.00    +0.000 A 
ENDBRANCH  10  11
ENDBRANCH   4  10
BRANCH   8  17
ATOM     17  C   UNL     1       1.866   6.881  20.528  0.00  0.00    +0.000 C 
BRANCH  17  18
ATOM     18  C   UNL     1       1.569   8.190  19.832  0.00  0.00    +0.000 A 
ATOM     19  C   UNL     1       0.892   9.205  20.527  0.00  0.00    +0.000 A 
ATOM     20  C   UNL     1       0.643  10.442  19.921  0.00  0.00    +0.000 A 
ATOM     21  C   UNL     1       1.073  10.682  18.618  0.00  0.00    +0.000 A 
ATOM     22  C   UNL     1       1.764   9.692  17.925  0.00  0.00    +0.000 A 
ATOM     23  C   UNL     1       2.019   8.459  18.530  0.00  0.00    +0.000 A 
ENDBRANCH  17  18
ENDBRANCH   8  17
TORSDOF 4
ENDMDL
MODEL 7
REMARK VINA RESULT:      -7.3      4.315      6.232
REMARK  Name = 
REMARK  4 active torsions:
REMARK  status: ('A' for Active; 'I' for Inactive)
REMARK    1  A    between atoms: C_4  and  S_5
REMARK    2  A    between atoms: S_5  and  C_6
REMARK    3  A    between atoms: N_15  and  C_16
REMARK    4  A    between atoms: C_16  and  C_17
REMARK                            x       y       z     vdW  Elec       q    Type
REMARK                         _______ _______ _______ _____ _____    ______ ____
ROOT
ATOM      1  O   UNL     1       7.573   5.565  19.928  0.00  0.00    +0.000 OA
ATOM      2  C   UNL     1       6.546   5.462  19.297  0.00  0.00    +0.000 C 
ATOM      3  C   UNL     1       5.345   4.512  19.274  0.00  0.00    +0.000 C 
ATOM      4  C   UNL     1       4.904   5.313  18.025  0.00  0.00    +0.000 C 
ATOM      5  N   UNL     1       5.985   6.250  18.336  0.00  0.00    +0.000 N 
ATOM      6  C   UNL     1       6.600   7.157  17.504  0.00  0.00    +0.000 C 
ATOM      7  O   UNL     1       6.230   7.361  16.352  0.00  0.00    +0.000 OA
ATOM      8  N   UNL     1       7.659   7.812  18.083  0.00  0.00    +0.000 N 
ATOM      9  H   UNL     1       8.121   7.336  18.854  0.00  0.00    +0.000 HD
ENDROOT
BRANCH   4  10
ATOM     10  S   UNL     1       3.284   6.139  18.215  0.00  0.00    +0.000 S 
BRANCH  10  11
ATOM     11  C   UNL     1       2.301   4.755  18.755  0.00  0.00    +0.000 A 
ATOM     12  C   UNL     1       1.754   4.793  20.042  0.00  0.00    +0.000 A 
ATOM     13  C   UNL     1       1.003   3.719  20.524  0.00  0.00    +0.000 A 
ATOM     14  C   UNL     1       0.787   2.606  19.717  0.00  0.00    +0.000 A 
ATOM     15  C   UNL     1       1.308   2.571  18.423  0.00  0.00    +0.000 A 
ATOM     16  C   UNL     1       2.059   3.647  17.940  0.00  0.00    +0.000 A 
ENDBRANCH  10  11
ENDBRANCH   4  10
BRANCH   8  17
ATOM     17  C   UNL     1       8.410   8.829  17.384  0.00  0.00    +0.000 C 
BRANCH  17  18
ATOM     18  C   UNL     1       8.802   9.983  18.278  0.00  0.00    +0.000 A 
ATOM     19  C   UNL     1       8.757  11.294  17.773  0.00  0.00    +0.000 A 
ATOM     20  C   UNL     1       9.072  12.385  18.592  0.00  0.00    +0.000 A 
ATOM     21  C   UNL     1       9.429  12.181  19.922  0.00  0.00    +0.000 A 
ATOM     22  C   UNL     1       9.458  10.889  20.441  0.00  0.00    +0.000 A 
ATOM     23  C   UNL     1       9.137   9.799  19.628  0.00  0.00    +0.000 A 
ENDBRANCH  17  18
ENDBRANCH   8  17
TORSDOF 4
ENDMDL
MODEL 8
REMARK VINA RESULT:      -7.3      4.301      6.252
REMARK  Name = 
REMARK  4 active torsions:
REMARK  status: ('A' for Active; 'I' for Inactive)
REMARK    1  A    between atoms: C_4  and  S_5
REMARK    2  A    between atoms: S_5  and  C_6
REMARK    3  A    between atoms: N_15  and  C_16
REMARK    4  A    between atoms: C_16  and  C_17
REMARK                            x       y       z     vdW  Elec       q    Type
REMARK                         _______ _______ _______ _____ _____    ______ ____
ROOT
ATOM      1  O   UNL     1       7.552   5.540  19.951  0.00  0.00    +0.000 OA
ATOM      2  C   UNL     1       6.532   5.434  19.311  0.00  0.00    +0.000 C 
ATOM      3  C   UNL     1       5.327   4.489  19.283  0.00  0.00    +0.000 C 
ATOM      4  C   UNL     1       4.903   5.280  18.022  0.00  0.00    +0.000 C 
ATOM      5  N   UNL     1       5.984   6.216  18.336  0.00  0.00    +0.000 N 
ATOM      6  C   UNL     1       6.612   7.113  17.503  0.00  0.00    +0.000 C 
ATOM      7  O   UNL     1       6.255   7.308  16.345  0.00  0.00    +0.000 OA
ATOM      8  N   UNL     1       7.668   7.769  18.087  0.00  0.00    +0.000 N 
ATOM      9  H   UNL     1       8.119   7.299  18.867  0.00  0.00    +0.000 HD
ENDROOT
BRANCH   4  10
ATOM     10  S   UNL     1       3.284   6.114  18.186  0.00  0.00    +0.000 S 
BRANCH  10  11
ATOM     11  C   UNL     1       2.310   4.762  18.813  0.00  0.00    +0.000 A 
ATOM     12  C   UNL     1       2.089   3.660  17.979  0.00  0.00    +0.000 A 
ATOM     13  C   UNL     1       1.307   2.589  18.412  0.00  0.00    +0.000 A 
ATOM     14  C   UNL     1       0.747   2.609  19.687  0.00  0.00    +0.000 A 
ATOM     15  C   UNL     1       0.983   3.692  20.534  0.00  0.00    +0.000 A 
ATOM     16  C   UNL     1       1.768   4.765  20.101  0.00  0.00    +0.000 A 
ENDBRANCH  10  11
ENDBRANCH   4  10
BRANCH   8  17
ATOM     17  C   UNL     1       8.430   8.776  17.386  0.00  0.00    +0.000 C 
BRANCH  17  18
ATOM     18  C   UNL     1       8.742   9.977  18.250  0.00  0.00    +0.000 A 
ATOM     19  C   UNL     1       9.133   9.785  19.585  0.00  0.00    +0.000 A 
ATOM     20  C   UNL     1       9.470  10.877  20.394  0.00  0.00    +0.000 A 
ATOM     21  C   UNL     1       9.427  12.170  19.878  0.00  0.00    +0.000 A 
ATOM     22  C   UNL     1       9.060  12.373  18.551  0.00  0.00    +0.000 A 
ATOM     23  C   UNL     1       8.730  11.285  17.739  0.00  0.00    +0.000 A 
ENDBRANCH  17  18
ENDBRANCH   8  17
TORSDOF 4
ENDMDL
MODEL 9
REMARK VINA RESULT:      -7.1      2.754      4.343
REMARK  Name = 
REMARK  4 active torsions:
REMARK  status: ('A' for Active; 'I' for Inactive)
REMARK    1  A    between atoms: C_4  and  S_5
REMARK    2  A    between atoms: S_5  and  C_6
REMARK    3  A    between atoms: N_15  and  C_16
REMARK    4  A    between atoms: C_16  and  C_17
REMARK                            x       y       z     vdW  Elec       q    Type
REMARK                         _______ _______ _______ _____ _____    ______ ____
ROOT
ATOM      1  O   UNL     1       5.575   7.385  16.193  0.00  0.00    +0.000 OA
ATOM      2  C   UNL     1       5.116   6.404  16.730  0.00  0.00    +0.000 C 
ATOM      3  C   UNL     1       4.314   6.103  18.000  0.00  0.00    +0.000 C 
ATOM      4  C   UNL     1       4.526   4.617  17.623  0.00  0.00    +0.000 C 
ATOM      5  N   UNL     1       5.071   5.095  16.351  0.00  0.00    +0.000 N 
ATOM      6  C   UNL     1       5.886   4.431  15.463  0.00  0.00    +0.000 C 
ATOM      7  O   UNL     1       6.201   3.253  15.601  0.00  0.00    +0.000 OA
ATOM      8  N   UNL     1       6.310   5.206  14.412  0.00  0.00    +0.000 N 
ATOM      9  H   UNL     1       6.329   6.211  14.567  0.00  0.00    +0.000 HD
ENDROOT
BRANCH   4  10
ATOM     10  S   UNL     1       2.970   3.701  17.335  0.00  0.00    +0.000 S 
BRANCH  10  11
ATOM     11  C   UNL     1       2.493   3.379  19.020  0.00  0.00    +0.000 A 
ATOM     12  C   UNL     1       3.445   2.830  19.886  0.00  0.00    +0.000 A 
ATOM     13  C   UNL     1       3.111   2.531  21.208  0.00  0.00    +0.000 A 
ATOM     14  C   UNL     1       1.824   2.788  21.674  0.00  0.00    +0.000 A 
ATOM     15  C   UNL     1       0.876   3.359  20.824  0.00  0.00    +0.000 A 
ATOM     16  C   UNL     1       1.211   3.660  19.500  0.00  0.00    +0.000 A 
ENDBRANCH  10  11
ENDBRANCH   4  10
BRANCH   8  17
ATOM     17  C   UNL     1       7.142   4.681  13.355  0.00  0.00    +0.000 C 
BRANCH  17  18
ATOM     18  C   UNL     1       6.426   3.657  12.503  0.00  0.00    +0.000 A 
ATOM     19  C   UNL     1       5.056   3.817  12.236  0.00  0.00    +0.000 A 
ATOM     20  C   UNL     1       4.378   2.908  11.414  0.00  0.00    +0.000 A 
ATOM     21  C   UNL     1       5.060   1.835  10.846  0.00  0.00    +0.000 A 
ATOM     22  C   UNL     1       6.422   1.676  11.086  0.00  0.00    +0.000 A 
ATOM     23  C   UNL     1       7.102   2.586  11.900  0.00  0.00    +0.000 A 
ENDBRANCH  17  18
ENDBRANCH   8  17
TORSDOF 4
ENDMDL
