MODEL 1
REMARK VINA RESULT:      -7.7      0.000      0.000
REMARK  Name = 
REMARK  6 active torsions:
REMARK  status: ('A' for Active; 'I' for Inactive)
REMARK    1  A    between atoms: N_1  and  C_2
REMARK    2  A    between atoms: N_10  and  C_11
REMARK    3  A    between atoms: C_13  and  C_14
REMARK    4  A    between atoms: C_14  and  N_15
REMARK    5  A    between atoms: C_26  and  O_27
REMARK    6  A    between atoms: C_28  and  O_29
REMARK                            x       y       z     vdW  Elec       q    Type
REMARK                         _______ _______ _______ _____ _____    ______ ____
ROOT
ATOM      1  C   UNL     1       2.771   5.960  19.965  0.00  0.00    +0.000 C 
ATOM      2  O   UNL     1       4.152   5.749  19.605  0.00  0.00    +0.000 OA
ATOM      3  C   UNL     1       4.395   4.336  19.448  0.00  0.00    +0.000 C 
ATOM      4  C   UNL     1       3.049   3.625  19.644  0.00  0.00    +0.000 C 
ATOM      5  C   UNL     1       2.004   4.723  19.504  0.00  0.00    +0.000 C 
ENDROOT
BRANCH   1  14
ATOM      6  C   UNL     1       0.759  10.323  19.401  0.00  0.00    +0.000 A 
ATOM      7  N   UNL     1       0.371  10.446  20.692  0.00  0.00    +0.000 NA
ATOM      8  C   UNL     1       0.628   9.421  21.532  0.00  0.00    +0.000 A 
ATOM      9  N   UNL     1       1.260   8.258  21.278  0.00  0.00    +0.000 NA
ATOM     10  C   UNL     1       1.633   8.194  19.986  0.00  0.00    +0.000 A 
ATOM     11  C   UNL     1       1.424   9.151  19.007  0.00  0.00    +0.000 A 
ATOM     12  N   UNL     1       1.963   8.748  17.801  0.00  0.00    +0.000 NA
ATOM     13  C   UNL     1       2.495   7.570  18.050  0.00  0.00    +0.000 A 
ATOM     14  N   UNL     1       2.313   7.189  19.353  0.00  0.00    +0.000 N 
BRANCH   6  15
ATOM     15  N   UNL     1       0.510  11.382  18.533  0.00  0.00    +0.000 N 
ATOM     16  H   UNL     1       0.095  11.062  17.668  0.00  0.00    +0.000 HD
ATOM     17  H   UNL     1       0.071  12.169  18.997  0.00  0.00    +0.000 HD
ENDBRANCH   6  15
ENDBRANCH   1  14
BRANCH   4  18
ATOM     18  O   UNL     1       2.943   3.063  20.965  0.00  0.00    +0.000 OA
ATOM     19  H   UNL     1       2.262   3.551  21.465  0.00  0.00    +0.000 HD
ENDBRANCH   4  18
BRANCH   5  20
ATOM     20  O   UNL     1       0.850   4.443  20.294  0.00  0.00    +0.000 OA
ATOM     21  H   UNL     1       0.515   5.302  20.628  0.00  0.00    +0.000 HD
ENDBRANCH   5  20
BRANCH   3  22
ATOM     22  C   UNL     1       5.043   4.041  18.070  0.00  0.00    +0.000 C 
BRANCH  22  23
ATOM     23  N   UNL     1       6.123   4.968  17.655  0.00  0.00    +0.000 NA
ATOM     24  C   UNL     1       7.245   4.344  16.944  0.00  0.00    +0.000 C 
ATOM     25  C   UNL     1       6.875   3.800  15.561  0.00  0.00    +0.000 C 
ATOM     26  C   UNL     1       6.161   4.825  14.635  0.00  0.00    +0.000 C 
ATOM     27  C   UNL     1       7.169   5.773  13.929  0.00  0.00    +0.000 C 
ATOM     28  C   UNL     1       8.038   5.067  12.882  0.00  0.00    +0.000 C 
ATOM     29  N   UNL     1       7.233   4.352  11.894  0.00  0.00    +0.000 NA
ATOM     30  C   UNL     1       6.332   3.386  12.516  0.00  0.00    +0.000 C 
ATOM     31  C   UNL     1       5.399   4.063  13.519  0.00  0.00    +0.000 C 
ATOM     32  C   UNL     1       5.133   5.658  15.449  0.00  0.00    +0.000 C 
ATOM     33  C   UNL     1       5.621   6.084  16.838  0.00  0.00    +0.000 C 
ATOM     34  H   UNL     1       7.847   3.869  11.239  0.00  0.00    +0.000 HD
ENDBRANCH  22  23
ENDBRANCH   3  22
TORSDOF 6
ENDMDL
MODEL 2
REMARK VINA RESULT:      -7.5      2.853      4.643
REMARK  Name = 
REMARK  6 active torsions:
REMARK  status: ('A' for Active; 'I' for Inactive)
REMARK    1  A    between atoms: N_1  and  C_2
REMARK    2  A    between atoms: N_10  and  C_11
REMARK    3  A    between atoms: C_13  and  C_14
REMARK    4  A    between atoms: C_14  and  N_15
REMARK    5  A    between atoms: C_26  and  O_27
REMARK    6  A    between atoms: C_28  and  O_29
REMARK                            x       y       z     vdW  Elec       q    Type
REMARK                         _______ _______ _______ _____ _____    ______ ____
ROOT
ATOM      1  C   UNL     1       0.473   9.917  19.967  0.00  0.00    +0.000 C 
ATOM      2  O   UNL     1       1.518   9.159  19.325  0.00  0.00    +0.000 OA
ATOM      3  C   UNL     1       2.095   8.239  20.274  0.00  0.00    +0.000 C 
ATOM      4  C   UNL     1       1.294   8.378  21.576  0.00  0.00    +0.000 C 
ATOM      5  C   UNL     1       0.016   9.100  21.173  0.00  0.00    +0.000 C 
ENDROOT
BRANCH   1  14
ATOM      6  C   UNL     1      -3.513  11.725  17.905  0.00  0.00    +0.000 A 
ATOM      7  N   UNL     1      -3.848  12.510  18.955  0.00  0.00    +0.000 NA
ATOM      8  C   UNL     1      -3.063  12.470  20.053  0.00  0.00    +0.000 A 
ATOM      9  N   UNL     1      -1.938  11.759  20.262  0.00  0.00    +0.000 NA
ATOM     10  C   UNL     1      -1.646  11.007  19.185  0.00  0.00    +0.000 A 
ATOM     11  C   UNL     1      -2.361  10.928  18.001  0.00  0.00    +0.000 A 
ATOM     12  N   UNL     1      -1.749  10.067  17.112  0.00  0.00    +0.000 NA
ATOM     13  C   UNL     1      -0.678   9.638  17.746  0.00  0.00    +0.000 A 
ATOM     14  N   UNL     1      -0.578  10.170  19.005  0.00  0.00    +0.000 N 
BRANCH   6  15
ATOM     15  N   UNL     1      -4.308  11.773  16.764  0.00  0.00    +0.000 N 
ATOM     16  H   UNL     1      -4.932  12.568  16.781  0.00  0.00    +0.000 HD
ATOM     17  H   UNL     1      -3.778  11.615  15.914  0.00  0.00    +0.000 HD
ENDBRANCH   6  15
ENDBRANCH   1  14
BRANCH   4  18
ATOM     18  O   UNL     1       1.993   9.195  22.534  0.00  0.00    +0.000 OA
ATOM     19  H   UNL     1       1.351   9.555  23.174  0.00  0.00    +0.000 HD
ENDBRANCH   4  18
BRANCH   5  20
ATOM     20  O   UNL     1      -0.489   9.898  22.243  0.00  0.00    +0.000 OA
ATOM     21  H   UNL     1      -0.919  10.681  21.839  0.00  0.00    +0.000 HD
ENDBRANCH   5  20
BRANCH   3  22
ATOM     22  C   UNL     1       2.090   6.794  19.710  0.00  0.00    +0.000 C 
BRANCH  22  23
ATOM     23  N   UNL     1       2.193   6.679  18.235  0.00  0.00    +0.000 NA
ATOM     24  C   UNL     1       3.384   7.296  17.641  0.00  0.00    +0.000 C 
ATOM     25  C   UNL     1       4.694   6.595  18.011  0.00  0.00    +0.000 C 
ATOM     26  C   UNL     1       4.702   5.062  17.749  0.00  0.00    +0.000 C 
ATOM     27  C   UNL     1       5.008   4.725  16.264  0.00  0.00    +0.000 C 
ATOM     28  C   UNL     1       6.450   5.047  15.853  0.00  0.00    +0.000 C 
ATOM     29  N   UNL     1       7.426   4.408  16.733  0.00  0.00    +0.000 NA
ATOM     30  C   UNL     1       7.223   4.770  18.132  0.00  0.00    +0.000 C 
ATOM     31  C   UNL     1       5.817   4.402  18.603  0.00  0.00    +0.000 C 
ATOM     32  C   UNL     1       3.338   4.442  18.161  0.00  0.00    +0.000 C 
ATOM     33  C   UNL     1       2.117   5.283  17.776  0.00  0.00    +0.000 C 
ATOM     34  H   UNL     1       8.368   4.674  16.447  0.00  0.00    +0.000 HD
ENDBRANCH  22  23
ENDBRANCH   3  22
TORSDOF 6
ENDMDL
MODEL 3
REMARK VINA RESULT:      -7.5      5.255     11.705
REMARK  Name = 
REMARK  6 active torsions:
REMARK  status: ('A' for Active; 'I' for Inactive)
REMARK    1  A    between atoms: N_1  and  C_2
REMARK    2  A    between atoms: N_10  and  C_11
REMARK    3  A    between atoms: C_13  and  C_14
REMARK    4  A    between atoms: C_14  and  N_15
REMARK    5  A    between atoms: C_26  and  O_27
REMARK    6  A    between atoms: C_28  and  O_29
REMARK                            x       y       z     vdW  Elec       q    Type
REMARK                         _______ _______ _______ _____ _____    ______ ____
ROOT
ATOM      1  C   UNL     1       0.466  10.814  19.078  0.00  0.00    +0.000 C 
ATOM      2  O   UNL     1       0.508  11.845  20.087  0.00  0.00    +0.000 OA
ATOM      3  C   UNL     1      -0.579  12.769  19.872  0.00  0.00    +0.000 C 
ATOM      4  C   UNL     1      -1.402  12.227  18.696  0.00  0.00    +0.000 C 
ATOM      5  C   UNL     1      -0.965  10.776  18.550  0.00  0.00    +0.000 C 
ENDROOT
BRANCH   1  14
ATOM      6  C   UNL     1       2.679   6.554  19.674  0.00  0.00    +0.000 A 
ATOM      7  N   UNL     1       3.279   6.557  18.460  0.00  0.00    +0.000 NA
ATOM      8  C   UNL     1       3.035   7.598  17.635  0.00  0.00    +0.000 A 
ATOM      9  N   UNL     1       2.276   8.690  17.854  0.00  0.00    +0.000 NA
ATOM     10  C   UNL     1       1.715   8.640  19.076  0.00  0.00    +0.000 A 
ATOM     11  C   UNL     1       1.856   7.636  20.020  0.00  0.00    +0.000 A 
ATOM     12  N   UNL     1       1.149   7.937  21.168  0.00  0.00    +0.000 NA
ATOM     13  C   UNL     1       0.596   9.106  20.923  0.00  0.00    +0.000 A 
ATOM     14  N   UNL     1       0.901   9.567  19.669  0.00  0.00    +0.000 N 
BRANCH   6  15
ATOM     15  N   UNL     1       2.938   5.492  20.535  0.00  0.00    +0.000 N 
ATOM     16  H   UNL     1       2.298   4.725  20.380  0.00  0.00    +0.000 HD
ATOM     17  H   UNL     1       3.926   5.270  20.591  0.00  0.00    +0.000 HD
ENDBRANCH   6  15
ENDBRANCH   1  14
BRANCH   4  18
ATOM     18  O   UNL     1      -1.087  12.920  17.474  0.00  0.00    +0.000 OA
ATOM     19  H   UNL     1      -1.462  12.426  16.721  0.00  0.00    +0.000 HD
ENDBRANCH   4  18
BRANCH   5  20
ATOM     20  O   UNL     1      -1.059  10.340  17.194  0.00  0.00    +0.000 OA
ATOM     21  H   UNL     1      -0.926   9.369  17.195  0.00  0.00    +0.000 HD
ENDBRANCH   5  20
BRANCH   3  22
ATOM     22  C   UNL     1      -1.413  12.945  21.168  0.00  0.00    +0.000 C 
BRANCH  22  23
ATOM     23  N   UNL     1      -1.975  14.298  21.392  0.00  0.00    +0.000 NA
ATOM     24  C   UNL     1      -3.380  14.466  21.002  0.00  0.00    +0.000 C 
ATOM     25  C   UNL     1      -4.362  13.671  21.867  0.00  0.00    +0.000 C 
ATOM     26  C   UNL     1      -4.204  13.898  23.397  0.00  0.00    +0.000 C 
ATOM     27  C   UNL     1      -4.922  15.191  23.871  0.00  0.00    +0.000 C 
ATOM     28  C   UNL     1      -6.451  15.099  23.798  0.00  0.00    +0.000 C 
ATOM     29  N   UNL     1      -6.965  13.936  24.518  0.00  0.00    +0.000 NA
ATOM     30  C   UNL     1      -6.376  12.690  24.039  0.00  0.00    +0.000 C 
ATOM     31  C   UNL     1      -4.853  12.713  24.160  0.00  0.00    +0.000 C 
ATOM     32  C   UNL     1      -2.699  13.960  23.777  0.00  0.00    +0.000 C 
ATOM     33  C   UNL     1      -1.827  14.742  22.788  0.00  0.00    +0.000 C 
ATOM     34  H   UNL     1      -7.979  13.893  24.416  0.00  0.00    +0.000 HD
ENDBRANCH  22  23
ENDBRANCH   3  22
TORSDOF 6
ENDMDL
MODEL 4
REMARK VINA RESULT:      -7.3      1.557      7.795
REMARK  Name = 
REMARK  6 active torsions:
REMARK  status: ('A' for Active; 'I' for Inactive)
REMARK    1  A    between atoms: N_1  and  C_2
REMARK    2  A    between atoms: N_10  and  C_11
REMARK    3  A    between atoms: C_13  and  C_14
REMARK    4  A    between atoms: C_14  and  N_15
REMARK    5  A    between atoms: C_26  and  O_27
REMARK    6  A    between atoms: C_28  and  O_29
REMARK                            x       y       z     vdW  Elec       q    Type
REMARK                         _______ _______ _______ _____ _____    ______ ____
ROOT
ATOM      1  C   UNL     1       4.608   3.982  17.418  0.00  0.00    +0.000 C 
ATOM      2  O   UNL     1       3.346   4.490  16.937  0.00  0.00    +0.000 OA
ATOM      3  C   UNL     1       2.430   4.619  18.044  0.00  0.00    +0.000 C 
ATOM      4  C   UNL     1       3.205   4.241  19.314  0.00  0.00    +0.000 C 
ATOM      5  C   UNL     1       4.671   4.302  18.908  0.00  0.00    +0.000 C 
ENDROOT
BRANCH   1  14
ATOM      6  C   UNL     1       7.535   5.089  13.728  0.00  0.00    +0.000 A 
ATOM      7  N   UNL     1       6.927   4.269  12.839  0.00  0.00    +0.000 NA
ATOM      8  C   UNL     1       5.889   3.522  13.273  0.00  0.00    +0.000 A 
ATOM      9  N   UNL     1       5.327   3.486  14.498  0.00  0.00    +0.000 NA
ATOM     10  C   UNL     1       5.962   4.326  15.335  0.00  0.00    +0.000 A 
ATOM     11  C   UNL     1       7.046   5.137  15.043  0.00  0.00    +0.000 A 
ATOM     12  N   UNL     1       7.418   5.879  16.146  0.00  0.00    +0.000 NA
ATOM     13  C   UNL     1       6.569   5.527  17.088  0.00  0.00    +0.000 A 
ATOM     14  N   UNL     1       5.676   4.584  16.648  0.00  0.00    +0.000 N 
BRANCH   6  15
ATOM     15  N   UNL     1       8.596   5.872  13.284  0.00  0.00    +0.000 N 
ATOM     16  H   UNL     1       8.869   5.627  12.342  0.00  0.00    +0.000 HD
ATOM     17  H   UNL     1       8.463   6.857  13.489  0.00  0.00    +0.000 HD
ENDBRANCH   6  15
ENDBRANCH   1  14
BRANCH   4  18
ATOM     18  O   UNL     1       2.904   2.896  19.728  0.00  0.00    +0.000 OA
ATOM     19  H   UNL     1       1.951   2.829  19.926  0.00  0.00    +0.000 HD
ENDBRANCH   4  18
BRANCH   5  20
ATOM     20  O   UNL     1       5.454   3.374  19.657  0.00  0.00    +0.000 OA
ATOM     21  H   UNL     1       5.357   2.501  19.222  0.00  0.00    +0.000 HD
ENDBRANCH   5  20
BRANCH   3  22
ATOM     22  C   UNL     1       1.834   6.049  18.099  0.00  0.00    +0.000 C 
BRANCH  22  23
ATOM     23  N   UNL     1       2.711   7.090  18.686  0.00  0.00    +0.000 NA
ATOM     24  C   UNL     1       2.828   8.326  17.904  0.00  0.00    +0.000 C 
ATOM     25  C   UNL     1       1.533   9.140  17.836  0.00  0.00    +0.000 C 
ATOM     26  C   UNL     1       0.888   9.443  19.218  0.00  0.00    +0.000 C 
ATOM     27  C   UNL     1       1.550  10.663  19.915  0.00  0.00    +0.000 C 
ATOM     28  C   UNL     1       1.258  11.996  19.215  0.00  0.00    +0.000 C 
ATOM     29  N   UNL     1      -0.176  12.222  19.044  0.00  0.00    +0.000 NA
ATOM     30  C   UNL     1      -0.820  11.134  18.315  0.00  0.00    +0.000 C 
ATOM     31  C   UNL     1      -0.610   9.793  19.018  0.00  0.00    +0.000 C 
ATOM     32  C   UNL     1       0.981   8.195  20.138  0.00  0.00    +0.000 C 
ATOM     33  C   UNL     1       2.316   7.447  20.058  0.00  0.00    +0.000 C 
ATOM     34  H   UNL     1      -0.325  13.099  18.545  0.00  0.00    +0.000 HD
ENDBRANCH  22  23
ENDBRANCH   3  22
TORSDOF 6
ENDMDL
MODEL 5
REMARK VINA RESULT:      -7.2      4.289      6.479
REMARK  Name = 
REMARK  6 active torsions:
REMARK  status: ('A' for Active; 'I' for Inactive)
REMARK    1  A    between atoms: N_1  and  C_2
REMARK    2  A    between atoms: N_10  and  C_11
REMARK    3  A    between atoms: C_13  and  C_14
REMARK    4  A    between atoms: C_14  and  N_15
REMARK    5  A    between atoms: C_26  and  O_27
REMARK    6  A    between atoms: C_28  and  O_29
REMARK                            x       y       z     vdW  Elec       q    Type
REMARK                         _______ _______ _______ _____ _____    ______ ____
ROOT
ATOM      1  C   UNL     1      -0.706  11.042  19.270  0.00  0.00    +0.000 C 
ATOM      2  O   UNL     1       0.273  10.316  18.498  0.00  0.00    +0.000 OA
ATOM      3  C   UNL     1       1.208   9.676  19.392  0.00  0.00    +0.000 C 
ATOM      4  C   UNL     1       0.725   9.958  20.821  0.00  0.00    +0.000 C 
ATOM      5  C   UNL     1      -0.717  10.419  20.663  0.00  0.00    +0.000 C 
ENDROOT
BRANCH   1  14
ATOM      6  C   UNL     1      -5.329  11.864  18.103  0.00  0.00    +0.000 A 
ATOM      7  N   UNL     1      -5.547  12.760  19.093  0.00  0.00    +0.000 NA
ATOM      8  C   UNL     1      -4.532  13.025  19.944  0.00  0.00    +0.000 A 
ATOM      9  N   UNL     1      -3.278  12.533  19.942  0.00  0.00    +0.000 NA
ATOM     10  C   UNL     1      -3.113  11.658  18.933  0.00  0.00    +0.000 A 
ATOM     11  C   UNL     1      -4.060  11.273  17.998  0.00  0.00    +0.000 A 
ATOM     12  N   UNL     1      -3.525  10.371  17.099  0.00  0.00    +0.000 NA
ATOM     13  C   UNL     1      -2.275  10.219  17.481  0.00  0.00    +0.000 A 
ATOM     14  N   UNL     1      -1.982  10.969  18.590  0.00  0.00    +0.000 N 
BRANCH   6  15
ATOM     15  N   UNL     1      -6.365  11.597  17.213  0.00  0.00    +0.000 N 
ATOM     16  H   UNL     1      -7.268  11.768  17.635  0.00  0.00    +0.000 HD
ATOM     17  H   UNL     1      -6.198  11.992  16.294  0.00  0.00    +0.000 HD
ENDBRANCH   6  15
ENDBRANCH   1  14
BRANCH   4  18
ATOM     18  O   UNL     1       1.479  11.026  21.425  0.00  0.00    +0.000 OA
ATOM     19  H   UNL     1       0.925  11.466  22.098  0.00  0.00    +0.000 HD
ENDBRANCH   4  18
BRANCH   5  20
ATOM     20  O   UNL     1      -1.084  11.335  21.693  0.00  0.00    +0.000 OA
ATOM     21  H   UNL     1      -1.179  10.814  22.518  0.00  0.00    +0.000 HD
ENDBRANCH   5  20
BRANCH   3  22
ATOM     22  C   UNL     1       1.320   8.162  19.075  0.00  0.00    +0.000 C 
BRANCH  22  23
ATOM     23  N   UNL     1       2.536   7.486  19.588  0.00  0.00    +0.000 NA
ATOM     24  C   UNL     1       2.295   6.421  20.568  0.00  0.00    +0.000 C 
ATOM     25  C   UNL     1       1.586   5.194  19.987  0.00  0.00    +0.000 C 
ATOM     26  C   UNL     1       2.257   4.604  18.714  0.00  0.00    +0.000 C 
ATOM     27  C   UNL     1       3.454   3.677  19.062  0.00  0.00    +0.000 C 
ATOM     28  C   UNL     1       3.031   2.368  19.740  0.00  0.00    +0.000 C 
ATOM     29  N   UNL     1       2.034   1.643  18.956  0.00  0.00    +0.000 NA
ATOM     30  C   UNL     1       0.853   2.455  18.682  0.00  0.00    +0.000 C 
ATOM     31  C   UNL     1       1.224   3.741  17.944  0.00  0.00    +0.000 C 
ATOM     32  C   UNL     1       2.731   5.751  17.779  0.00  0.00    +0.000 C 
ATOM     33  C   UNL     1       3.370   6.939  18.506  0.00  0.00    +0.000 C 
ATOM     34  H   UNL     1       1.756   0.799  19.457  0.00  0.00    +0.000 HD
ENDBRANCH  22  23
ENDBRANCH   3  22
TORSDOF 6
ENDMDL
MODEL 6
REMARK VINA RESULT:      -7.1      3.981      9.288
REMARK  Name = 
REMARK  6 active torsions:
REMARK  status: ('A' for Active; 'I' for Inactive)
REMARK    1  A    between atoms: N_1  and  C_2
REMARK    2  A    between atoms: N_10  and  C_11
REMARK    3  A    between atoms: C_13  and  C_14
REMARK    4  A    between atoms: C_14  and  N_15
REMARK    5  A    between atoms: C_26  and  O_27
REMARK    6  A    between atoms: C_28  and  O_29
REMARK                            x       y       z     vdW  Elec       q    Type
REMARK                         _______ _______ _______ _____ _____    ______ ____
ROOT
ATOM      1  C   UNL     1       0.491   9.058  20.354  0.00  0.00    +0.000 C 
ATOM      2  O   UNL     1      -0.467  10.027  19.878  0.00  0.00    +0.000 OA
ATOM      3  C   UNL     1      -0.823  10.916  20.956  0.00  0.00    +0.000 C 
ATOM      4  C   UNL     1       0.035  10.521  22.166  0.00  0.00    +0.000 C 
ATOM      5  C   UNL     1       1.153   9.665  21.587  0.00  0.00    +0.000 C 
ENDROOT
BRANCH   1  14
ATOM      6  C   UNL     1       3.808   6.770  17.676  0.00  0.00    +0.000 A 
ATOM      7  N   UNL     1       3.937   5.716  18.516  0.00  0.00    +0.000 NA
ATOM      8  C   UNL     1       3.210   5.720  19.655  0.00  0.00    +0.000 A 
ATOM      9  N   UNL     1       2.322   6.636  20.087  0.00  0.00    +0.000 NA
ATOM     10  C   UNL     1       2.224   7.653  19.211  0.00  0.00    +0.000 A 
ATOM     11  C   UNL     1       2.915   7.797  18.018  0.00  0.00    +0.000 A 
ATOM     12  N   UNL     1       2.542   8.959  17.372  0.00  0.00    +0.000 NA
ATOM     13  C   UNL     1       1.637   9.503  18.157  0.00  0.00    +0.000 A 
ATOM     14  N   UNL     1       1.418   8.756  19.285  0.00  0.00    +0.000 N 
BRANCH   6  15
ATOM     15  N   UNL     1       4.542   6.766  16.494  0.00  0.00    +0.000 N 
ATOM     16  H   UNL     1       3.981   7.067  15.709  0.00  0.00    +0.000 HD
ATOM     17  H   UNL     1       5.456   7.191  16.604  0.00  0.00    +0.000 HD
ENDBRANCH   6  15
ENDBRANCH   1  14
BRANCH   4  18
ATOM     18  O   UNL     1      -0.713   9.720  23.098  0.00  0.00    +0.000 OA
ATOM     19  H   UNL     1      -1.423   9.252  22.619  0.00  0.00    +0.000 HD
ENDBRANCH   4  18
BRANCH   5  20
ATOM     20  O   UNL     1       1.601   8.691  22.529  0.00  0.00    +0.000 OA
ATOM     21  H   UNL     1       2.518   8.933  22.778  0.00  0.00    +0.000 HD
ENDBRANCH   5  20
BRANCH   3  22
ATOM     22  C   UNL     1      -0.633  12.395  20.533  0.00  0.00    +0.000 C 
BRANCH  22  23
ATOM     23  N   UNL     1       0.222  12.619  19.342  0.00  0.00    +0.000 NA
ATOM     24  C   UNL     1      -0.245  13.664  18.423  0.00  0.00    +0.000 C 
ATOM     25  C   UNL     1      -0.182  15.077  19.011  0.00  0.00    +0.000 C 
ATOM     26  C   UNL     1       1.202  15.468  19.603  0.00  0.00    +0.000 C 
ATOM     27  C   UNL     1       2.193  15.942  18.506  0.00  0.00    +0.000 C 
ATOM     28  C   UNL     1       1.810  17.289  17.880  0.00  0.00    +0.000 C 
ATOM     29  N   UNL     1       1.630  18.329  18.889  0.00  0.00    +0.000 NA
ATOM     30  C   UNL     1       0.638  17.956  19.893  0.00  0.00    +0.000 C 
ATOM     31  C   UNL     1       1.020  16.650  20.591  0.00  0.00    +0.000 C 
ATOM     32  C   UNL     1       1.809  14.268  20.382  0.00  0.00    +0.000 C 
ATOM     33  C   UNL     1       1.619  12.909  19.700  0.00  0.00    +0.000 C 
ATOM     34  H   UNL     1       1.343  19.197  18.436  0.00  0.00    +0.000 HD
ENDBRANCH  22  23
ENDBRANCH   3  22
TORSDOF 6
ENDMDL
MODEL 7
REMARK VINA RESULT:      -7.1      3.982      5.824
REMARK  Name = 
REMARK  6 active torsions:
REMARK  status: ('A' for Active; 'I' for Inactive)
REMARK    1  A    between atoms: N_1  and  C_2
REMARK    2  A    between atoms: N_10  and  C_11
REMARK    3  A    between atoms: C_13  and  C_14
REMARK    4  A    between atoms: C_14  and  N_15
REMARK    5  A    between atoms: C_26  and  O_27
REMARK    6  A    between atoms: C_28  and  O_29
REMARK                            x       y       z     vdW  Elec       q    Type
REMARK                         _______ _______ _______ _____ _____    ______ ____
ROOT
ATOM      1  C   UNL     1       0.199  10.801  21.025  0.00  0.00    +0.000 C 
ATOM      2  O   UNL     1       1.077  10.181  20.062  0.00  0.00    +0.000 OA
ATOM      3  C   UNL     1       1.718   9.038  20.666  0.00  0.00    +0.000 C 
ATOM      4  C   UNL     1       1.134   8.891  22.078  0.00  0.00    +0.000 C 
ATOM      5  C   UNL     1      -0.132   9.736  22.066  0.00  0.00    +0.000 C 
ENDROOT
BRANCH   1  14
ATOM      6  C   UNL     1      -3.193  11.472  17.641  0.00  0.00    +0.000 A 
ATOM      7  N   UNL     1      -2.690  10.556  16.781  0.00  0.00    +0.000 NA
ATOM      8  C   UNL     1      -1.558   9.910  17.133  0.00  0.00    +0.000 A 
ATOM      9  N   UNL     1      -0.837  10.024  18.266  0.00  0.00    +0.000 NA
ATOM     10  C   UNL     1      -1.386  10.937  19.087  0.00  0.00    +0.000 A 
ATOM     11  C   UNL     1      -2.527  11.689  18.857  0.00  0.00    +0.000 A 
ATOM     12  N   UNL     1      -2.801  12.509  19.934  0.00  0.00    +0.000 NA
ATOM     13  C   UNL     1      -1.845  12.253  20.801  0.00  0.00    +0.000 A 
ATOM     14  N   UNL     1      -0.962  11.317  20.331  0.00  0.00    +0.000 N 
BRANCH   6  15
ATOM     15  N   UNL     1      -4.368  12.131  17.291  0.00  0.00    +0.000 N 
ATOM     16  H   UNL     1      -4.426  12.279  16.293  0.00  0.00    +0.000 HD
ATOM     17  H   UNL     1      -5.182  11.741  17.753  0.00  0.00    +0.000 HD
ENDBRANCH   6  15
ENDBRANCH   1  14
BRANCH   4  18
ATOM     18  O   UNL     1       2.028   9.427  23.071  0.00  0.00    +0.000 OA
ATOM     19  H   UNL     1       2.269   8.719  23.698  0.00  0.00    +0.000 HD
ENDBRANCH   4  18
BRANCH   5  20
ATOM     20  O   UNL     1      -0.409  10.271  23.359  0.00  0.00    +0.000 OA
ATOM     21  H   UNL     1      -1.383  10.250  23.476  0.00  0.00    +0.000 HD
ENDBRANCH   5  20
BRANCH   3  22
ATOM     22  C   UNL     1       1.521   7.773  19.792  0.00  0.00    +0.000 C 
BRANCH  22  23
ATOM     23  N   UNL     1       2.740   7.254  19.127  0.00  0.00    +0.000 NA
ATOM     24  C   UNL     1       3.413   6.152  19.824  0.00  0.00    +0.000 C 
ATOM     25  C   UNL     1       2.604   4.852  19.852  0.00  0.00    +0.000 C 
ATOM     26  C   UNL     1       2.103   4.374  18.460  0.00  0.00    +0.000 C 
ATOM     27  C   UNL     1       3.202   3.605  17.677  0.00  0.00    +0.000 C 
ATOM     28  C   UNL     1       3.546   2.242  18.291  0.00  0.00    +0.000 C 
ATOM     29  N   UNL     1       2.361   1.405  18.462  0.00  0.00    +0.000 NA
ATOM     30  C   UNL     1       1.336   2.061  19.268  0.00  0.00    +0.000 C 
ATOM     31  C   UNL     1       0.915   3.395  18.652  0.00  0.00    +0.000 C 
ATOM     32  C   UNL     1       1.608   5.586  17.624  0.00  0.00    +0.000 C 
ATOM     33  C   UNL     1       2.486   6.836  17.739  0.00  0.00    +0.000 C 
ATOM     34  H   UNL     1       2.627   0.525  18.903  0.00  0.00    +0.000 HD
ENDBRANCH  22  23
ENDBRANCH   3  22
TORSDOF 6
ENDMDL
MODEL 8
REMARK VINA RESULT:      -7.0      3.986      5.891
REMARK  Name = 
REMARK  6 active torsions:
REMARK  status: ('A' for Active; 'I' for Inactive)
REMARK    1  A    between atoms: N_1  and  C_2
REMARK    2  A    between atoms: N_10  and  C_11
REMARK    3  A    between atoms: C_13  and  C_14
REMARK    4  A    between atoms: C_14  and  N_15
REMARK    5  A    between atoms: C_26  and  O_27
REMARK    6  A    between atoms: C_28  and  O_29
REMARK                            x       y       z     vdW  Elec       q    Type
REMARK                         _______ _______ _______ _____ _____    ______ ____
ROOT
ATOM      1  C   UNL     1       0.260  10.754  21.110  0.00  0.00    +0.000 C 
ATOM      2  O   UNL     1       1.101  10.135  20.115  0.00  0.00    +0.000 OA
ATOM      3  C   UNL     1       1.783   9.006  20.700  0.00  0.00    +0.000 C 
ATOM      4  C   UNL     1       1.265   8.866  22.138  0.00  0.00    +0.000 C 
ATOM      5  C   UNL     1      -0.011   9.695  22.175  0.00  0.00    +0.000 C 
ENDROOT
BRANCH   1  14
ATOM      6  C   UNL     1      -3.863  13.164  20.333  0.00  0.00    +0.000 A 
ATOM      7  N   UNL     1      -3.889  13.756  21.549  0.00  0.00    +0.000 NA
ATOM      8  C   UNL     1      -2.900  13.461  22.420  0.00  0.00    +0.000 A 
ATOM      9  N   UNL     1      -1.835  12.653  22.247  0.00  0.00    +0.000 NA
ATOM     10  C   UNL     1      -1.853  12.101  21.020  0.00  0.00    +0.000 A 
ATOM     11  C   UNL     1      -2.804  12.293  20.031  0.00  0.00    +0.000 A 
ATOM     12  N   UNL     1      -2.483  11.578  18.894  0.00  0.00    +0.000 NA
ATOM     13  C   UNL     1      -1.353  10.971  19.189  0.00  0.00    +0.000 A 
ATOM     14  N   UNL     1      -0.938  11.249  20.465  0.00  0.00    +0.000 N 
BRANCH   6  15
ATOM     15  N   UNL     1      -4.870  13.475  19.424  0.00  0.00    +0.000 N 
ATOM     16  H   UNL     1      -5.381  12.650  19.141  0.00  0.00    +0.000 HD
ATOM     17  H   UNL     1      -5.412  14.284  19.709  0.00  0.00    +0.000 HD
ENDBRANCH   6  15
ENDBRANCH   1  14
BRANCH   4  18
ATOM     18  O   UNL     1       2.195   9.422  23.084  0.00  0.00    +0.000 OA
ATOM     19  H   UNL     1       1.704   9.950  23.742  0.00  0.00    +0.000 HD
ENDBRANCH   4  18
BRANCH   5  20
ATOM     20  O   UNL     1      -0.237  10.240  23.475  0.00  0.00    +0.000 OA
ATOM     21  H   UNL     1      -1.121   9.933  23.765  0.00  0.00    +0.000 HD
ENDBRANCH   5  20
BRANCH   3  22
ATOM     22  C   UNL     1       1.562   7.730  19.847  0.00  0.00    +0.000 C 
BRANCH  22  23
ATOM     23  N   UNL     1       2.752   7.229  19.118  0.00  0.00    +0.000 NA
ATOM     24  C   UNL     1       3.483   6.145  19.783  0.00  0.00    +0.000 C 
ATOM     25  C   UNL     1       2.702   4.830  19.863  0.00  0.00    +0.000 C 
ATOM     26  C   UNL     1       2.133   4.333  18.504  0.00  0.00    +0.000 C 
ATOM     27  C   UNL     1       3.202   3.580  17.665  0.00  0.00    +0.000 C 
ATOM     28  C   UNL     1       3.605   2.228  18.266  0.00  0.00    +0.000 C 
ATOM     29  N   UNL     1       2.447   1.370  18.508  0.00  0.00    +0.000 NA
ATOM     30  C   UNL     1       1.457   2.012  19.366  0.00  0.00    +0.000 C 
ATOM     31  C   UNL     1       0.977   3.334  18.768  0.00  0.00    +0.000 C 
ATOM     32  C   UNL     1       1.569   5.530  17.690  0.00  0.00    +0.000 C 
ATOM     33  C   UNL     1       2.429   6.798  17.748  0.00  0.00    +0.000 C 
ATOM     34  H   UNL     1       2.754   0.498  18.938  0.00  0.00    +0.000 HD
ENDBRANCH  22  23
ENDBRANCH   3  22
TORSDOF 6
ENDMDL
MODEL 9
REMARK VINA RESULT:      -7.0      7.542     12.268
REMARK  Name = 
REMARK  6 active torsions:
REMARK  status: ('A' for Active; 'I' for Inactive)
REMARK    1  A    between atoms: N_1  and  C_2
REMARK    2  A    between atoms: N_10  and  C_11
REMARK    3  A    between atoms: C_13  and  C_14
REMARK    4  A    between atoms: C_14  and  N_15
REMARK    5  A    between atoms: C_26  and  O_27
REMARK    6  A    between atoms: C_28  and  O_29
REMARK                            x       y       z     vdW  Elec       q    Type
REMARK                         _______ _______ _______ _____ _____    ______ ____
ROOT
ATOM      1  C   UNL     1      -2.159  12.584  23.588  0.00  0.00    +0.000 C 
ATOM      2  O   UNL     1      -3.435  11.933  23.755  0.00  0.00    +0.000 OA
ATOM      3  C   UNL     1      -4.379  12.867  24.317  0.00  0.00    +0.000 C 
ATOM      4  C   UNL     1      -3.659  14.218  24.431  0.00  0.00    +0.000 C 
ATOM      5  C   UNL     1      -2.435  14.084  23.535  0.00  0.00    +0.000 C 
ENDROOT
BRANCH   1  14
ATOM      6  C   UNL     1       0.544   9.847  20.653  0.00  0.00    +0.000 A 
ATOM      7  N   UNL     1       1.006   9.037  21.634  0.00  0.00    +0.000 NA
ATOM      8  C   UNL     1       0.615   9.288  22.902  0.00  0.00    +0.000 A 
ATOM      9  N   UNL     1      -0.218  10.246  23.355  0.00  0.00    +0.000 NA
ATOM     10  C   UNL     1      -0.655  11.014  22.340  0.00  0.00    +0.000 A 
ATOM     11  C   UNL     1      -0.329  10.891  20.999  0.00  0.00    +0.000 A 
ATOM     12  N   UNL     1      -0.984  11.844  20.244  0.00  0.00    +0.000 NA
ATOM     13  C   UNL     1      -1.698  12.526  21.113  0.00  0.00    +0.000 A 
ATOM     14  N   UNL     1      -1.525  12.068  22.393  0.00  0.00    +0.000 N 
BRANCH   6  15
ATOM     15  N   UNL     1       0.930   9.584  19.343  0.00  0.00    +0.000 N 
ATOM     16  H   UNL     1       1.219  10.428  18.866  0.00  0.00    +0.000 HD
ATOM     17  H   UNL     1       1.540   8.777  19.272  0.00  0.00    +0.000 HD
ENDBRANCH   6  15
ENDBRANCH   1  14
BRANCH   4  18
ATOM     18  O   UNL     1      -3.212  14.459  25.778  0.00  0.00    +0.000 OA
ATOM     19  H   UNL     1      -2.785  13.652  26.121  0.00  0.00    +0.000 HD
ENDBRANCH   4  18
BRANCH   5  20
ATOM     20  O   UNL     1      -1.353  14.880  24.016  0.00  0.00    +0.000 OA
ATOM     21  H   UNL     1      -0.550  14.318  23.987  0.00  0.00    +0.000 HD
ENDBRANCH   5  20
BRANCH   3  22
ATOM     22  C   UNL     1      -5.665  12.935  23.453  0.00  0.00    +0.000 C 
BRANCH  22  23
ATOM     23  N   UNL     1      -5.777  14.110  22.556  0.00  0.00    +0.000 NA
ATOM     24  C   UNL     1      -4.956  14.053  21.342  0.00  0.00    +0.000 C 
ATOM     25  C   UNL     1      -5.395  12.973  20.349  0.00  0.00    +0.000 C 
ATOM     26  C   UNL     1      -6.902  13.020  19.970  0.00  0.00    +0.000 C 
ATOM     27  C   UNL     1      -7.194  14.073  18.867  0.00  0.00    +0.000 C 
ATOM     28  C   UNL     1      -6.614  13.696  17.498  0.00  0.00    +0.000 C 
ATOM     29  N   UNL     1      -7.048  12.370  17.066  0.00  0.00    +0.000 NA
ATOM     30  C   UNL     1      -6.713  11.337  18.041  0.00  0.00    +0.000 C 
ATOM     31  C   UNL     1      -7.331  11.640  19.405  0.00  0.00    +0.000 C 
ATOM     32  C   UNL     1      -7.761  13.322  21.229  0.00  0.00    +0.000 C 
ATOM     33  C   UNL     1      -7.168  14.383  22.162  0.00  0.00    +0.000 C 
ATOM     34  H   UNL     1      -6.614  12.144  16.171  0.00  0.00    +0.000 HD
ENDBRANCH  22  23
ENDBRANCH   3  22
TORSDOF 6
ENDMDL
