MODEL 1
REMARK VINA RESULT:      -5.9      0.000      0.000
REMARK  Name = 
REMARK  4 active torsions:
REMARK  status: ('A' for Active; 'I' for Inactive)
REMARK    1  A    between atoms: C_1  and  O_2
REMARK    2  A    between atoms: O_2  and  C_3
REMARK    3  A    between atoms: C_7  and  C_8
REMARK    4  A    between atoms: C_11  and  C_12
REMARK                            x       y       z     vdW  Elec       q    Type
REMARK                         _______ _______ _______ _____ _____    ______ ____
ROOT
ATOM      1  C   UNL     1       4.559   4.044  18.749  0.00  0.00    +0.000 A 
ATOM      2  N   UNL     1       5.909   4.130  18.858  0.00  0.00    +0.000 NA
ATOM      3  C   UNL     1       6.630   4.408  17.756  0.00  0.00    +0.000 A 
ATOM      4  N   UNL     1       8.005   4.353  17.939  0.00  0.00    +0.000 N 
ATOM      5  C   UNL     1       6.031   4.643  16.522  0.00  0.00    +0.000 A 
ATOM      6  C   UNL     1       4.641   4.515  16.415  0.00  0.00    +0.000 A 
ATOM      7  C   UNL     1       3.885   4.184  17.542  0.00  0.00    +0.000 A 
ATOM      8  H   UNL     1       8.204   4.218  18.926  0.00  0.00    +0.000 HD
ATOM      9  H   UNL     1       8.528   5.128  17.543  0.00  0.00    +0.000 HD
ENDROOT
BRANCH   1  11
ATOM     10  C   UNL     1       3.916   2.488  20.377  0.00  0.00    +0.000 C 
ATOM     11  O   UNL     1       3.829   3.831  19.898  0.00  0.00    +0.000 OA
ENDBRANCH   1  11
BRANCH   5  12
ATOM     12  C   UNL     1       6.807   5.026  15.384  0.00  0.00    +0.000 C 
ATOM     13  N   UNL     1       7.478   5.328  14.485  0.00  0.00    +0.000 NA
ENDBRANCH   5  12
BRANCH   7  14
ATOM     14  C   UNL     1       2.471   3.986  17.423  0.00  0.00    +0.000 C 
ATOM     15  N   UNL     1       1.320   3.850  17.399  0.00  0.00    +0.000 NA
ENDBRANCH   7  14
TORSDOF 3
ENDMDL
MODEL 2
REMARK VINA RESULT:      -5.7      1.609      4.320
REMARK  Name = 
REMARK  4 active torsions:
REMARK  status: ('A' for Active; 'I' for Inactive)
REMARK    1  A    between atoms: C_1  and  O_2
REMARK    2  A    between atoms: O_2  and  C_3
REMARK    3  A    between atoms: C_7  and  C_8
REMARK    4  A    between atoms: C_11  and  C_12
REMARK                            x       y       z     vdW  Elec       q    Type
REMARK                         _______ _______ _______ _____ _____    ______ ____
ROOT
ATOM      1  C   UNL     1       6.327   4.579  18.211  0.00  0.00    +0.000 A 
ATOM      2  N   UNL     1       5.501   4.377  19.269  0.00  0.00    +0.000 NA
ATOM      3  C   UNL     1       4.182   4.235  19.041  0.00  0.00    +0.000 A 
ATOM      4  N   UNL     1       3.406   4.155  20.189  0.00  0.00    +0.000 N 
ATOM      5  C   UNL     1       3.649   4.255  17.756  0.00  0.00    +0.000 A 
ATOM      6  C   UNL     1       4.506   4.502  16.677  0.00  0.00    +0.000 A 
ATOM      7  C   UNL     1       5.872   4.694  16.904  0.00  0.00    +0.000 A 
ATOM      8  H   UNL     1       4.016   4.108  21.000  0.00  0.00    +0.000 HD
ATOM      9  H   UNL     1       2.704   3.421  20.190  0.00  0.00    +0.000 HD
ENDROOT
BRANCH   1  11
ATOM     10  C   UNL     1       8.057   5.800  19.215  0.00  0.00    +0.000 C 
ATOM     11  O   UNL     1       7.683   4.651  18.453  0.00  0.00    +0.000 OA
ENDBRANCH   1  11
BRANCH   5  12
ATOM     12  C   UNL     1       2.259   4.011  17.528  0.00  0.00    +0.000 C 
ATOM     13  N   UNL     1       1.124   3.806  17.390  0.00  0.00    +0.000 NA
ENDBRANCH   5  12
BRANCH   7  14
ATOM     14  C   UNL     1       6.741   5.014  15.810  0.00  0.00    +0.000 C 
ATOM     15  N   UNL     1       7.498   5.291  14.978  0.00  0.00    +0.000 NA
ENDBRANCH   7  14
TORSDOF 3
ENDMDL
MODEL 3
REMARK VINA RESULT:      -5.7      2.328      3.750
REMARK  Name = 
REMARK  4 active torsions:
REMARK  status: ('A' for Active; 'I' for Inactive)
REMARK    1  A    between atoms: C_1  and  O_2
REMARK    2  A    between atoms: O_2  and  C_3
REMARK    3  A    between atoms: C_7  and  C_8
REMARK    4  A    between atoms: C_11  and  C_12
REMARK                            x       y       z     vdW  Elec       q    Type
REMARK                         _______ _______ _______ _____ _____    ______ ____
ROOT
ATOM      1  C   UNL     1       6.815   5.537  16.728  0.00  0.00    +0.000 A 
ATOM      2  N   UNL     1       7.514   5.881  15.617  0.00  0.00    +0.000 NA
ATOM      3  C   UNL     1       7.269   5.223  14.470  0.00  0.00    +0.000 A 
ATOM      4  N   UNL     1       8.115   5.559  13.422  0.00  0.00    +0.000 N 
ATOM      5  C   UNL     1       6.299   4.229  14.382  0.00  0.00    +0.000 A 
ATOM      6  C   UNL     1       5.611   3.857  15.543  0.00  0.00    +0.000 A 
ATOM      7  C   UNL     1       5.887   4.503  16.751  0.00  0.00    +0.000 A 
ATOM      8  H   UNL     1       8.701   6.339  13.705  0.00  0.00    +0.000 HD
ATOM      9  H   UNL     1       7.660   5.722  12.529  0.00  0.00    +0.000 HD
ENDROOT
BRANCH   1  11
ATOM     10  C   UNL     1       7.629   7.539  17.632  0.00  0.00    +0.000 C 
ATOM     11  O   UNL     1       7.025   6.268  17.878  0.00  0.00    +0.000 OA
ENDBRANCH   1  11
BRANCH   5  12
ATOM     12  C   UNL     1       5.991   3.605  13.133  0.00  0.00    +0.000 C 
ATOM     13  N   UNL     1       5.695   3.112  12.124  0.00  0.00    +0.000 NA
ENDBRANCH   5  12
BRANCH   7  14
ATOM     14  C   UNL     1       5.234   4.080  17.954  0.00  0.00    +0.000 C 
ATOM     15  N   UNL     1       4.652   3.792  18.914  0.00  0.00    +0.000 NA
ENDBRANCH   7  14
TORSDOF 3
ENDMDL
MODEL 4
REMARK VINA RESULT:      -5.5      1.916      4.353
REMARK  Name = 
REMARK  4 active torsions:
REMARK  status: ('A' for Active; 'I' for Inactive)
REMARK    1  A    between atoms: C_1  and  O_2
REMARK    2  A    between atoms: O_2  and  C_3
REMARK    3  A    between atoms: C_7  and  C_8
REMARK    4  A    between atoms: C_11  and  C_12
REMARK                            x       y       z     vdW  Elec       q    Type
REMARK                         _______ _______ _______ _____ _____    ______ ____
ROOT
ATOM      1  C   UNL     1       5.681   4.306  18.326  0.00  0.00    +0.000 A 
ATOM      2  N   UNL     1       5.271   3.572  19.392  0.00  0.00    +0.000 NA
ATOM      3  C   UNL     1       3.997   3.140  19.426  0.00  0.00    +0.000 A 
ATOM      4  N   UNL     1       3.637   2.505  20.607  0.00  0.00    +0.000 N 
ATOM      5  C   UNL     1       3.103   3.393  18.390  0.00  0.00    +0.000 A 
ATOM      6  C   UNL     1       3.528   4.183  17.315  0.00  0.00    +0.000 A 
ATOM      7  C   UNL     1       4.836   4.675  17.287  0.00  0.00    +0.000 A 
ATOM      8  H   UNL     1       4.463   2.390  21.188  0.00  0.00    +0.000 HD
ATOM      9  H   UNL     1       3.121   1.638  20.495  0.00  0.00    +0.000 HD
ENDROOT
BRANCH   1  11
ATOM     10  C   UNL     1       7.362   5.641  19.267  0.00  0.00    +0.000 C 
ATOM     11  O   UNL     1       7.007   4.680  18.270  0.00  0.00    +0.000 OA
ENDBRANCH   1  11
BRANCH   5  12
ATOM     12  C   UNL     1       1.782   2.849  18.403  0.00  0.00    +0.000 C 
ATOM     13  N   UNL     1       0.715   2.392  18.459  0.00  0.00    +0.000 NA
ENDBRANCH   5  12
BRANCH   7  14
ATOM     14  C   UNL     1       5.254   5.538  16.223  0.00  0.00    +0.000 C 
ATOM     15  N   UNL     1       5.659   6.247  15.401  0.00  0.00    +0.000 NA
ENDBRANCH   7  14
TORSDOF 3
ENDMDL
MODEL 5
REMARK VINA RESULT:      -5.5      2.810      2.916
REMARK  Name = 
REMARK  4 active torsions:
REMARK  status: ('A' for Active; 'I' for Inactive)
REMARK    1  A    between atoms: C_1  and  O_2
REMARK    2  A    between atoms: O_2  and  C_3
REMARK    3  A    between atoms: C_7  and  C_8
REMARK    4  A    between atoms: C_11  and  C_12
REMARK                            x       y       z     vdW  Elec       q    Type
REMARK                         _______ _______ _______ _____ _____    ______ ____
ROOT
ATOM      1  C   UNL     1       3.239   6.247  19.050  0.00  0.00    +0.000 A 
ATOM      2  N   UNL     1       4.038   5.163  19.214  0.00  0.00    +0.000 NA
ATOM      3  C   UNL     1       5.063   4.981  18.361  0.00  0.00    +0.000 A 
ATOM      4  N   UNL     1       5.747   3.785  18.531  0.00  0.00    +0.000 N 
ATOM      5  C   UNL     1       5.346   5.886  17.343  0.00  0.00    +0.000 A 
ATOM      6  C   UNL     1       4.492   6.980  17.161  0.00  0.00    +0.000 A 
ATOM      7  C   UNL     1       3.399   7.158  18.013  0.00  0.00    +0.000 A 
ATOM      8  H   UNL     1       5.398   3.318  19.363  0.00  0.00    +0.000 HD
ATOM      9  H   UNL     1       6.760   3.858  18.526  0.00  0.00    +0.000 HD
ENDROOT
BRANCH   1  11
ATOM     10  C   UNL     1       1.813   5.261  20.625  0.00  0.00    +0.000 C 
ATOM     11  O   UNL     1       2.238   6.460  19.975  0.00  0.00    +0.000 OA
ENDBRANCH   1  11
BRANCH   5  12
ATOM     12  C   UNL     1       6.493   5.722  16.505  0.00  0.00    +0.000 C 
ATOM     13  N   UNL     1       7.408   5.546  15.812  0.00  0.00    +0.000 NA
ENDBRANCH   5  12
BRANCH   7  14
ATOM     14  C   UNL     1       2.485   8.239  17.789  0.00  0.00    +0.000 C 
ATOM     15  N   UNL     1       1.783   9.127  17.542  0.00  0.00    +0.000 NA
ENDBRANCH   7  14
TORSDOF 3
ENDMDL
MODEL 6
REMARK VINA RESULT:      -5.4      2.774      4.279
REMARK  Name = 
REMARK  4 active torsions:
REMARK  status: ('A' for Active; 'I' for Inactive)
REMARK    1  A    between atoms: C_1  and  O_2
REMARK    2  A    between atoms: O_2  and  C_3
REMARK    3  A    between atoms: C_7  and  C_8
REMARK    4  A    between atoms: C_11  and  C_12
REMARK                            x       y       z     vdW  Elec       q    Type
REMARK                         _______ _______ _______ _____ _____    ______ ____
ROOT
ATOM      1  C   UNL     1       4.733   4.731  19.045  0.00  0.00    +0.000 A 
ATOM      2  N   UNL     1       3.697   5.181  19.798  0.00  0.00    +0.000 NA
ATOM      3  C   UNL     1       3.053   6.297  19.410  0.00  0.00    +0.000 A 
ATOM      4  N   UNL     1       2.092   6.747  20.305  0.00  0.00    +0.000 N 
ATOM      5  C   UNL     1       3.394   6.979  18.246  0.00  0.00    +0.000 A 
ATOM      6  C   UNL     1       4.487   6.526  17.498  0.00  0.00    +0.000 A 
ATOM      7  C   UNL     1       5.192   5.393  17.913  0.00  0.00    +0.000 A 
ATOM      8  H   UNL     1       1.984   6.063  21.049  0.00  0.00    +0.000 HD
ATOM      9  H   UNL     1       1.203   7.012  19.893  0.00  0.00    +0.000 HD
ENDROOT
BRANCH   1  11
ATOM     10  C   UNL     1       4.400   2.525  19.761  0.00  0.00    +0.000 C 
ATOM     11  O   UNL     1       5.336   3.548  19.414  0.00  0.00    +0.000 OA
ENDBRANCH   1  11
BRANCH   5  12
ATOM     12  C   UNL     1       2.639   8.109  17.803  0.00  0.00    +0.000 C 
ATOM     13  N   UNL     1       2.064   9.055  17.452  0.00  0.00    +0.000 NA
ENDBRANCH   5  12
BRANCH   7  14
ATOM     14  C   UNL     1       6.352   4.966  17.188  0.00  0.00    +0.000 C 
ATOM     15  N   UNL     1       7.329   4.623  16.669  0.00  0.00    +0.000 NA
ENDBRANCH   7  14
TORSDOF 3
ENDMDL
MODEL 7
REMARK VINA RESULT:      -5.4      1.477      1.762
REMARK  Name = 
REMARK  4 active torsions:
REMARK  status: ('A' for Active; 'I' for Inactive)
REMARK    1  A    between atoms: C_1  and  O_2
REMARK    2  A    between atoms: O_2  and  C_3
REMARK    3  A    between atoms: C_7  and  C_8
REMARK    4  A    between atoms: C_11  and  C_12
REMARK                            x       y       z     vdW  Elec       q    Type
REMARK                         _______ _______ _______ _____ _____    ______ ____
ROOT
ATOM      1  C   UNL     1       3.666   3.044  19.483  0.00  0.00    +0.000 A 
ATOM      2  N   UNL     1       4.968   3.428  19.474  0.00  0.00    +0.000 NA
ATOM      3  C   UNL     1       5.425   4.136  18.424  0.00  0.00    +0.000 A 
ATOM      4  N   UNL     1       6.792   4.377  18.444  0.00  0.00    +0.000 N 
ATOM      5  C   UNL     1       4.597   4.513  17.372  0.00  0.00    +0.000 A 
ATOM      6  C   UNL     1       3.266   4.079  17.376  0.00  0.00    +0.000 A 
ATOM      7  C   UNL     1       2.790   3.307  18.438  0.00  0.00    +0.000 A 
ATOM      8  H   UNL     1       7.173   4.056  19.330  0.00  0.00    +0.000 HD
ATOM      9  H   UNL     1       7.070   5.329  18.227  0.00  0.00    +0.000 HD
ENDROOT
BRANCH   1  11
ATOM     10  C   UNL     1       2.522   3.244  21.518  0.00  0.00    +0.000 C 
ATOM     11  O   UNL     1       3.195   2.383  20.598  0.00  0.00    +0.000 OA
ENDBRANCH   1  11
BRANCH   5  12
ATOM     12  C   UNL     1       5.079   5.342  16.311  0.00  0.00    +0.000 C 
ATOM     13  N   UNL     1       5.429   6.012  15.429  0.00  0.00    +0.000 NA
ENDBRANCH   5  12
BRANCH   7  14
ATOM     14  C   UNL     1       1.448   2.804  18.413  0.00  0.00    +0.000 C 
ATOM     15  N   UNL     1       0.378   2.363  18.461  0.00  0.00    +0.000 NA
ENDBRANCH   7  14
TORSDOF 3
ENDMDL
MODEL 8
REMARK VINA RESULT:      -5.3      2.718      4.779
REMARK  Name = 
REMARK  4 active torsions:
REMARK  status: ('A' for Active; 'I' for Inactive)
REMARK    1  A    between atoms: C_1  and  O_2
REMARK    2  A    between atoms: O_2  and  C_3
REMARK    3  A    between atoms: C_7  and  C_8
REMARK    4  A    between atoms: C_11  and  C_12
REMARK                            x       y       z     vdW  Elec       q    Type
REMARK                         _______ _______ _______ _____ _____    ______ ____
ROOT
ATOM      1  C   UNL     1       4.162   5.187  17.868  0.00  0.00    +0.000 A 
ATOM      2  N   UNL     1       4.685   3.996  18.256  0.00  0.00    +0.000 NA
ATOM      3  C   UNL     1       4.156   3.376  19.326  0.00  0.00    +0.000 A 
ATOM      4  N   UNL     1       4.833   2.230  19.720  0.00  0.00    +0.000 N 
ATOM      5  C   UNL     1       3.071   3.901  20.022  0.00  0.00    +0.000 A 
ATOM      6  C   UNL     1       2.565   5.148  19.635  0.00  0.00    +0.000 A 
ATOM      7  C   UNL     1       3.133   5.823  18.551  0.00  0.00    +0.000 A 
ATOM      8  H   UNL     1       5.553   2.018  19.035  0.00  0.00    +0.000 HD
ATOM      9  H   UNL     1       4.248   1.427  19.926  0.00  0.00    +0.000 HD
ENDROOT
BRANCH   1  11
ATOM     10  C   UNL     1       6.032   6.174  16.858  0.00  0.00    +0.000 C 
ATOM     11  O   UNL     1       4.666   5.775  16.727  0.00  0.00    +0.000 OA
ENDBRANCH   1  11
BRANCH   5  12
ATOM     12  C   UNL     1       2.467   3.183  21.100  0.00  0.00    +0.000 C 
ATOM     13  N   UNL     1       1.933   2.604  21.954  0.00  0.00    +0.000 NA
ENDBRANCH   5  12
BRANCH   7  14
ATOM     14  C   UNL     1       2.662   7.128  18.194  0.00  0.00    +0.000 C 
ATOM     15  N   UNL     1       2.350   8.197  17.873  0.00  0.00    +0.000 NA
ENDBRANCH   7  14
TORSDOF 3
ENDMDL
MODEL 9
REMARK VINA RESULT:      -5.3      1.641      1.641
REMARK  Name = 
REMARK  4 active torsions:
REMARK  status: ('A' for Active; 'I' for Inactive)
REMARK    1  A    between atoms: C_1  and  O_2
REMARK    2  A    between atoms: O_2  and  C_3
REMARK    3  A    between atoms: C_7  and  C_8
REMARK    4  A    between atoms: C_11  and  C_12
REMARK                            x       y       z     vdW  Elec       q    Type
REMARK                         _______ _______ _______ _____ _____    ______ ____
ROOT
ATOM      1  C   UNL     1       4.361   3.935  19.043  0.00  0.00    +0.000 A 
ATOM      2  N   UNL     1       5.679   4.022  19.354  0.00  0.00    +0.000 NA
ATOM      3  C   UNL     1       6.416   4.990  18.780  0.00  0.00    +0.000 A 
ATOM      4  N   UNL     1       7.774   4.924  19.062  0.00  0.00    +0.000 N 
ATOM      5  C   UNL     1       5.860   5.921  17.906  0.00  0.00    +0.000 A 
ATOM      6  C   UNL     1       4.509   5.797  17.565  0.00  0.00    +0.000 A 
ATOM      7  C   UNL     1       3.742   4.770  18.121  0.00  0.00    +0.000 A 
ATOM      8  H   UNL     1       7.933   4.201  19.758  0.00  0.00    +0.000 HD
ATOM      9  H   UNL     1       8.209   5.806  19.315  0.00  0.00    +0.000 HD
ENDROOT
BRANCH   1  11
ATOM     10  C   UNL     1       3.813   1.662  19.196  0.00  0.00    +0.000 C 
ATOM     11  O   UNL     1       3.603   2.985  19.695  0.00  0.00    +0.000 OA
ENDBRANCH   1  11
BRANCH   5  12
ATOM     12  C   UNL     1       6.640   6.996  17.377  0.00  0.00    +0.000 C 
ATOM     13  N   UNL     1       7.308   7.858  16.978  0.00  0.00    +0.000 NA
ENDBRANCH   5  12
BRANCH   7  14
ATOM     14  C   UNL     1       2.376   4.599  17.723  0.00  0.00    +0.000 C 
ATOM     15  N   UNL     1       1.264   4.410  17.458  0.00  0.00    +0.000 NA
ENDBRANCH   7  14
TORSDOF 3
ENDMDL
