MODEL 1
REMARK VINA RESULT:      -7.1      0.000      0.000
REMARK  Name = 
REMARK  9 active torsions:
REMARK  status: ('A' for Active; 'I' for Inactive)
REMARK    1  A    between atoms: C_1  and  C_2
REMARK    2  A    between atoms: C_2  and  O_3
REMARK    3  A    between atoms: O_3  and  C_4
REMARK    4  A    between atoms: C_7  and  C_8
REMARK    5  A    between atoms: C_8  and  C_9
REMARK    6  A    between atoms: C_12  and  C_13
REMARK    7  A    between atoms: C_13  and  N_14
REMARK    8  A    between atoms: C_16  and  C_17
REMARK    9  A    between atoms: C_17  and  O_19
REMARK                            x       y       z     vdW  Elec       q    Type
REMARK                         _______ _______ _______ _____ _____    ______ ____
ROOT
ATOM      1  N   UNL     1       0.093  10.534  18.576  0.00  0.00    +0.000 N 
ATOM      2  N   UNL     1      -0.695  10.184  17.471  0.00  0.00    +0.000 NA
ATOM      3  C   UNL     1      -1.917  10.641  17.411  0.00  0.00    +0.000 A 
ATOM      4  C   UNL     1      -2.562  11.401  18.490  0.00  0.00    +0.000 A 
ATOM      5  C   UNL     1      -3.947  11.606  18.581  0.00  0.00    +0.000 A 
ATOM      6  C   UNL     1      -4.470  12.413  19.594  0.00  0.00    +0.000 A 
ATOM      7  C   UNL     1      -3.615  13.018  20.510  0.00  0.00    +0.000 A 
ATOM      8  C   UNL     1      -2.240  12.777  20.447  0.00  0.00    +0.000 A 
ATOM      9  C   UNL     1      -1.716  11.938  19.451  0.00  0.00    +0.000 A 
ATOM     10  C   UNL     1      -0.281  11.564  19.451  0.00  0.00    +0.000 A 
ATOM     11  O   UNL     1       0.483  12.130  20.227  0.00  0.00    +0.000 OA
ENDROOT
BRANCH   3  12
ATOM     12  C   UNL     1      -2.676  10.407  16.090  0.00  0.00    +0.000 C 
ATOM     13  O   UNL     1      -3.112   9.336  15.733  0.00  0.00    +0.000 OA
BRANCH  12  14
ATOM     14  O   UNL     1      -2.834  11.562  15.423  0.00  0.00    +0.000 OA
ATOM     15  H   UNL     1      -3.137  11.365  14.510  0.00  0.00    +0.000 HD
ENDBRANCH  12  14
ENDBRANCH   3  12
BRANCH   1  16
ATOM     16  C   UNL     1       1.494  10.016  18.611  0.00  0.00    +0.000 C 
BRANCH  16  22
ATOM     17  C   UNL     1       1.467   8.240  20.494  0.00  0.00    +0.000 A 
ATOM     18  C   UNL     1       1.717   6.921  20.913  0.00  0.00    +0.000 A 
ATOM     19  C   UNL     1       2.174   5.946  20.038  0.00  0.00    +0.000 A 
ATOM     20  C   UNL     1       2.412   6.261  18.709  0.00  0.00    +0.000 A 
ATOM     21  C   UNL     1       2.165   7.576  18.268  0.00  0.00    +0.000 A 
ATOM     22  C   UNL     1       1.675   8.586  19.133  0.00  0.00    +0.000 A 
BRANCH  20  23
ATOM     23  C   UNL     1       2.934   5.249  17.738  0.00  0.00    +0.000 C 
ATOM     24  C   UNL     1       2.168   3.971  17.470  0.00  0.00    +0.000 C 
ATOM     25  O   UNL     1       3.985   5.479  17.142  0.00  0.00    +0.000 OA
ENDBRANCH  20  23
BRANCH  17  26
ATOM     26  O   UNL     1       1.038   9.206  21.390  0.00  0.00    +0.000 OA
BRANCH  26  28
ATOM     27  C   UNL     1      -0.672   9.997  22.983  0.00  0.00    +0.000 C 
ATOM     28  C   UNL     1      -0.241   8.930  21.999  0.00  0.00    +0.000 C 
ENDBRANCH  26  28
ENDBRANCH  17  26
ENDBRANCH  16  22
ENDBRANCH   1  16
TORSDOF 7
ENDMDL
MODEL 2
REMARK VINA RESULT:      -7.1      3.550      5.763
REMARK  Name = 
REMARK  9 active torsions:
REMARK  status: ('A' for Active; 'I' for Inactive)
REMARK    1  A    between atoms: C_1  and  C_2
REMARK    2  A    between atoms: C_2  and  O_3
REMARK    3  A    between atoms: O_3  and  C_4
REMARK    4  A    between atoms: C_7  and  C_8
REMARK    5  A    between atoms: C_8  and  C_9
REMARK    6  A    between atoms: C_12  and  C_13
REMARK    7  A    between atoms: C_13  and  N_14
REMARK    8  A    between atoms: C_16  and  C_17
REMARK    9  A    between atoms: C_17  and  O_19
REMARK                            x       y       z     vdW  Elec       q    Type
REMARK                         _______ _______ _______ _____ _____    ______ ____
ROOT
ATOM      1  N   UNL     1       1.910   6.978  20.061  0.00  0.00    +0.000 N 
ATOM      2  N   UNL     1       1.340   7.406  21.268  0.00  0.00    +0.000 NA
ATOM      3  C   UNL     1       0.998   8.661  21.382  0.00  0.00    +0.000 A 
ATOM      4  C   UNL     1       1.284   9.685  20.368  0.00  0.00    +0.000 A 
ATOM      5  C   UNL     1       1.226  11.065  20.614  0.00  0.00    +0.000 A 
ATOM      6  C   UNL     1       1.431  11.971  19.572  0.00  0.00    +0.000 A 
ATOM      7  C   UNL     1       1.690  11.503  18.287  0.00  0.00    +0.000 A 
ATOM      8  C   UNL     1       1.794  10.129  18.052  0.00  0.00    +0.000 A 
ATOM      9  C   UNL     1       1.623   9.218  19.105  0.00  0.00    +0.000 A 
ATOM     10  C   UNL     1       1.863   7.769  18.903  0.00  0.00    +0.000 A 
ATOM     11  O   UNL     1       2.045   7.348  17.765  0.00  0.00    +0.000 OA
ENDROOT
BRANCH   3  12
ATOM     12  C   UNL     1       0.189   9.043  22.637  0.00  0.00    +0.000 C 
ATOM     13  O   UNL     1       0.590   9.778  23.510  0.00  0.00    +0.000 OA
BRANCH  12  14
ATOM     14  O   UNL     1      -1.036   8.493  22.599  0.00  0.00    +0.000 OA
ATOM     15  H   UNL     1      -1.674   9.157  22.258  0.00  0.00    +0.000 HD
ENDBRANCH  12  14
ENDBRANCH   3  12
BRANCH   1  16
ATOM     16  C   UNL     1       2.273   5.534  19.946  0.00  0.00    +0.000 C 
BRANCH  16  22
ATOM     17  C   UNL     1       3.390   4.379  17.917  0.00  0.00    +0.000 A 
ATOM     18  C   UNL     1       4.557   4.069  17.194  0.00  0.00    +0.000 A 
ATOM     19  C   UNL     1       5.804   4.541  17.578  0.00  0.00    +0.000 A 
ATOM     20  C   UNL     1       5.932   5.330  18.710  0.00  0.00    +0.000 A 
ATOM     21  C   UNL     1       4.775   5.654  19.446  0.00  0.00    +0.000 A 
ATOM     22  C   UNL     1       3.485   5.208  19.065  0.00  0.00    +0.000 A 
BRANCH  20  23
ATOM     23  C   UNL     1       7.262   5.834  19.177  0.00  0.00    +0.000 C 
ATOM     24  C   UNL     1       7.999   6.901  18.396  0.00  0.00    +0.000 C 
ATOM     25  O   UNL     1       7.739   5.387  20.218  0.00  0.00    +0.000 OA
ENDBRANCH  20  23
BRANCH  17  26
ATOM     26  O   UNL     1       2.158   3.875  17.534  0.00  0.00    +0.000 OA
BRANCH  26  28
ATOM     27  C   UNL     1       0.827   2.339  18.933  0.00  0.00    +0.000 C 
ATOM     28  C   UNL     1       1.931   2.500  17.910  0.00  0.00    +0.000 C 
ENDBRANCH  26  28
ENDBRANCH  17  26
ENDBRANCH  16  22
ENDBRANCH   1  16
TORSDOF 7
ENDMDL
MODEL 3
REMARK VINA RESULT:      -7.0      4.205      8.927
REMARK  Name = 
REMARK  9 active torsions:
REMARK  status: ('A' for Active; 'I' for Inactive)
REMARK    1  A    between atoms: C_1  and  C_2
REMARK    2  A    between atoms: C_2  and  O_3
REMARK    3  A    between atoms: O_3  and  C_4
REMARK    4  A    between atoms: C_7  and  C_8
REMARK    5  A    between atoms: C_8  and  C_9
REMARK    6  A    between atoms: C_12  and  C_13
REMARK    7  A    between atoms: C_13  and  N_14
REMARK    8  A    between atoms: C_16  and  C_17
REMARK    9  A    between atoms: C_17  and  O_19
REMARK                            x       y       z     vdW  Elec       q    Type
REMARK                         _______ _______ _______ _____ _____    ______ ____
ROOT
ATOM      1  N   UNL     1       5.012   4.583  18.183  0.00  0.00    +0.000 N 
ATOM      2  N   UNL     1       6.014   5.539  18.400  0.00  0.00    +0.000 NA
ATOM      3  C   UNL     1       6.766   5.889  17.392  0.00  0.00    +0.000 A 
ATOM      4  C   UNL     1       6.710   5.255  16.068  0.00  0.00    +0.000 A 
ATOM      5  C   UNL     1       7.714   5.385  15.097  0.00  0.00    +0.000 A 
ATOM      6  C   UNL     1       7.543   4.817  13.832  0.00  0.00    +0.000 A 
ATOM      7  C   UNL     1       6.372   4.126  13.535  0.00  0.00    +0.000 A 
ATOM      8  C   UNL     1       5.392   3.958  14.517  0.00  0.00    +0.000 A 
ATOM      9  C   UNL     1       5.578   4.497  15.800  0.00  0.00    +0.000 A 
ATOM     10  C   UNL     1       4.614   4.213  16.890  0.00  0.00    +0.000 A 
ATOM     11  O   UNL     1       3.560   3.645  16.622  0.00  0.00    +0.000 OA
ENDROOT
BRANCH   3  12
ATOM     12  C   UNL     1       7.711   7.085  17.620  0.00  0.00    +0.000 C 
ATOM     13  O   UNL     1       7.815   8.026  16.867  0.00  0.00    +0.000 OA
BRANCH  12  14
ATOM     14  O   UNL     1       8.357   6.964  18.791  0.00  0.00    +0.000 OA
ATOM     15  H   UNL     1       9.072   6.298  18.695  0.00  0.00    +0.000 HD
ENDBRANCH  12  14
ENDBRANCH   3  12
BRANCH   1  16
ATOM     16  C   UNL     1       4.150   4.215  19.347  0.00  0.00    +0.000 C 
BRANCH  16  22
ATOM     17  C   UNL     1       2.258   5.065  20.896  0.00  0.00    +0.000 A 
ATOM     18  C   UNL     1       1.312   6.056  21.215  0.00  0.00    +0.000 A 
ATOM     19  C   UNL     1       1.204   7.230  20.484  0.00  0.00    +0.000 A 
ATOM     20  C   UNL     1       2.033   7.450  19.396  0.00  0.00    +0.000 A 
ATOM     21  C   UNL     1       2.990   6.473  19.061  0.00  0.00    +0.000 A 
ATOM     22  C   UNL     1       3.139   5.275  19.803  0.00  0.00    +0.000 A 
BRANCH  20  23
ATOM     23  C   UNL     1       1.930   8.689  18.561  0.00  0.00    +0.000 C 
ATOM     24  C   UNL     1       1.115   9.873  19.036  0.00  0.00    +0.000 C 
ATOM     25  O   UNL     1       2.536   8.742  17.492  0.00  0.00    +0.000 OA
ENDBRANCH  20  23
BRANCH  17  26
ATOM     26  O   UNL     1       2.331   3.887  21.621  0.00  0.00    +0.000 OA
BRANCH  26  28
ATOM     27  C   UNL     1       1.063   2.595  19.944  0.00  0.00    +0.000 C 
ATOM     28  C   UNL     1       1.230   2.979  21.399  0.00  0.00    +0.000 C 
ENDBRANCH  26  28
ENDBRANCH  17  26
ENDBRANCH  16  22
ENDBRANCH   1  16
TORSDOF 7
ENDMDL
MODEL 4
REMARK VINA RESULT:      -7.0      1.139      1.327
REMARK  Name = 
REMARK  9 active torsions:
REMARK  status: ('A' for Active; 'I' for Inactive)
REMARK    1  A    between atoms: C_1  and  C_2
REMARK    2  A    between atoms: C_2  and  O_3
REMARK    3  A    between atoms: O_3  and  C_4
REMARK    4  A    between atoms: C_7  and  C_8
REMARK    5  A    between atoms: C_8  and  C_9
REMARK    6  A    between atoms: C_12  and  C_13
REMARK    7  A    between atoms: C_13  and  N_14
REMARK    8  A    between atoms: C_16  and  C_17
REMARK    9  A    between atoms: C_17  and  O_19
REMARK                            x       y       z     vdW  Elec       q    Type
REMARK                         _______ _______ _______ _____ _____    ______ ____
ROOT
ATOM      1  N   UNL     1       0.855  10.156  18.548  0.00  0.00    +0.000 N 
ATOM      2  N   UNL     1      -0.289   9.780  17.830  0.00  0.00    +0.000 NA
ATOM      3  C   UNL     1      -1.379  10.484  17.986  0.00  0.00    +0.000 A 
ATOM      4  C   UNL     1      -1.518  11.574  18.961  0.00  0.00    +0.000 A 
ATOM      5  C   UNL     1      -2.751  12.105  19.367  0.00  0.00    +0.000 A 
ATOM      6  C   UNL     1      -2.791  13.198  20.235  0.00  0.00    +0.000 A 
ATOM      7  C   UNL     1      -1.605  13.764  20.693  0.00  0.00    +0.000 A 
ATOM      8  C   UNL     1      -0.377  13.205  20.325  0.00  0.00    +0.000 A 
ATOM      9  C   UNL     1      -0.336  12.085  19.481  0.00  0.00    +0.000 A 
ATOM     10  C   UNL     1       0.946  11.400  19.191  0.00  0.00    +0.000 A 
ATOM     11  O   UNL     1       1.996  11.920  19.553  0.00  0.00    +0.000 OA
ENDROOT
BRANCH   3  12
ATOM     12  C   UNL     1      -2.545  10.168  17.030  0.00  0.00    +0.000 C 
ATOM     13  O   UNL     1      -3.501   9.487  17.321  0.00  0.00    +0.000 OA
BRANCH  12  14
ATOM     14  O   UNL     1      -2.379  10.798  15.855  0.00  0.00    +0.000 OA
ATOM     15  H   UNL     1      -3.006  11.552  15.805  0.00  0.00    +0.000 HD
ENDBRANCH  12  14
ENDBRANCH   3  12
BRANCH   1  16
ATOM     16  C   UNL     1       2.094   9.349  18.337  0.00  0.00    +0.000 C 
BRANCH  16  22
ATOM     17  C   UNL     1       1.791   7.609  20.229  0.00  0.00    +0.000 A 
ATOM     18  C   UNL     1       1.847   6.271  20.660  0.00  0.00    +0.000 A 
ATOM     19  C   UNL     1       2.176   5.235  19.797  0.00  0.00    +0.000 A 
ATOM     20  C   UNL     1       2.475   5.503  18.471  0.00  0.00    +0.000 A 
ATOM     21  C   UNL     1       2.421   6.836  18.018  0.00  0.00    +0.000 A 
ATOM     22  C   UNL     1       2.065   7.911  18.870  0.00  0.00    +0.000 A 
BRANCH  20  23
ATOM     23  C   UNL     1       2.864   4.420  17.513  0.00  0.00    +0.000 C 
ATOM     24  C   UNL     1       4.292   4.299  17.025  0.00  0.00    +0.000 C 
ATOM     25  O   UNL     1       2.012   3.614  17.143  0.00  0.00    +0.000 OA
ENDBRANCH  20  23
BRANCH  17  26
ATOM     26  O   UNL     1       1.489   8.632  21.113  0.00  0.00    +0.000 OA
BRANCH  26  28
ATOM     27  C   UNL     1      -0.212   9.825  22.445  0.00  0.00    +0.000 C 
ATOM     28  C   UNL     1       0.138   8.603  21.621  0.00  0.00    +0.000 C 
ENDBRANCH  26  28
ENDBRANCH  17  26
ENDBRANCH  16  22
ENDBRANCH   1  16
TORSDOF 7
ENDMDL
MODEL 5
REMARK VINA RESULT:      -6.8      3.835      6.731
REMARK  Name = 
REMARK  9 active torsions:
REMARK  status: ('A' for Active; 'I' for Inactive)
REMARK    1  A    between atoms: C_1  and  C_2
REMARK    2  A    between atoms: C_2  and  O_3
REMARK    3  A    between atoms: O_3  and  C_4
REMARK    4  A    between atoms: C_7  and  C_8
REMARK    5  A    between atoms: C_8  and  C_9
REMARK    6  A    between atoms: C_12  and  C_13
REMARK    7  A    between atoms: C_13  and  N_14
REMARK    8  A    between atoms: C_16  and  C_17
REMARK    9  A    between atoms: C_17  and  O_19
REMARK                            x       y       z     vdW  Elec       q    Type
REMARK                         _______ _______ _______ _____ _____    ______ ____
ROOT
ATOM      1  N   UNL     1       3.598   7.328  17.604  0.00  0.00    +0.000 N 
ATOM      2  N   UNL     1       3.433   6.053  18.160  0.00  0.00    +0.000 NA
ATOM      3  C   UNL     1       2.595   5.912  19.152  0.00  0.00    +0.000 A 
ATOM      4  C   UNL     1       1.902   7.031  19.805  0.00  0.00    +0.000 A 
ATOM      5  C   UNL     1       1.274   6.937  21.056  0.00  0.00    +0.000 A 
ATOM      6  C   UNL     1       0.565   8.027  21.567  0.00  0.00    +0.000 A 
ATOM      7  C   UNL     1       0.479   9.205  20.831  0.00  0.00    +0.000 A 
ATOM      8  C   UNL     1       1.143   9.313  19.606  0.00  0.00    +0.000 A 
ATOM      9  C   UNL     1       1.885   8.232  19.107  0.00  0.00    +0.000 A 
ATOM     10  C   UNL     1       2.705   8.374  17.880  0.00  0.00    +0.000 A 
ATOM     11  O   UNL     1       2.595   9.393  17.205  0.00  0.00    +0.000 OA
ENDROOT
BRANCH   3  12
ATOM     12  C   UNL     1       2.288   4.469  19.595  0.00  0.00    +0.000 C 
ATOM     13  O   UNL     1       1.241   3.899  19.389  0.00  0.00    +0.000 OA
BRANCH  12  14
ATOM     14  O   UNL     1       3.359   3.916  20.189  0.00  0.00    +0.000 OA
ATOM     15  H   UNL     1       4.140   4.027  19.606  0.00  0.00    +0.000 HD
ENDBRANCH  12  14
ENDBRANCH   3  12
BRANCH   1  16
ATOM     16  C   UNL     1       4.545   7.459  16.456  0.00  0.00    +0.000 C 
BRANCH  16  22
ATOM     17  C   UNL     1       6.395   5.732  17.001  0.00  0.00    +0.000 A 
ATOM     18  C   UNL     1       7.172   4.629  16.603  0.00  0.00    +0.000 A 
ATOM     19  C   UNL     1       6.993   4.010  15.374  0.00  0.00    +0.000 A 
ATOM     20  C   UNL     1       6.036   4.482  14.490  0.00  0.00    +0.000 A 
ATOM     21  C   UNL     1       5.244   5.583  14.870  0.00  0.00    +0.000 A 
ATOM     22  C   UNL     1       5.387   6.220  16.128  0.00  0.00    +0.000 A 
BRANCH  20  23
ATOM     23  C   UNL     1       5.830   3.863  13.142  0.00  0.00    +0.000 C 
ATOM     24  C   UNL     1       7.002   3.637  12.211  0.00  0.00    +0.000 C 
ATOM     25  O   UNL     1       4.698   3.520  12.809  0.00  0.00    +0.000 OA
ENDBRANCH  20  23
BRANCH  17  26
ATOM     26  O   UNL     1       6.608   6.354  18.220  0.00  0.00    +0.000 OA
BRANCH  26  28
ATOM     27  C   UNL     1       8.002   8.349  17.811  0.00  0.00    +0.000 C 
ATOM     28  C   UNL     1       7.917   6.944  18.369  0.00  0.00    +0.000 C 
ENDBRANCH  26  28
ENDBRANCH  17  26
ENDBRANCH  16  22
ENDBRANCH   1  16
TORSDOF 7
ENDMDL
MODEL 6
REMARK VINA RESULT:      -6.8      2.396      7.873
REMARK  Name = 
REMARK  9 active torsions:
REMARK  status: ('A' for Active; 'I' for Inactive)
REMARK    1  A    between atoms: C_1  and  C_2
REMARK    2  A    between atoms: C_2  and  O_3
REMARK    3  A    between atoms: O_3  and  C_4
REMARK    4  A    between atoms: C_7  and  C_8
REMARK    5  A    between atoms: C_8  and  C_9
REMARK    6  A    between atoms: C_12  and  C_13
REMARK    7  A    between atoms: C_13  and  N_14
REMARK    8  A    between atoms: C_16  and  C_17
REMARK    9  A    between atoms: C_17  and  O_19
REMARK                            x       y       z     vdW  Elec       q    Type
REMARK                         _______ _______ _______ _____ _____    ______ ____
ROOT
ATOM      1  N   UNL     1      -0.977  11.712  20.080  0.00  0.00    +0.000 N 
ATOM      2  N   UNL     1      -0.899  11.019  21.296  0.00  0.00    +0.000 NA
ATOM      3  C   UNL     1      -0.059  10.024  21.391  0.00  0.00    +0.000 A 
ATOM      4  C   UNL     1       0.725   9.503  20.263  0.00  0.00    +0.000 A 
ATOM      5  C   UNL     1       1.364   8.254  20.267  0.00  0.00    +0.000 A 
ATOM      6  C   UNL     1       2.159   7.871  19.185  0.00  0.00    +0.000 A 
ATOM      7  C   UNL     1       2.322   8.732  18.105  0.00  0.00    +0.000 A 
ATOM      8  C   UNL     1       1.649   9.957  18.080  0.00  0.00    +0.000 A 
ATOM      9  C   UNL     1       0.820  10.328  19.150  0.00  0.00    +0.000 A 
ATOM     10  C   UNL     1      -0.004  11.558  19.081  0.00  0.00    +0.000 A 
ATOM     11  O   UNL     1       0.170  12.342  18.153  0.00  0.00    +0.000 OA
ENDROOT
BRANCH   3  12
ATOM     12  C   UNL     1       0.146   9.427  22.796  0.00  0.00    +0.000 C 
ATOM     13  O   UNL     1       1.070   9.702  23.527  0.00  0.00    +0.000 OA
BRANCH  12  14
ATOM     14  O   UNL     1      -0.869   8.608  23.117  0.00  0.00    +0.000 OA
ATOM     15  H   UNL     1      -1.508   9.095  23.680  0.00  0.00    +0.000 HD
ENDBRANCH  12  14
ENDBRANCH   3  12
BRANCH   1  16
ATOM     16  C   UNL     1      -1.930  12.860  20.003  0.00  0.00    +0.000 C 
BRANCH  16  22
ATOM     17  C   UNL     1      -4.082  12.027  18.830  0.00  0.00    +0.000 A 
ATOM     18  C   UNL     1      -5.466  11.784  18.878  0.00  0.00    +0.000 A 
ATOM     19  C   UNL     1      -6.212  12.008  20.027  0.00  0.00    +0.000 A 
ATOM     20  C   UNL     1      -5.599  12.498  21.169  0.00  0.00    +0.000 A 
ATOM     21  C   UNL     1      -4.212  12.745  21.143  0.00  0.00    +0.000 A 
ATOM     22  C   UNL     1      -3.421  12.503  19.993  0.00  0.00    +0.000 A 
BRANCH  20  23
ATOM     23  C   UNL     1      -6.370  12.783  22.421  0.00  0.00    +0.000 C 
ATOM     24  C   UNL     1      -6.253  14.126  23.109  0.00  0.00    +0.000 C 
ATOM     25  O   UNL     1      -7.118  11.918  22.872  0.00  0.00    +0.000 OA
ENDBRANCH  20  23
BRANCH  17  26
ATOM     26  O   UNL     1      -3.361  11.824  17.665  0.00  0.00    +0.000 OA
BRANCH  26  28
ATOM     27  C   UNL     1      -3.259  10.874  15.390  0.00  0.00    +0.000 C 
ATOM     28  C   UNL     1      -4.012  10.971  16.700  0.00  0.00    +0.000 C 
ENDBRANCH  26  28
ENDBRANCH  17  26
ENDBRANCH  16  22
ENDBRANCH   1  16
TORSDOF 7
ENDMDL
MODEL 7
REMARK VINA RESULT:      -6.8      1.707      7.644
REMARK  Name = 
REMARK  9 active torsions:
REMARK  status: ('A' for Active; 'I' for Inactive)
REMARK    1  A    between atoms: C_1  and  C_2
REMARK    2  A    between atoms: C_2  and  O_3
REMARK    3  A    between atoms: O_3  and  C_4
REMARK    4  A    between atoms: C_7  and  C_8
REMARK    5  A    between atoms: C_8  and  C_9
REMARK    6  A    between atoms: C_12  and  C_13
REMARK    7  A    between atoms: C_13  and  N_14
REMARK    8  A    between atoms: C_16  and  C_17
REMARK    9  A    between atoms: C_17  and  O_19
REMARK                            x       y       z     vdW  Elec       q    Type
REMARK                         _______ _______ _______ _____ _____    ______ ____
ROOT
ATOM      1  N   UNL     1       0.079  10.584  19.194  0.00  0.00    +0.000 N 
ATOM      2  N   UNL     1      -0.166  10.325  20.550  0.00  0.00    +0.000 NA
ATOM      3  C   UNL     1       0.414   9.292  21.099  0.00  0.00    +0.000 A 
ATOM      4  C   UNL     1       1.215   8.310  20.355  0.00  0.00    +0.000 A 
ATOM      5  C   UNL     1       1.558   7.044  20.854  0.00  0.00    +0.000 A 
ATOM      6  C   UNL     1       2.393   6.204  20.115  0.00  0.00    +0.000 A 
ATOM      7  C   UNL     1       2.888   6.625  18.884  0.00  0.00    +0.000 A 
ATOM      8  C   UNL     1       2.510   7.867  18.367  0.00  0.00    +0.000 A 
ATOM      9  C   UNL     1       1.642   8.698  19.092  0.00  0.00    +0.000 A 
ATOM     10  C   UNL     1       1.124   9.955  18.501  0.00  0.00    +0.000 A 
ATOM     11  O   UNL     1       1.593  10.353  17.439  0.00  0.00    +0.000 OA
ENDROOT
BRANCH   3  12
ATOM     12  C   UNL     1       0.287   9.163  22.629  0.00  0.00    +0.000 C 
ATOM     13  O   UNL     1       1.103   9.578  23.420  0.00  0.00    +0.000 OA
BRANCH  12  14
ATOM     14  O   UNL     1      -0.877   8.579  22.961  0.00  0.00    +0.000 OA
ATOM     15  H   UNL     1      -0.712   7.633  23.167  0.00  0.00    +0.000 HD
ENDBRANCH  12  14
ENDBRANCH   3  12
BRANCH   1  16
ATOM     16  C   UNL     1      -0.579  11.784  18.595  0.00  0.00    +0.000 C 
BRANCH  16  22
ATOM     17  C   UNL     1      -3.036  11.432  17.857  0.00  0.00    +0.000 A 
ATOM     18  C   UNL     1      -4.408  11.637  18.091  0.00  0.00    +0.000 A 
ATOM     19  C   UNL     1      -4.870  12.298  19.220  0.00  0.00    +0.000 A 
ATOM     20  C   UNL     1      -3.972  12.793  20.152  0.00  0.00    +0.000 A 
ATOM     21  C   UNL     1      -2.593  12.596  19.939  0.00  0.00    +0.000 A 
ATOM     22  C   UNL     1      -2.093  11.903  18.809  0.00  0.00    +0.000 A 
BRANCH  20  23
ATOM     23  C   UNL     1      -4.425  13.539  21.369  0.00  0.00    +0.000 C 
ATOM     24  C   UNL     1      -5.531  12.987  22.244  0.00  0.00    +0.000 C 
ATOM     25  O   UNL     1      -3.872  14.596  21.662  0.00  0.00    +0.000 OA
ENDBRANCH  20  23
BRANCH  17  26
ATOM     26  O   UNL     1      -2.593  10.795  16.710  0.00  0.00    +0.000 OA
BRANCH  26  28
ATOM     27  C   UNL     1      -3.031  10.083  14.388  0.00  0.00    +0.000 C 
ATOM     28  C   UNL     1      -3.560  10.754  15.638  0.00  0.00    +0.000 C 
ENDBRANCH  26  28
ENDBRANCH  17  26
ENDBRANCH  16  22
ENDBRANCH   1  16
TORSDOF 7
ENDMDL
MODEL 8
REMARK VINA RESULT:      -6.7      0.777      1.021
REMARK  Name = 
REMARK  9 active torsions:
REMARK  status: ('A' for Active; 'I' for Inactive)
REMARK    1  A    between atoms: C_1  and  C_2
REMARK    2  A    between atoms: C_2  and  O_3
REMARK    3  A    between atoms: O_3  and  C_4
REMARK    4  A    between atoms: C_7  and  C_8
REMARK    5  A    between atoms: C_8  and  C_9
REMARK    6  A    between atoms: C_12  and  C_13
REMARK    7  A    between atoms: C_13  and  N_14
REMARK    8  A    between atoms: C_16  and  C_17
REMARK    9  A    between atoms: C_17  and  O_19
REMARK                            x       y       z     vdW  Elec       q    Type
REMARK                         _______ _______ _______ _____ _____    ______ ____
ROOT
ATOM      1  N   UNL     1      -0.494  11.036  18.668  0.00  0.00    +0.000 N 
ATOM      2  N   UNL     1      -1.135  10.604  17.499  0.00  0.00    +0.000 NA
ATOM      3  C   UNL     1      -2.400  10.889  17.343  0.00  0.00    +0.000 A 
ATOM      4  C   UNL     1      -3.229  11.530  18.373  0.00  0.00    +0.000 A 
ATOM      5  C   UNL     1      -4.632  11.539  18.352  0.00  0.00    +0.000 A 
ATOM      6  C   UNL     1      -5.342  12.244  19.326  0.00  0.00    +0.000 A 
ATOM      7  C   UNL     1      -4.655  12.942  20.315  0.00  0.00    +0.000 A 
ATOM      8  C   UNL     1      -3.259  12.894  20.363  0.00  0.00    +0.000 A 
ATOM      9  C   UNL     1      -2.545  12.157  19.406  0.00  0.00    +0.000 A 
ATOM     10  C   UNL     1      -1.077  11.985  19.520  0.00  0.00    +0.000 A 
ATOM     11  O   UNL     1      -0.464  12.635  20.361  0.00  0.00    +0.000 OA
ENDROOT
BRANCH   3  12
ATOM     12  C   UNL     1      -3.010  10.581  15.962  0.00  0.00    +0.000 C 
ATOM     13  O   UNL     1      -3.350  11.423  15.163  0.00  0.00    +0.000 OA
BRANCH  12  14
ATOM     14  O   UNL     1      -3.059   9.256  15.749  0.00  0.00    +0.000 OA
ATOM     15  H   UNL     1      -3.977   9.004  15.509  0.00  0.00    +0.000 HD
ENDBRANCH  12  14
ENDBRANCH   3  12
BRANCH   1  16
ATOM     16  C   UNL     1       0.958  10.717  18.813  0.00  0.00    +0.000 C 
BRANCH  16  22
ATOM     17  C   UNL     1       1.179   9.016  20.752  0.00  0.00    +0.000 A 
ATOM     18  C   UNL     1       1.568   7.741  21.202  0.00  0.00    +0.000 A 
ATOM     19  C   UNL     1       2.075   6.781  20.338  0.00  0.00    +0.000 A 
ATOM     20  C   UNL     1       2.224   7.067  18.990  0.00  0.00    +0.000 A 
ATOM     21  C   UNL     1       1.837   8.337  18.518  0.00  0.00    +0.000 A 
ATOM     22  C   UNL     1       1.294   9.328  19.372  0.00  0.00    +0.000 A 
BRANCH  20  23
ATOM     23  C   UNL     1       2.795   6.072  18.028  0.00  0.00    +0.000 C 
ATOM     24  C   UNL     1       2.097   4.752  17.780  0.00  0.00    +0.000 C 
ATOM     25  O   UNL     1       3.830   6.349  17.425  0.00  0.00    +0.000 OA
ENDBRANCH  20  23
BRANCH  17  26
ATOM     26  O   UNL     1       0.702   9.970  21.635  0.00  0.00    +0.000 OA
BRANCH  26  28
ATOM     27  C   UNL     1      -1.138  10.532  23.180  0.00  0.00    +0.000 C 
ATOM     28  C   UNL     1      -0.223   9.463  22.621  0.00  0.00    +0.000 C 
ENDBRANCH  26  28
ENDBRANCH  17  26
ENDBRANCH  16  22
ENDBRANCH   1  16
TORSDOF 7
ENDMDL
MODEL 9
REMARK VINA RESULT:      -6.7      3.440      5.155
REMARK  Name = 
REMARK  9 active torsions:
REMARK  status: ('A' for Active; 'I' for Inactive)
REMARK    1  A    between atoms: C_1  and  C_2
REMARK    2  A    between atoms: C_2  and  O_3
REMARK    3  A    between atoms: O_3  and  C_4
REMARK    4  A    between atoms: C_7  and  C_8
REMARK    5  A    between atoms: C_8  and  C_9
REMARK    6  A    between atoms: C_12  and  C_13
REMARK    7  A    between atoms: C_13  and  N_14
REMARK    8  A    between atoms: C_16  and  C_17
REMARK    9  A    between atoms: C_17  and  O_19
REMARK                            x       y       z     vdW  Elec       q    Type
REMARK                         _______ _______ _______ _____ _____    ______ ____
ROOT
ATOM      1  N   UNL     1       1.859   8.093  18.973  0.00  0.00    +0.000 N 
ATOM      2  N   UNL     1       1.361   8.035  20.282  0.00  0.00    +0.000 NA
ATOM      3  C   UNL     1       1.062   9.156  20.882  0.00  0.00    +0.000 A 
ATOM      4  C   UNL     1       1.330  10.486  20.317  0.00  0.00    +0.000 A 
ATOM      5  C   UNL     1       1.325  11.670  21.070  0.00  0.00    +0.000 A 
ATOM      6  C   UNL     1       1.507  12.902  20.438  0.00  0.00    +0.000 A 
ATOM      7  C   UNL     1       1.689  12.954  19.059  0.00  0.00    +0.000 A 
ATOM      8  C   UNL     1       1.740  11.771  18.316  0.00  0.00    +0.000 A 
ATOM      9  C   UNL     1       1.593  10.530  18.954  0.00  0.00    +0.000 A 
ATOM     10  C   UNL     1       1.779   9.265  18.205  0.00  0.00    +0.000 A 
ATOM     11  O   UNL     1       1.893   9.305  16.984  0.00  0.00    +0.000 OA
ENDROOT
BRANCH   3  12
ATOM     12  C   UNL     1       0.327   9.040  22.231  0.00  0.00    +0.000 C 
ATOM     13  O   UNL     1       0.685   9.580  23.253  0.00  0.00    +0.000 OA
BRANCH  12  14
ATOM     14  O   UNL     1      -0.791   8.307  22.102  0.00  0.00    +0.000 OA
ATOM     15  H   UNL     1      -1.402   8.523  22.839  0.00  0.00    +0.000 HD
ENDBRANCH  12  14
ENDBRANCH   3  12
BRANCH   1  16
ATOM     16  C   UNL     1       2.173   6.797  18.300  0.00  0.00    +0.000 C 
BRANCH  16  22
ATOM     17  C   UNL     1       3.870   5.305  19.563  0.00  0.00    +0.000 A 
ATOM     18  C   UNL     1       5.199   4.886  19.758  0.00  0.00    +0.000 A 
ATOM     19  C   UNL     1       6.242   5.367  18.979  0.00  0.00    +0.000 A 
ATOM     20  C   UNL     1       5.994   6.298  17.983  0.00  0.00    +0.000 A 
ATOM     21  C   UNL     1       4.670   6.728  17.769  0.00  0.00    +0.000 A 
ATOM     22  C   UNL     1       3.582   6.237  18.531  0.00  0.00    +0.000 A 
BRANCH  20  23
ATOM     23  C   UNL     1       7.093   6.866  17.140  0.00  0.00    +0.000 C 
ATOM     24  C   UNL     1       7.789   8.149  17.542  0.00  0.00    +0.000 C 
ATOM     25  O   UNL     1       7.440   6.265  16.125  0.00  0.00    +0.000 OA
ENDBRANCH  20  23
BRANCH  17  26
ATOM     26  O   UNL     1       2.847   4.835  20.369  0.00  0.00    +0.000 OA
BRANCH  26  28
ATOM     27  C   UNL     1       2.211   2.709  21.448  0.00  0.00    +0.000 C 
ATOM     28  C   UNL     1       2.511   3.446  20.161  0.00  0.00    +0.000 C 
ENDBRANCH  26  28
ENDBRANCH  17  26
ENDBRANCH  16  22
ENDBRANCH   1  16
TORSDOF 7
ENDMDL
