MODEL 1
REMARK VINA RESULT:      -7.2      0.000      0.000
REMARK  Name = 
REMARK  4 active torsions:
REMARK  status: ('A' for Active; 'I' for Inactive)
REMARK    1  A    between atoms: C_1  and  N_2
REMARK    2  A    between atoms: C_4  and  C_5
REMARK    3  A    between atoms: C_6  and  C_7
REMARK    4  A    between atoms: N_10  and  C_11
REMARK                            x       y       z     vdW  Elec       q    Type
REMARK                         _______ _______ _______ _____ _____    ______ ____
ROOT
ATOM      1  C   UNL     1       5.948   5.348  16.233  0.00  0.00    +0.000 C 
ATOM      2  N   UNL     1       4.714   5.660  16.919  0.00  0.00    +0.000 N 
ATOM      3  C   UNL     1       4.317   6.922  17.276  0.00  0.00    +0.000 A 
ATOM      4  C   UNL     1       3.100   6.824  17.920  0.00  0.00    +0.000 A 
ATOM      5  C   UNL     1       2.746   5.436  17.949  0.00  0.00    +0.000 A 
ATOM      6  C   UNL     1       1.648   4.703  18.456  0.00  0.00    +0.000 A 
ATOM      7  C   UNL     1       1.613   3.311  18.313  0.00  0.00    +0.000 A 
ATOM      8  C   UNL     1       2.650   2.639  17.674  0.00  0.00    +0.000 A 
ATOM      9  C   UNL     1       3.747   3.335  17.163  0.00  0.00    +0.000 A 
ATOM     10  C   UNL     1       3.773   4.731  17.313  0.00  0.00    +0.000 A 
ENDROOT
BRANCH   4  11
ATOM     11  C   UNL     1       2.338   7.917  18.447  0.00  0.00    +0.000 C 
ATOM     12  C   UNL     1       1.551   8.741  17.731  0.00  0.00    +0.000 C 
BRANCH  12  13
ATOM     13  C   UNL     1       0.743   9.835  18.288  0.00  0.00    +0.000 A 
ATOM     14  C   UNL     1       1.281  10.856  19.071  0.00  0.00    +0.000 A 
ATOM     15  C   UNL     1       0.452  11.848  19.584  0.00  0.00    +0.000 A 
ATOM     16  N   UNL     1      -0.873  11.841  19.322  0.00  0.00    +0.000 N 
ATOM     17  C   UNL     1      -1.756  12.853  19.925  0.00  0.00    +0.000 C 
ATOM     18  C   UNL     1      -1.413  10.891  18.527  0.00  0.00    +0.000 A 
ATOM     19  C   UNL     1      -0.621   9.881  17.993  0.00  0.00    +0.000 A 
ENDBRANCH  12  13
ENDBRANCH   4  11
TORSDOF 2
ENDMDL
MODEL 2
REMARK VINA RESULT:      -7.1      6.750      9.845
REMARK  Name = 
REMARK  4 active torsions:
REMARK  status: ('A' for Active; 'I' for Inactive)
REMARK    1  A    between atoms: C_1  and  N_2
REMARK    2  A    between atoms: C_4  and  C_5
REMARK    3  A    between atoms: C_6  and  C_7
REMARK    4  A    between atoms: N_10  and  C_11
REMARK                            x       y       z     vdW  Elec       q    Type
REMARK                         _______ _______ _______ _____ _____    ______ ____
ROOT
ATOM      1  C   UNL     1      11.558  13.555  17.215  0.00  0.00    +0.000 C 
ATOM      2  N   UNL     1      10.785  12.693  18.081  0.00  0.00    +0.000 N 
ATOM      3  C   UNL     1      10.300  11.463  17.724  0.00  0.00    +0.000 A 
ATOM      4  C   UNL     1       9.606  10.946  18.800  0.00  0.00    +0.000 A 
ATOM      5  C   UNL     1       9.680  11.912  19.856  0.00  0.00    +0.000 A 
ATOM      6  C   UNL     1       9.184  11.974  21.179  0.00  0.00    +0.000 A 
ATOM      7  C   UNL     1       9.446  13.099  21.969  0.00  0.00    +0.000 A 
ATOM      8  C   UNL     1      10.193  14.159  21.466  0.00  0.00    +0.000 A 
ATOM      9  C   UNL     1      10.697  14.126  20.164  0.00  0.00    +0.000 A 
ATOM     10  C   UNL     1      10.426  12.993  19.379  0.00  0.00    +0.000 A 
ENDROOT
BRANCH   4  11
ATOM     11  C   UNL     1       8.947   9.674  18.843  0.00  0.00    +0.000 C 
ATOM     12  C   UNL     1       8.239   9.124  17.840  0.00  0.00    +0.000 C 
BRANCH  12  13
ATOM     13  C   UNL     1       7.599   7.801  17.882  0.00  0.00    +0.000 A 
ATOM     14  C   UNL     1       8.090   6.742  18.645  0.00  0.00    +0.000 A 
ATOM     15  C   UNL     1       7.445   5.510  18.619  0.00  0.00    +0.000 A 
ATOM     16  N   UNL     1       6.337   5.329  17.868  0.00  0.00    +0.000 N 
ATOM     17  C   UNL     1       5.699   4.005  17.790  0.00  0.00    +0.000 C 
ATOM     18  C   UNL     1       5.812   6.352  17.157  0.00  0.00    +0.000 A 
ATOM     19  C   UNL     1       6.424   7.600  17.154  0.00  0.00    +0.000 A 
ENDBRANCH  12  13
ENDBRANCH   4  11
TORSDOF 2
ENDMDL
MODEL 3
REMARK VINA RESULT:      -7.1      1.430      1.884
REMARK  Name = 
REMARK  4 active torsions:
REMARK  status: ('A' for Active; 'I' for Inactive)
REMARK    1  A    between atoms: C_1  and  N_2
REMARK    2  A    between atoms: C_4  and  C_5
REMARK    3  A    between atoms: C_6  and  C_7
REMARK    4  A    between atoms: N_10  and  C_11
REMARK                            x       y       z     vdW  Elec       q    Type
REMARK                         _______ _______ _______ _____ _____    ______ ____
ROOT
ATOM      1  C   UNL     1       4.706   3.879  16.779  0.00  0.00    +0.000 C 
ATOM      2  N   UNL     1       3.822   4.633  17.640  0.00  0.00    +0.000 N 
ATOM      3  C   UNL     1       3.643   5.989  17.578  0.00  0.00    +0.000 A 
ATOM      4  C   UNL     1       2.739   6.350  18.558  0.00  0.00    +0.000 A 
ATOM      5  C   UNL     1       2.354   5.150  19.241  0.00  0.00    +0.000 A 
ATOM      6  C   UNL     1       1.481   4.857  20.314  0.00  0.00    +0.000 A 
ATOM      7  C   UNL     1       1.329   3.535  20.748  0.00  0.00    +0.000 A 
ATOM      8  C   UNL     1       2.030   2.503  20.132  0.00  0.00    +0.000 A 
ATOM      9  C   UNL     1       2.899   2.761  19.070  0.00  0.00    +0.000 A 
ATOM     10  C   UNL     1       3.045   4.091  18.643  0.00  0.00    +0.000 A 
ENDROOT
BRANCH   4  11
ATOM     11  C   UNL     1       2.274   7.678  18.825  0.00  0.00    +0.000 C 
ATOM     12  C   UNL     1       1.814   8.547  17.907  0.00  0.00    +0.000 C 
BRANCH  12  13
ATOM     13  C   UNL     1       1.303   9.894  18.198  0.00  0.00    +0.000 A 
ATOM     14  C   UNL     1      -0.041  10.157  18.464  0.00  0.00    +0.000 A 
ATOM     15  C   UNL     1      -0.457  11.461  18.709  0.00  0.00    +0.000 A 
ATOM     16  N   UNL     1       0.430  12.480  18.704  0.00  0.00    +0.000 N 
ATOM     17  C   UNL     1      -0.027  13.866  18.895  0.00  0.00    +0.000 C 
ATOM     18  C   UNL     1       1.745  12.247  18.497  0.00  0.00    +0.000 A 
ATOM     19  C   UNL     1       2.205  10.959  18.248  0.00  0.00    +0.000 A 
ENDBRANCH  12  13
ENDBRANCH   4  11
TORSDOF 2
ENDMDL
MODEL 4
REMARK VINA RESULT:      -7.1      0.389      1.148
REMARK  Name = 
REMARK  4 active torsions:
REMARK  status: ('A' for Active; 'I' for Inactive)
REMARK    1  A    between atoms: C_1  and  N_2
REMARK    2  A    between atoms: C_4  and  C_5
REMARK    3  A    between atoms: C_6  and  C_7
REMARK    4  A    between atoms: N_10  and  C_11
REMARK                            x       y       z     vdW  Elec       q    Type
REMARK                         _______ _______ _______ _____ _____    ______ ____
ROOT
ATOM      1  C   UNL     1       6.214   5.962  16.555  0.00  0.00    +0.000 C 
ATOM      2  N   UNL     1       4.892   6.101  17.125  0.00  0.00    +0.000 N 
ATOM      3  C   UNL     1       4.340   7.287  17.532  0.00  0.00    +0.000 A 
ATOM      4  C   UNL     1       3.079   7.025  18.031  0.00  0.00    +0.000 A 
ATOM      5  C   UNL     1       2.863   5.613  17.916  0.00  0.00    +0.000 A 
ATOM      6  C   UNL     1       1.796   4.744  18.243  0.00  0.00    +0.000 A 
ATOM      7  C   UNL     1       1.913   3.372  17.991  0.00  0.00    +0.000 A 
ATOM      8  C   UNL     1       3.069   2.854  17.419  0.00  0.00    +0.000 A 
ATOM      9  C   UNL     1       4.139   3.686  17.085  0.00  0.00    +0.000 A 
ATOM     10  C   UNL     1       4.013   5.061  17.343  0.00  0.00    +0.000 A 
ENDROOT
BRANCH   4  11
ATOM     11  C   UNL     1       2.165   7.995  18.554  0.00  0.00    +0.000 C 
ATOM     12  C   UNL     1       1.573   8.976  17.848  0.00  0.00    +0.000 C 
BRANCH  12  13
ATOM     13  C   UNL     1       0.606   9.943  18.387  0.00  0.00    +0.000 A 
ATOM     14  C   UNL     1      -0.723  10.004  17.968  0.00  0.00    +0.000 A 
ATOM     15  C   UNL     1      -1.577  10.961  18.506  0.00  0.00    +0.000 A 
ATOM     16  N   UNL     1      -1.136  11.827  19.444  0.00  0.00    +0.000 N 
ATOM     17  C   UNL     1      -2.025  12.881  19.959  0.00  0.00    +0.000 C 
ATOM     18  C   UNL     1       0.133  11.758  19.904  0.00  0.00    +0.000 A 
ATOM     19  C   UNL     1       1.020  10.818  19.393  0.00  0.00    +0.000 A 
ENDBRANCH  12  13
ENDBRANCH   4  11
TORSDOF 2
ENDMDL
MODEL 5
REMARK VINA RESULT:      -7.1      1.698      1.849
REMARK  Name = 
REMARK  4 active torsions:
REMARK  status: ('A' for Active; 'I' for Inactive)
REMARK    1  A    between atoms: C_1  and  N_2
REMARK    2  A    between atoms: C_4  and  C_5
REMARK    3  A    between atoms: C_6  and  C_7
REMARK    4  A    between atoms: N_10  and  C_11
REMARK                            x       y       z     vdW  Elec       q    Type
REMARK                         _______ _______ _______ _____ _____    ______ ____
ROOT
ATOM      1  C   UNL     1       6.158   4.587  17.290  0.00  0.00    +0.000 C 
ATOM      2  N   UNL     1       4.830   4.937  17.746  0.00  0.00    +0.000 N 
ATOM      3  C   UNL     1       4.430   6.201  18.086  0.00  0.00    +0.000 A 
ATOM      4  C   UNL     1       3.109   6.143  18.482  0.00  0.00    +0.000 A 
ATOM      5  C   UNL     1       2.694   4.776  18.372  0.00  0.00    +0.000 A 
ATOM      6  C   UNL     1       1.487   4.083  18.624  0.00  0.00    +0.000 A 
ATOM      7  C   UNL     1       1.417   2.702  18.404  0.00  0.00    +0.000 A 
ATOM      8  C   UNL     1       2.526   2.003  17.939  0.00  0.00    +0.000 A 
ATOM      9  C   UNL     1       3.731   2.659  17.681  0.00  0.00    +0.000 A 
ATOM     10  C   UNL     1       3.791   4.044  17.906  0.00  0.00    +0.000 A 
ENDROOT
BRANCH   4  11
ATOM     11  C   UNL     1       2.310   7.252  18.911  0.00  0.00    +0.000 C 
ATOM     12  C   UNL     1       1.973   7.529  20.184  0.00  0.00    +0.000 C 
BRANCH  12  13
ATOM     13  C   UNL     1       1.185   8.691  20.617  0.00  0.00    +0.000 A 
ATOM     14  C   UNL     1       0.852   8.931  21.950  0.00  0.00    +0.000 A 
ATOM     15  C   UNL     1       0.083  10.041  22.285  0.00  0.00    +0.000 A 
ATOM     16  N   UNL     1      -0.337  10.900  21.331  0.00  0.00    +0.000 N 
ATOM     17  C   UNL     1      -1.208  12.033  21.683  0.00  0.00    +0.000 C 
ATOM     18  C   UNL     1       0.011  10.718  20.038  0.00  0.00    +0.000 A 
ATOM     19  C   UNL     1       0.778   9.622  19.659  0.00  0.00    +0.000 A 
ENDBRANCH  12  13
ENDBRANCH   4  11
TORSDOF 2
ENDMDL
MODEL 6
REMARK VINA RESULT:      -7.1      0.962      1.005
REMARK  Name = 
REMARK  4 active torsions:
REMARK  status: ('A' for Active; 'I' for Inactive)
REMARK    1  A    between atoms: C_1  and  N_2
REMARK    2  A    between atoms: C_4  and  C_5
REMARK    3  A    between atoms: C_6  and  C_7
REMARK    4  A    between atoms: N_10  and  C_11
REMARK                            x       y       z     vdW  Elec       q    Type
REMARK                         _______ _______ _______ _____ _____    ______ ____
ROOT
ATOM      1  C   UNL     1       5.666   4.270  16.625  0.00  0.00    +0.000 C 
ATOM      2  N   UNL     1       4.438   4.756  17.215  0.00  0.00    +0.000 N 
ATOM      3  C   UNL     1       4.125   6.078  17.385  0.00  0.00    +0.000 A 
ATOM      4  C   UNL     1       2.885   6.153  17.988  0.00  0.00    +0.000 A 
ATOM      5  C   UNL     1       2.429   4.809  18.186  0.00  0.00    +0.000 A 
ATOM      6  C   UNL     1       1.264   4.229  18.741  0.00  0.00    +0.000 A 
ATOM      7  C   UNL     1       1.131   2.836  18.782  0.00  0.00    +0.000 A 
ATOM      8  C   UNL     1       2.134   2.015  18.279  0.00  0.00    +0.000 A 
ATOM      9  C   UNL     1       3.295   2.557  17.724  0.00  0.00    +0.000 A 
ATOM     10  C   UNL     1       3.420   3.956  17.690  0.00  0.00    +0.000 A 
ENDROOT
BRANCH   4  11
ATOM     11  C   UNL     1       2.190   7.356  18.335  0.00  0.00    +0.000 C 
ATOM     12  C   UNL     1       2.415   8.573  17.805  0.00  0.00    +0.000 C 
BRANCH  12  13
ATOM     13  C   UNL     1       1.670   9.794  18.142  0.00  0.00    +0.000 A 
ATOM     14  C   UNL     1       2.280  11.037  18.307  0.00  0.00    +0.000 A 
ATOM     15  C   UNL     1       1.514  12.146  18.648  0.00  0.00    +0.000 A 
ATOM     16  N   UNL     1       0.178  12.037  18.809  0.00  0.00    +0.000 N 
ATOM     17  C   UNL     1      -0.618  13.200  19.237  0.00  0.00    +0.000 C 
ATOM     18  C   UNL     1      -0.446  10.855  18.606  0.00  0.00    +0.000 A 
ATOM     19  C   UNL     1       0.281   9.721  18.265  0.00  0.00    +0.000 A 
ENDBRANCH  12  13
ENDBRANCH   4  11
TORSDOF 2
ENDMDL
MODEL 7
REMARK VINA RESULT:      -7.1      2.536      3.420
REMARK  Name = 
REMARK  4 active torsions:
REMARK  status: ('A' for Active; 'I' for Inactive)
REMARK    1  A    between atoms: C_1  and  N_2
REMARK    2  A    between atoms: C_4  and  C_5
REMARK    3  A    between atoms: C_6  and  C_7
REMARK    4  A    between atoms: N_10  and  C_11
REMARK                            x       y       z     vdW  Elec       q    Type
REMARK                         _______ _______ _______ _____ _____    ______ ____
ROOT
ATOM      1  C   UNL     1       2.786   2.763  20.530  0.00  0.00    +0.000 C 
ATOM      2  N   UNL     1       2.776   4.146  20.109  0.00  0.00    +0.000 N 
ATOM      3  C   UNL     1       2.117   5.154  20.760  0.00  0.00    +0.000 A 
ATOM      4  C   UNL     1       2.326   6.327  20.061  0.00  0.00    +0.000 A 
ATOM      5  C   UNL     1       3.155   6.007  18.936  0.00  0.00    +0.000 A 
ATOM      6  C   UNL     1       3.708   6.752  17.868  0.00  0.00    +0.000 A 
ATOM      7  C   UNL     1       4.498   6.111  16.908  0.00  0.00    +0.000 A 
ATOM      8  C   UNL     1       4.748   4.746  16.993  0.00  0.00    +0.000 A 
ATOM      9  C   UNL     1       4.217   3.984  18.035  0.00  0.00    +0.000 A 
ATOM     10  C   UNL     1       3.423   4.636  18.994  0.00  0.00    +0.000 A 
ENDROOT
BRANCH   4  11
ATOM     11  C   UNL     1       1.813   7.617  20.411  0.00  0.00    +0.000 C 
ATOM     12  C   UNL     1       0.846   7.858  21.316  0.00  0.00    +0.000 C 
BRANCH  12  13
ATOM     13  C   UNL     1       0.354   9.190  21.695  0.00  0.00    +0.000 A 
ATOM     14  C   UNL     1      -0.473   9.410  22.796  0.00  0.00    +0.000 A 
ATOM     15  C   UNL     1      -0.919  10.696  23.083  0.00  0.00    +0.000 A 
ATOM     16  N   UNL     1      -0.549  11.740  22.311  0.00  0.00    +0.000 N 
ATOM     17  C   UNL     1      -1.080  13.087  22.579  0.00  0.00    +0.000 C 
ATOM     18  C   UNL     1       0.291  11.563  21.268  0.00  0.00    +0.000 A 
ATOM     19  C   UNL     1       0.760  10.295  20.945  0.00  0.00    +0.000 A 
ENDBRANCH  12  13
ENDBRANCH   4  11
TORSDOF 2
ENDMDL
MODEL 8
REMARK VINA RESULT:      -7.0      2.202      2.538
REMARK  Name = 
REMARK  4 active torsions:
REMARK  status: ('A' for Active; 'I' for Inactive)
REMARK    1  A    between atoms: C_1  and  N_2
REMARK    2  A    between atoms: C_4  and  C_5
REMARK    3  A    between atoms: C_6  and  C_7
REMARK    4  A    between atoms: N_10  and  C_11
REMARK                            x       y       z     vdW  Elec       q    Type
REMARK                         _______ _______ _______ _____ _____    ______ ____
ROOT
ATOM      1  C   UNL     1       4.500   5.286  17.131  0.00  0.00    +0.000 C 
ATOM      2  N   UNL     1       3.539   5.484  18.194  0.00  0.00    +0.000 N 
ATOM      3  C   UNL     1       3.223   6.697  18.743  0.00  0.00    +0.000 A 
ATOM      4  C   UNL     1       2.282   6.490  19.733  0.00  0.00    +0.000 A 
ATOM      5  C   UNL     1       2.018   5.082  19.777  0.00  0.00    +0.000 A 
ATOM      6  C   UNL     1       1.173   4.256  20.555  0.00  0.00    +0.000 A 
ATOM      7  C   UNL     1       1.155   2.874  20.335  0.00  0.00    +0.000 A 
ATOM      8  C   UNL     1       1.960   2.303  19.355  0.00  0.00    +0.000 A 
ATOM      9  C   UNL     1       2.804   3.092  18.571  0.00  0.00    +0.000 A 
ATOM     10  C   UNL     1       2.816   4.478  18.801  0.00  0.00    +0.000 A 
ENDROOT
BRANCH   4  11
ATOM     11  C   UNL     1       1.683   7.503  20.548  0.00  0.00    +0.000 C 
ATOM     12  C   UNL     1       1.213   8.686  20.111  0.00  0.00    +0.000 C 
BRANCH  12  13
ATOM     13  C   UNL     1       0.565   9.703  20.951  0.00  0.00    +0.000 A 
ATOM     14  C   UNL     1      -0.012   9.413  22.187  0.00  0.00    +0.000 A 
ATOM     15  C   UNL     1      -0.629  10.422  22.919  0.00  0.00    +0.000 A 
ATOM     16  N   UNL     1      -0.666  11.688  22.450  0.00  0.00    +0.000 N 
ATOM     17  C   UNL     1      -1.380  12.738  23.196  0.00  0.00    +0.000 C 
ATOM     18  C   UNL     1      -0.072  12.006  21.279  0.00  0.00    +0.000 A 
ATOM     19  C   UNL     1       0.556  11.029  20.515  0.00  0.00    +0.000 A 
ENDBRANCH  12  13
ENDBRANCH   4  11
TORSDOF 2
ENDMDL
MODEL 9
REMARK VINA RESULT:      -7.0      1.200      2.623
REMARK  Name = 
REMARK  4 active torsions:
REMARK  status: ('A' for Active; 'I' for Inactive)
REMARK    1  A    between atoms: C_1  and  N_2
REMARK    2  A    between atoms: C_4  and  C_5
REMARK    3  A    between atoms: C_6  and  C_7
REMARK    4  A    between atoms: N_10  and  C_11
REMARK                            x       y       z     vdW  Elec       q    Type
REMARK                         _______ _______ _______ _____ _____    ______ ____
ROOT
ATOM      1  C   UNL     1       2.492   2.676  17.578  0.00  0.00    +0.000 C 
ATOM      2  N   UNL     1       2.897   4.062  17.650  0.00  0.00    +0.000 N 
ATOM      3  C   UNL     1       2.152   5.064  18.214  0.00  0.00    +0.000 A 
ATOM      4  C   UNL     1       2.853   6.246  18.085  0.00  0.00    +0.000 A 
ATOM      5  C   UNL     1       4.081   5.940  17.413  0.00  0.00    +0.000 A 
ATOM      6  C   UNL     1       5.199   6.698  16.995  0.00  0.00    +0.000 A 
ATOM      7  C   UNL     1       6.266   6.068  16.344  0.00  0.00    +0.000 A 
ATOM      8  C   UNL     1       6.238   4.698  16.104  0.00  0.00    +0.000 A 
ATOM      9  C   UNL     1       5.148   3.922  16.504  0.00  0.00    +0.000 A 
ATOM     10  C   UNL     1       4.082   4.565  17.156  0.00  0.00    +0.000 A 
ENDROOT
BRANCH   4  11
ATOM     11  C   UNL     1       2.426   7.532  18.550  0.00  0.00    +0.000 C 
ATOM     12  C   UNL     1       2.064   8.568  17.770  0.00  0.00    +0.000 C 
BRANCH  12  13
ATOM     13  C   UNL     1       1.590   9.870  18.258  0.00  0.00    +0.000 A 
ATOM     14  C   UNL     1       2.281  11.062  18.040  0.00  0.00    +0.000 A 
ATOM     15  C   UNL     1       1.784  12.256  18.551  0.00  0.00    +0.000 A 
ATOM     16  N   UNL     1       0.629  12.277  19.251  0.00  0.00    +0.000 N 
ATOM     17  C   UNL     1       0.144  13.532  19.848  0.00  0.00    +0.000 C 
ATOM     18  C   UNL     1      -0.086  11.145  19.435  0.00  0.00    +0.000 A 
ATOM     19  C   UNL     1       0.374   9.930  18.942  0.00  0.00    +0.000 A 
ENDBRANCH  12  13
ENDBRANCH   4  11
TORSDOF 2
ENDMDL
