MODEL 1
REMARK VINA RESULT:      -7.8      0.000      0.000
REMARK  Name = 
REMARK  10 active torsions:
REMARK  status: ('A' for Active; 'I' for Inactive)
REMARK    1  A    between atoms: C_1  and  C_2
REMARK    2  A    between atoms: C_2  and  C_3
REMARK    3  A    between atoms: C_2  and  C_4
REMARK    4  A    between atoms: C_2  and  C_5
REMARK    5  A    between atoms: C_5  and  O_7
REMARK    6  A    between atoms: O_7  and  C_8
REMARK    7  A    between atoms: C_8  and  C_9
REMARK    8  A    between atoms: C_9  and  C_10
REMARK    9  A    between atoms: C_10  and  O_11
REMARK   10  A    between atoms: C_14  and  C_15
REMARK                            x       y       z     vdW  Elec       q    Type
REMARK                         _______ _______ _______ _____ _____    ______ ____
ROOT
ATOM      1  C   UNL     1       3.827   5.828  17.759  0.00  0.00    +0.000 C 
ATOM      2  C   UNL     1       4.468   5.155  16.551  0.00  0.00    +0.000 C 
ATOM      3  C   UNL     1       5.872   4.965  16.989  0.00  0.00    +0.000 C 
ATOM      4  C   UNL     1       6.980   4.750  16.263  0.00  0.00    +0.000 C 
ATOM      5  C   UNL     1       5.924   5.123  18.452  0.00  0.00    +0.000 C 
ATOM      6  O   UNL     1       6.887   4.929  19.169  0.00  0.00    +0.000 OA
ATOM      7  O   UNL     1       4.702   5.544  18.876  0.00  0.00    +0.000 OA
ENDROOT
BRANCH   4   8
ATOM      8  C   UNL     1       6.987   4.651  14.799  0.00  0.00    +0.000 A 
ATOM      9  C   UNL     1       6.174   3.731  14.150  0.00  0.00    +0.000 A 
ATOM     10  C   UNL     1       6.269   3.619  12.765  0.00  0.00    +0.000 A 
ATOM     11  C   UNL     1       7.154   4.436  12.072  0.00  0.00    +0.000 A 
ATOM     12  C   UNL     1       7.905   5.343  12.795  0.00  0.00    +0.000 A 
ATOM     13  N   UNL     1       7.837   5.469  14.135  0.00  0.00    +0.000 NA
ENDBRANCH   4   8
BRANCH   1  14
ATOM     14  C   UNL     1       2.446   5.216  18.042  0.00  0.00    +0.000 C 
BRANCH  14  15
ATOM     15  O   UNL     1       2.556   3.806  18.320  0.00  0.00    +0.000 OA
BRANCH  15  16
ATOM     16  C   UNL     1       1.665   3.294  19.216  0.00  0.00    +0.000 C 
ATOM     17  O   UNL     1       0.534   2.927  18.918  0.00  0.00    +0.000 OA
BRANCH  16  19
ATOM     18  C   UNL     1       2.281   4.724  21.155  0.00  0.00    +0.000 C 
ATOM     19  C   UNL     1       2.231   3.276  20.636  0.00  0.00    +0.000 C 
ATOM     20  C   UNL     1       3.654   2.703  20.618  0.00  0.00    +0.000 C 
ATOM     21  C   UNL     1       1.332   2.444  21.559  0.00  0.00    +0.000 C 
ENDBRANCH  16  19
ENDBRANCH  15  16
ENDBRANCH  14  15
ENDBRANCH   1  14
BRANCH   1  22
ATOM     22  C   UNL     1       3.716   7.357  17.588  0.00  0.00    +0.000 C 
BRANCH  22  23
ATOM     23  O   UNL     1       2.399   7.832  17.861  0.00  0.00    +0.000 OA
ATOM     24  H   UNL     1       2.458   8.803  17.940  0.00  0.00    +0.000 HD
ENDBRANCH  22  23
ENDBRANCH   1  22
TORSDOF 7
ENDMDL
MODEL 2
REMARK VINA RESULT:      -7.7      0.780      1.083
REMARK  Name = 
REMARK  10 active torsions:
REMARK  status: ('A' for Active; 'I' for Inactive)
REMARK    1  A    between atoms: C_1  and  C_2
REMARK    2  A    between atoms: C_2  and  C_3
REMARK    3  A    between atoms: C_2  and  C_4
REMARK    4  A    between atoms: C_2  and  C_5
REMARK    5  A    between atoms: C_5  and  O_7
REMARK    6  A    between atoms: O_7  and  C_8
REMARK    7  A    between atoms: C_8  and  C_9
REMARK    8  A    between atoms: C_9  and  C_10
REMARK    9  A    between atoms: C_10  and  O_11
REMARK   10  A    between atoms: C_14  and  C_15
REMARK                            x       y       z     vdW  Elec       q    Type
REMARK                         _______ _______ _______ _____ _____    ______ ____
ROOT
ATOM      1  C   UNL     1       3.833   6.183  17.817  0.00  0.00    +0.000 C 
ATOM      2  C   UNL     1       4.406   5.439  16.617  0.00  0.00    +0.000 C 
ATOM      3  C   UNL     1       5.749   5.029  17.097  0.00  0.00    +0.000 C 
ATOM      4  C   UNL     1       6.836   4.658  16.402  0.00  0.00    +0.000 C 
ATOM      5  C   UNL     1       5.771   5.154  18.563  0.00  0.00    +0.000 C 
ATOM      6  O   UNL     1       6.668   4.803  19.307  0.00  0.00    +0.000 OA
ATOM      7  O   UNL     1       4.614   5.750  18.956  0.00  0.00    +0.000 OA
ENDROOT
BRANCH   4   8
ATOM      8  C   UNL     1       6.879   4.584  14.938  0.00  0.00    +0.000 A 
ATOM      9  C   UNL     1       6.057   3.698  14.252  0.00  0.00    +0.000 A 
ATOM     10  C   UNL     1       6.187   3.606  12.868  0.00  0.00    +0.000 A 
ATOM     11  C   UNL     1       7.115   4.408  12.213  0.00  0.00    +0.000 A 
ATOM     12  C   UNL     1       7.872   5.280  12.971  0.00  0.00    +0.000 A 
ATOM     13  N   UNL     1       7.771   5.386  14.311  0.00  0.00    +0.000 NA
ENDBRANCH   4   8
BRANCH   1  14
ATOM     14  C   UNL     1       2.365   5.785  18.042  0.00  0.00    +0.000 C 
BRANCH  14  15
ATOM     15  O   UNL     1       2.267   4.426  18.512  0.00  0.00    +0.000 OA
BRANCH  15  16
ATOM     16  C   UNL     1       1.933   4.262  19.823  0.00  0.00    +0.000 C 
ATOM     17  O   UNL     1       1.531   5.170  20.543  0.00  0.00    +0.000 OA
BRANCH  16  19
ATOM     18  C   UNL     1       3.677   2.562  20.324  0.00  0.00    +0.000 C 
ATOM     19  C   UNL     1       2.161   2.826  20.295  0.00  0.00    +0.000 C 
ATOM     20  C   UNL     1       1.502   1.849  19.313  0.00  0.00    +0.000 C 
ATOM     21  C   UNL     1       1.592   2.630  21.706  0.00  0.00    +0.000 C 
ENDBRANCH  16  19
ENDBRANCH  15  16
ENDBRANCH  14  15
ENDBRANCH   1  14
BRANCH   1  22
ATOM     22  C   UNL     1       3.962   7.713  17.675  0.00  0.00    +0.000 C 
BRANCH  22  23
ATOM     23  O   UNL     1       2.691   8.358  17.649  0.00  0.00    +0.000 OA
ATOM     24  H   UNL     1       2.772   9.170  18.183  0.00  0.00    +0.000 HD
ENDBRANCH  22  23
ENDBRANCH   1  22
TORSDOF 7
ENDMDL
MODEL 3
REMARK VINA RESULT:      -7.4      0.442      1.021
REMARK  Name = 
REMARK  10 active torsions:
REMARK  status: ('A' for Active; 'I' for Inactive)
REMARK    1  A    between atoms: C_1  and  C_2
REMARK    2  A    between atoms: C_2  and  C_3
REMARK    3  A    between atoms: C_2  and  C_4
REMARK    4  A    between atoms: C_2  and  C_5
REMARK    5  A    between atoms: C_5  and  O_7
REMARK    6  A    between atoms: O_7  and  C_8
REMARK    7  A    between atoms: C_8  and  C_9
REMARK    8  A    between atoms: C_9  and  C_10
REMARK    9  A    between atoms: C_10  and  O_11
REMARK   10  A    between atoms: C_14  and  C_15
REMARK                            x       y       z     vdW  Elec       q    Type
REMARK                         _______ _______ _______ _____ _____    ______ ____
ROOT
ATOM      1  C   UNL     1       3.639   5.734  17.625  0.00  0.00    +0.000 C 
ATOM      2  C   UNL     1       4.332   5.106  16.421  0.00  0.00    +0.000 C 
ATOM      3  C   UNL     1       5.689   4.811  16.943  0.00  0.00    +0.000 C 
ATOM      4  C   UNL     1       6.834   4.582  16.282  0.00  0.00    +0.000 C 
ATOM      5  C   UNL     1       5.640   4.871  18.413  0.00  0.00    +0.000 C 
ATOM      6  O   UNL     1       6.537   4.578  19.180  0.00  0.00    +0.000 OA
ATOM      7  O   UNL     1       4.414   5.330  18.777  0.00  0.00    +0.000 OA
ENDROOT
BRANCH   4   8
ATOM      8  C   UNL     1       6.944   4.578  14.820  0.00  0.00    +0.000 A 
ATOM      9  C   UNL     1       6.147   3.735  14.054  0.00  0.00    +0.000 A 
ATOM     10  C   UNL     1       6.339   3.709  12.675  0.00  0.00    +0.000 A 
ATOM     11  C   UNL     1       7.301   4.533  12.103  0.00  0.00    +0.000 A 
ATOM     12  C   UNL     1       8.029   5.360  12.935  0.00  0.00    +0.000 A 
ATOM     13  N   UNL     1       7.869   5.402  14.273  0.00  0.00    +0.000 NA
ENDBRANCH   4   8
BRANCH   1  14
ATOM     14  C   UNL     1       2.211   5.182  17.767  0.00  0.00    +0.000 C 
BRANCH  14  15
ATOM     15  O   UNL     1       1.897   4.920  19.149  0.00  0.00    +0.000 OA
BRANCH  15  16
ATOM     16  C   UNL     1       1.675   3.617  19.483  0.00  0.00    +0.000 C 
ATOM     17  O   UNL     1       1.017   2.841  18.798  0.00  0.00    +0.000 OA
BRANCH  16  19
ATOM     18  C   UNL     1       3.583   2.445  20.562  0.00  0.00    +0.000 C 
ATOM     19  C   UNL     1       2.305   3.258  20.829  0.00  0.00    +0.000 C 
ATOM     20  C   UNL     1       1.328   2.401  21.644  0.00  0.00    +0.000 C 
ATOM     21  C   UNL     1       2.673   4.530  21.603  0.00  0.00    +0.000 C 
ENDBRANCH  16  19
ENDBRANCH  15  16
ENDBRANCH  14  15
ENDBRANCH   1  14
BRANCH   1  22
ATOM     22  C   UNL     1       3.618   7.274  17.551  0.00  0.00    +0.000 C 
BRANCH  22  23
ATOM     23  O   UNL     1       2.498   7.829  18.238  0.00  0.00    +0.000 OA
ATOM     24  H   UNL     1       2.124   8.521  17.662  0.00  0.00    +0.000 HD
ENDBRANCH  22  23
ENDBRANCH   1  22
TORSDOF 7
ENDMDL
MODEL 4
REMARK VINA RESULT:      -7.3      3.031      5.554
REMARK  Name = 
REMARK  10 active torsions:
REMARK  status: ('A' for Active; 'I' for Inactive)
REMARK    1  A    between atoms: C_1  and  C_2
REMARK    2  A    between atoms: C_2  and  C_3
REMARK    3  A    between atoms: C_2  and  C_4
REMARK    4  A    between atoms: C_2  and  C_5
REMARK    5  A    between atoms: C_5  and  O_7
REMARK    6  A    between atoms: O_7  and  C_8
REMARK    7  A    between atoms: C_8  and  C_9
REMARK    8  A    between atoms: C_9  and  C_10
REMARK    9  A    between atoms: C_10  and  O_11
REMARK   10  A    between atoms: C_14  and  C_15
REMARK                            x       y       z     vdW  Elec       q    Type
REMARK                         _______ _______ _______ _____ _____    ______ ____
ROOT
ATOM      1  C   UNL     1       4.953   4.917  18.221  0.00  0.00    +0.000 C 
ATOM      2  C   UNL     1       3.683   5.736  18.415  0.00  0.00    +0.000 C 
ATOM      3  C   UNL     1       3.835   6.818  17.412  0.00  0.00    +0.000 C 
ATOM      4  C   UNL     1       3.231   8.014  17.336  0.00  0.00    +0.000 C 
ATOM      5  C   UNL     1       4.877   6.414  16.453  0.00  0.00    +0.000 C 
ATOM      6  O   UNL     1       5.192   7.001  15.435  0.00  0.00    +0.000 OA
ATOM      7  O   UNL     1       5.448   5.267  16.907  0.00  0.00    +0.000 OA
ENDROOT
BRANCH   4   8
ATOM      8  C   UNL     1       2.236   8.486  18.306  0.00  0.00    +0.000 A 
ATOM      9  C   UNL     1       1.348   9.500  17.969  0.00  0.00    +0.000 A 
ATOM     10  C   UNL     1       0.471   9.969  18.945  0.00  0.00    +0.000 A 
ATOM     11  C   UNL     1       0.497   9.403  20.215  0.00  0.00    +0.000 A 
ATOM     12  C   UNL     1       1.394   8.381  20.455  0.00  0.00    +0.000 A 
ATOM     13  N   UNL     1       2.256   7.911  19.531  0.00  0.00    +0.000 NA
ENDBRANCH   4   8
BRANCH   1  14
ATOM     14  C   UNL     1       4.629   3.414  18.246  0.00  0.00    +0.000 C 
BRANCH  14  15
ATOM     15  O   UNL     1       3.291   3.185  18.728  0.00  0.00    +0.000 OA
BRANCH  15  16
ATOM     16  C   UNL     1       3.172   2.840  20.042  0.00  0.00    +0.000 C 
ATOM     17  O   UNL     1       4.059   2.290  20.685  0.00  0.00    +0.000 OA
BRANCH  16  19
ATOM     18  C   UNL     1       0.738   2.820  19.534  0.00  0.00    +0.000 C 
ATOM     19  C   UNL     1       1.789   3.181  20.598  0.00  0.00    +0.000 C 
ATOM     20  C   UNL     1       1.707   4.684  20.893  0.00  0.00    +0.000 C 
ATOM     21  C   UNL     1       1.512   2.371  21.871  0.00  0.00    +0.000 C 
ENDBRANCH  16  19
ENDBRANCH  15  16
ENDBRANCH  14  15
ENDBRANCH   1  14
BRANCH   1  22
ATOM     22  C   UNL     1       6.033   5.254  19.268  0.00  0.00    +0.000 C 
BRANCH  22  23
ATOM     23  O   UNL     1       7.327   4.805  18.868  0.00  0.00    +0.000 OA
ATOM     24  H   UNL     1       7.573   4.076  19.467  0.00  0.00    +0.000 HD
ENDBRANCH  22  23
ENDBRANCH   1  22
TORSDOF 7
ENDMDL
MODEL 5
REMARK VINA RESULT:      -7.3      1.699      2.388
REMARK  Name = 
REMARK  10 active torsions:
REMARK  status: ('A' for Active; 'I' for Inactive)
REMARK    1  A    between atoms: C_1  and  C_2
REMARK    2  A    between atoms: C_2  and  C_3
REMARK    3  A    between atoms: C_2  and  C_4
REMARK    4  A    between atoms: C_2  and  C_5
REMARK    5  A    between atoms: C_5  and  O_7
REMARK    6  A    between atoms: O_7  and  C_8
REMARK    7  A    between atoms: C_8  and  C_9
REMARK    8  A    between atoms: C_9  and  C_10
REMARK    9  A    between atoms: C_10  and  O_11
REMARK   10  A    between atoms: C_14  and  C_15
REMARK                            x       y       z     vdW  Elec       q    Type
REMARK                         _______ _______ _______ _____ _____    ______ ____
ROOT
ATOM      1  C   UNL     1       4.961   4.573  17.378  0.00  0.00    +0.000 C 
ATOM      2  C   UNL     1       5.331   3.851  16.087  0.00  0.00    +0.000 C 
ATOM      3  C   UNL     1       6.303   4.781  15.461  0.00  0.00    +0.000 C 
ATOM      4  C   UNL     1       6.710   4.871  14.185  0.00  0.00    +0.000 C 
ATOM      5  C   UNL     1       6.762   5.729  16.489  0.00  0.00    +0.000 C 
ATOM      6  O   UNL     1       7.640   6.563  16.366  0.00  0.00    +0.000 OA
ATOM      7  O   UNL     1       6.023   5.527  17.612  0.00  0.00    +0.000 OA
ENDROOT
BRANCH   4   8
ATOM      8  C   UNL     1       6.229   3.991  13.114  0.00  0.00    +0.000 A 
ATOM      9  C   UNL     1       4.892   4.002  12.738  0.00  0.00    +0.000 A 
ATOM     10  C   UNL     1       4.464   3.096  11.770  0.00  0.00    +0.000 A 
ATOM     11  C   UNL     1       5.383   2.224  11.198  0.00  0.00    +0.000 A 
ATOM     12  C   UNL     1       6.699   2.299  11.612  0.00  0.00    +0.000 A 
ATOM     13  N   UNL     1       7.138   3.162  12.549  0.00  0.00    +0.000 NA
ENDBRANCH   4   8
BRANCH   1  14
ATOM     14  C   UNL     1       4.917   3.580  18.551  0.00  0.00    +0.000 C 
BRANCH  14  15
ATOM     15  O   UNL     1       4.063   4.067  19.604  0.00  0.00    +0.000 OA
BRANCH  15  16
ATOM     16  C   UNL     1       3.398   3.123  20.329  0.00  0.00    +0.000 C 
ATOM     17  O   UNL     1       3.932   2.125  20.800  0.00  0.00    +0.000 OA
BRANCH  16  19
ATOM     18  C   UNL     1       1.211   2.958  19.157  0.00  0.00    +0.000 C 
ATOM     19  C   UNL     1       1.906   3.438  20.443  0.00  0.00    +0.000 C 
ATOM     20  C   UNL     1       1.707   4.952  20.584  0.00  0.00    +0.000 C 
ATOM     21  C   UNL     1       1.296   2.706  21.645  0.00  0.00    +0.000 C 
ENDBRANCH  16  19
ENDBRANCH  15  16
ENDBRANCH  14  15
ENDBRANCH   1  14
BRANCH   1  22
ATOM     22  C   UNL     1       3.624   5.331  17.262  0.00  0.00    +0.000 C 
BRANCH  22  23
ATOM     23  O   UNL     1       3.619   6.531  18.034  0.00  0.00    +0.000 OA
ATOM     24  H   UNL     1       2.760   6.966  17.878  0.00  0.00    +0.000 HD
ENDBRANCH  22  23
ENDBRANCH   1  22
TORSDOF 7
ENDMDL
MODEL 6
REMARK VINA RESULT:      -7.3      1.668      2.325
REMARK  Name = 
REMARK  10 active torsions:
REMARK  status: ('A' for Active; 'I' for Inactive)
REMARK    1  A    between atoms: C_1  and  C_2
REMARK    2  A    between atoms: C_2  and  C_3
REMARK    3  A    between atoms: C_2  and  C_4
REMARK    4  A    between atoms: C_2  and  C_5
REMARK    5  A    between atoms: C_5  and  O_7
REMARK    6  A    between atoms: O_7  and  C_8
REMARK    7  A    between atoms: C_8  and  C_9
REMARK    8  A    between atoms: C_9  and  C_10
REMARK    9  A    between atoms: C_10  and  O_11
REMARK   10  A    between atoms: C_14  and  C_15
REMARK                            x       y       z     vdW  Elec       q    Type
REMARK                         _______ _______ _______ _____ _____    ______ ____
ROOT
ATOM      1  C   UNL     1       5.130   4.692  17.507  0.00  0.00    +0.000 C 
ATOM      2  C   UNL     1       5.486   3.937  16.232  0.00  0.00    +0.000 C 
ATOM      3  C   UNL     1       6.409   4.873  15.544  0.00  0.00    +0.000 C 
ATOM      4  C   UNL     1       6.776   4.929  14.255  0.00  0.00    +0.000 C 
ATOM      5  C   UNL     1       6.868   5.871  16.525  0.00  0.00    +0.000 C 
ATOM      6  O   UNL     1       7.715   6.726  16.347  0.00  0.00    +0.000 OA
ATOM      7  O   UNL     1       6.167   5.687  17.675  0.00  0.00    +0.000 OA
ENDROOT
BRANCH   4   8
ATOM      8  C   UNL     1       6.293   3.997  13.230  0.00  0.00    +0.000 A 
ATOM      9  C   UNL     1       7.186   3.208  12.516  0.00  0.00    +0.000 A 
ATOM     10  C   UNL     1       6.690   2.394  11.500  0.00  0.00    +0.000 A 
ATOM     11  C   UNL     1       5.325   2.380  11.241  0.00  0.00    +0.000 A 
ATOM     12  C   UNL     1       4.505   3.176  12.017  0.00  0.00    +0.000 A 
ATOM     13  N   UNL     1       4.958   3.977  13.003  0.00  0.00    +0.000 NA
ENDBRANCH   4   8
BRANCH   1  14
ATOM     14  C   UNL     1       5.152   3.741  18.715  0.00  0.00    +0.000 C 
BRANCH  14  15
ATOM     15  O   UNL     1       3.994   3.943  19.548  0.00  0.00    +0.000 OA
BRANCH  15  16
ATOM     16  C   UNL     1       3.128   2.894  19.644  0.00  0.00    +0.000 C 
ATOM     17  O   UNL     1       3.370   1.769  19.220  0.00  0.00    +0.000 OA
BRANCH  16  19
ATOM     18  C   UNL     1       1.820   4.827  20.502  0.00  0.00    +0.000 C 
ATOM     19  C   UNL     1       1.809   3.302  20.301  0.00  0.00    +0.000 C 
ATOM     20  C   UNL     1       1.679   2.618  21.668  0.00  0.00    +0.000 C 
ATOM     21  C   UNL     1       0.625   2.924  19.401  0.00  0.00    +0.000 C 
ENDBRANCH  16  19
ENDBRANCH  15  16
ENDBRANCH  14  15
ENDBRANCH   1  14
BRANCH   1  22
ATOM     22  C   UNL     1       3.767   5.405  17.405  0.00  0.00    +0.000 C 
BRANCH  22  23
ATOM     23  O   UNL     1       3.759   6.650  18.101  0.00  0.00    +0.000 OA
ATOM     24  H   UNL     1       3.251   6.514  18.922  0.00  0.00    +0.000 HD
ENDBRANCH  22  23
ENDBRANCH   1  22
TORSDOF 7
ENDMDL
MODEL 7
REMARK VINA RESULT:      -7.3      0.858      1.038
REMARK  Name = 
REMARK  10 active torsions:
REMARK  status: ('A' for Active; 'I' for Inactive)
REMARK    1  A    between atoms: C_1  and  C_2
REMARK    2  A    between atoms: C_2  and  C_3
REMARK    3  A    between atoms: C_2  and  C_4
REMARK    4  A    between atoms: C_2  and  C_5
REMARK    5  A    between atoms: C_5  and  O_7
REMARK    6  A    between atoms: O_7  and  C_8
REMARK    7  A    between atoms: C_8  and  C_9
REMARK    8  A    between atoms: C_9  and  C_10
REMARK    9  A    between atoms: C_10  and  O_11
REMARK   10  A    between atoms: C_14  and  C_15
REMARK                            x       y       z     vdW  Elec       q    Type
REMARK                         _______ _______ _______ _____ _____    ______ ____
ROOT
ATOM      1  C   UNL     1       3.943   6.425  17.805  0.00  0.00    +0.000 C 
ATOM      2  C   UNL     1       4.461   5.635  16.609  0.00  0.00    +0.000 C 
ATOM      3  C   UNL     1       5.758   5.110  17.101  0.00  0.00    +0.000 C 
ATOM      4  C   UNL     1       6.815   4.647  16.416  0.00  0.00    +0.000 C 
ATOM      5  C   UNL     1       5.778   5.233  18.567  0.00  0.00    +0.000 C 
ATOM      6  O   UNL     1       6.634   4.805  19.319  0.00  0.00    +0.000 OA
ATOM      7  O   UNL     1       4.673   5.926  18.950  0.00  0.00    +0.000 OA
ENDROOT
BRANCH   4   8
ATOM      8  C   UNL     1       6.866   4.569  14.952  0.00  0.00    +0.000 A 
ATOM      9  C   UNL     1       6.052   3.677  14.264  0.00  0.00    +0.000 A 
ATOM     10  C   UNL     1       6.188   3.583  12.881  0.00  0.00    +0.000 A 
ATOM     11  C   UNL     1       7.114   4.388  12.229  0.00  0.00    +0.000 A 
ATOM     12  C   UNL     1       7.863   5.267  12.987  0.00  0.00    +0.000 A 
ATOM     13  N   UNL     1       7.756   5.375  14.327  0.00  0.00    +0.000 NA
ENDBRANCH   4   8
BRANCH   1  14
ATOM     14  C   UNL     1       2.444   6.156  18.015  0.00  0.00    +0.000 C 
BRANCH  14  15
ATOM     15  O   UNL     1       2.242   5.077  18.948  0.00  0.00    +0.000 OA
BRANCH  15  16
ATOM     16  C   UNL     1       1.674   3.942  18.448  0.00  0.00    +0.000 C 
ATOM     17  O   UNL     1       1.138   3.877  17.347  0.00  0.00    +0.000 OA
BRANCH  16  19
ATOM     18  C   UNL     1       1.269   3.289  20.813  0.00  0.00    +0.000 C 
ATOM     19  C   UNL     1       1.748   2.782  19.441  0.00  0.00    +0.000 C 
ATOM     20  C   UNL     1       3.199   2.299  19.565  0.00  0.00    +0.000 C 
ATOM     21  C   UNL     1       0.840   1.632  18.987  0.00  0.00    +0.000 C 
ENDBRANCH  16  19
ENDBRANCH  15  16
ENDBRANCH  14  15
ENDBRANCH   1  14
BRANCH   1  22
ATOM     22  C   UNL     1       4.206   7.938  17.665  0.00  0.00    +0.000 C 
BRANCH  22  23
ATOM     23  O   UNL     1       3.017   8.708  17.843  0.00  0.00    +0.000 OA
ATOM     24  H   UNL     1       2.385   8.417  17.159  0.00  0.00    +0.000 HD
ENDBRANCH  22  23
ENDBRANCH   1  22
TORSDOF 7
ENDMDL
MODEL 8
REMARK VINA RESULT:      -7.2      1.693      2.410
REMARK  Name = 
REMARK  10 active torsions:
REMARK  status: ('A' for Active; 'I' for Inactive)
REMARK    1  A    between atoms: C_1  and  C_2
REMARK    2  A    between atoms: C_2  and  C_3
REMARK    3  A    between atoms: C_2  and  C_4
REMARK    4  A    between atoms: C_2  and  C_5
REMARK    5  A    between atoms: C_5  and  O_7
REMARK    6  A    between atoms: O_7  and  C_8
REMARK    7  A    between atoms: C_8  and  C_9
REMARK    8  A    between atoms: C_9  and  C_10
REMARK    9  A    between atoms: C_10  and  O_11
REMARK   10  A    between atoms: C_14  and  C_15
REMARK                            x       y       z     vdW  Elec       q    Type
REMARK                         _______ _______ _______ _____ _____    ______ ____
ROOT
ATOM      1  C   UNL     1       5.044   4.668  17.549  0.00  0.00    +0.000 C 
ATOM      2  C   UNL     1       5.409   3.924  16.270  0.00  0.00    +0.000 C 
ATOM      3  C   UNL     1       6.359   4.853  15.612  0.00  0.00    +0.000 C 
ATOM      4  C   UNL     1       6.749   4.921  14.329  0.00  0.00    +0.000 C 
ATOM      5  C   UNL     1       6.817   5.830  16.614  0.00  0.00    +0.000 C 
ATOM      6  O   UNL     1       7.681   6.673  16.462  0.00  0.00    +0.000 OA
ATOM      7  O   UNL     1       6.094   5.642  17.750  0.00  0.00    +0.000 OA
ENDROOT
BRANCH   4   8
ATOM      8  C   UNL     1       6.268   4.012  13.284  0.00  0.00    +0.000 A 
ATOM      9  C   UNL     1       7.165   3.261  12.534  0.00  0.00    +0.000 A 
ATOM     10  C   UNL     1       6.670   2.469  11.500  0.00  0.00    +0.000 A 
ATOM     11  C   UNL     1       5.301   2.437  11.260  0.00  0.00    +0.000 A 
ATOM     12  C   UNL     1       4.479   3.194  12.072  0.00  0.00    +0.000 A 
ATOM     13  N   UNL     1       4.931   3.973  13.075  0.00  0.00    +0.000 NA
ENDBRANCH   4   8
BRANCH   1  14
ATOM     14  C   UNL     1       5.029   3.700  18.745  0.00  0.00    +0.000 C 
BRANCH  14  15
ATOM     15  O   UNL     1       3.720   3.127  18.925  0.00  0.00    +0.000 OA
BRANCH  15  16
ATOM     16  C   UNL     1       3.349   2.855  20.209  0.00  0.00    +0.000 C 
ATOM     17  O   UNL     1       4.075   2.294  21.023  0.00  0.00    +0.000 OA
BRANCH  16  19
ATOM     18  C   UNL     1       1.032   2.855  19.308  0.00  0.00    +0.000 C 
ATOM     19  C   UNL     1       1.912   3.292  20.492  0.00  0.00    +0.000 C 
ATOM     20  C   UNL     1       1.853   4.818  20.624  0.00  0.00    +0.000 C 
ATOM     21  C   UNL     1       1.394   2.625  21.773  0.00  0.00    +0.000 C 
ENDBRANCH  16  19
ENDBRANCH  15  16
ENDBRANCH  14  15
ENDBRANCH   1  14
BRANCH   1  22
ATOM     22  C   UNL     1       3.694   5.404  17.434  0.00  0.00    +0.000 C 
BRANCH  22  23
ATOM     23  O   UNL     1       3.691   6.635  18.156  0.00  0.00    +0.000 OA
ATOM     24  H   UNL     1       3.453   6.424  19.078  0.00  0.00    +0.000 HD
ENDBRANCH  22  23
ENDBRANCH   1  22
TORSDOF 7
ENDMDL
MODEL 9
REMARK VINA RESULT:      -7.2      3.095      5.603
REMARK  Name = 
REMARK  10 active torsions:
REMARK  status: ('A' for Active; 'I' for Inactive)
REMARK    1  A    between atoms: C_1  and  C_2
REMARK    2  A    between atoms: C_2  and  C_3
REMARK    3  A    between atoms: C_2  and  C_4
REMARK    4  A    between atoms: C_2  and  C_5
REMARK    5  A    between atoms: C_5  and  O_7
REMARK    6  A    between atoms: O_7  and  C_8
REMARK    7  A    between atoms: C_8  and  C_9
REMARK    8  A    between atoms: C_9  and  C_10
REMARK    9  A    between atoms: C_10  and  O_11
REMARK   10  A    between atoms: C_14  and  C_15
REMARK                            x       y       z     vdW  Elec       q    Type
REMARK                         _______ _______ _______ _____ _____    ______ ____
ROOT
ATOM      1  C   UNL     1       5.351   5.068  18.472  0.00  0.00    +0.000 C 
ATOM      2  C   UNL     1       4.050   5.835  18.680  0.00  0.00    +0.000 C 
ATOM      3  C   UNL     1       4.023   6.753  17.515  0.00  0.00    +0.000 C 
ATOM      4  C   UNL     1       3.329   7.887  17.329  0.00  0.00    +0.000 C 
ATOM      5  C   UNL     1       4.991   6.264  16.520  0.00  0.00    +0.000 C 
ATOM      6  O   UNL     1       5.160   6.702  15.397  0.00  0.00    +0.000 OA
ATOM      7  O   UNL     1       5.686   5.236  17.075  0.00  0.00    +0.000 OA
ENDROOT
BRANCH   4   8
ATOM      8  C   UNL     1       2.405   8.448  18.320  0.00  0.00    +0.000 A 
ATOM      9  C   UNL     1       1.781   9.668  18.092  0.00  0.00    +0.000 A 
ATOM     10  C   UNL     1       0.971  10.199  19.094  0.00  0.00    +0.000 A 
ATOM     11  C   UNL     1       0.795   9.492  20.277  0.00  0.00    +0.000 A 
ATOM     12  C   UNL     1       1.432   8.273  20.409  0.00  0.00    +0.000 A 
ATOM     13  N   UNL     1       2.225   7.738  19.458  0.00  0.00    +0.000 NA
ENDBRANCH   4   8
BRANCH   1  14
ATOM     14  C   UNL     1       5.140   3.571  18.756  0.00  0.00    +0.000 C 
BRANCH  14  15
ATOM     15  O   UNL     1       3.933   3.357  19.513  0.00  0.00    +0.000 OA
BRANCH  15  16
ATOM     16  C   UNL     1       3.005   2.530  18.951  0.00  0.00    +0.000 C 
ATOM     17  O   UNL     1       3.272   1.434  18.471  0.00  0.00    +0.000 OA
BRANCH  16  19
ATOM     18  C   UNL     1       0.574   2.021  18.836  0.00  0.00    +0.000 C 
ATOM     19  C   UNL     1       1.609   3.153  18.955  0.00  0.00    +0.000 C 
ATOM     20  C   UNL     1       1.460   4.095  17.754  0.00  0.00    +0.000 C 
ATOM     21  C   UNL     1       1.368   3.916  20.264  0.00  0.00    +0.000 C 
ENDBRANCH  16  19
ENDBRANCH  15  16
ENDBRANCH  14  15
ENDBRANCH   1  14
BRANCH   1  22
ATOM     22  C   UNL     1       6.503   5.624  19.332  0.00  0.00    +0.000 C 
BRANCH  22  23
ATOM     23  O   UNL     1       7.759   5.042  18.988  0.00  0.00    +0.000 OA
ATOM     24  H   UNL     1       8.448   5.565  19.440  0.00  0.00    +0.000 HD
ENDBRANCH  22  23
ENDBRANCH   1  22
TORSDOF 7
ENDMDL
