MODEL 1
REMARK VINA RESULT:      -8.5      0.000      0.000
REMARK  Name = 
REMARK  3 active torsions:
REMARK  status: ('A' for Active; 'I' for Inactive)
REMARK    1  A    between atoms: N_3  and  C_4
REMARK    2  A    between atoms: N_11  and  C_12
REMARK    3  A    between atoms: C_16  and  C_17
REMARK                            x       y       z     vdW  Elec       q    Type
REMARK                         _______ _______ _______ _____ _____    ______ ____
ROOT
ATOM      1  C   UNL     1       7.422   6.373  18.065  0.00  0.00    +0.000 A 
ATOM      2  C   UNL     1       7.458   6.176  16.681  0.00  0.00    +0.000 A 
ATOM      3  C   UNL     1       6.743   5.139  16.084  0.00  0.00    +0.000 A 
ATOM      4  C   UNL     1       5.952   4.303  16.863  0.00  0.00    +0.000 A 
ATOM      5  C   UNL     1       5.777   4.576  18.219  0.00  0.00    +0.000 A 
ATOM      6  C   UNL     1       6.545   5.593  18.825  0.00  0.00    +0.000 A 
ENDROOT
BRANCH   5   7
ATOM      7  C   UNL     1       4.863   3.783  19.087  0.00  0.00    +0.000 C 
ATOM      8  O   UNL     1       5.332   2.762  19.590  0.00  0.00    +0.000 OA
ATOM      9  N   UNL     1       3.561   4.206  19.352  0.00  0.00    +0.000 N 
ATOM     10  C   UNL     1       2.886   5.422  18.881  0.00  0.00    +0.000 C 
ATOM     11  C   UNL     1       2.121   6.134  20.003  0.00  0.00    +0.000 C 
ATOM     12  O   UNL     1       1.270   5.239  20.727  0.00  0.00    +0.000 OA
ATOM     13  C   UNL     1       2.038   4.163  21.286  0.00  0.00    +0.000 C 
ATOM     14  C   UNL     1       2.701   3.346  20.174  0.00  0.00    +0.000 C 
ENDBRANCH   5   7
BRANCH   1  18
ATOM     15  O   UNL     1       7.550   9.245  17.709  0.00  0.00    +0.000 OA
ATOM     16  C   UNL     1       8.290   8.668  18.498  0.00  0.00    +0.000 C 
ATOM     17  N   UNL     1       9.295   9.300  19.211  0.00  0.00    +0.000 N 
ATOM     18  N   UNL     1       8.255   7.299  18.741  0.00  0.00    +0.000 N 
ATOM     19  H   UNL     1       9.956   8.710  19.690  0.00  0.00    +0.000 HD
ATOM     20  H   UNL     1       8.994   6.912  19.307  0.00  0.00    +0.000 HD
BRANCH  17  21
ATOM     21  C   UNL     1       9.639  10.670  19.100  0.00  0.00    +0.000 A 
ATOM     22  C   UNL     1       9.491  11.590  20.145  0.00  0.00    +0.000 A 
ATOM     23  C   UNL     1       9.746  12.950  19.947  0.00  0.00    +0.000 A 
ATOM     24  C   UNL     1      10.172  13.397  18.703  0.00  0.00    +0.000 A 
ATOM     25 CL   UNL     1      10.433  15.077  18.443  0.00  0.00    +0.000 Cl
ATOM     26  C   UNL     1      10.378  12.490  17.667  0.00  0.00    +0.000 A 
ATOM     27  C   UNL     1      10.123  11.127  17.869  0.00  0.00    +0.000 A 
ENDBRANCH  17  21
ENDBRANCH   1  18
TORSDOF 3
ENDMDL
MODEL 2
REMARK VINA RESULT:      -8.5      1.504      2.223
REMARK  Name = 
REMARK  3 active torsions:
REMARK  status: ('A' for Active; 'I' for Inactive)
REMARK    1  A    between atoms: N_3  and  C_4
REMARK    2  A    between atoms: N_11  and  C_12
REMARK    3  A    between atoms: C_16  and  C_17
REMARK                            x       y       z     vdW  Elec       q    Type
REMARK                         _______ _______ _______ _____ _____    ______ ____
ROOT
ATOM      1  C   UNL     1       6.953   6.488  17.470  0.00  0.00    +0.000 A 
ATOM      2  C   UNL     1       7.274   5.932  16.229  0.00  0.00    +0.000 A 
ATOM      3  C   UNL     1       6.384   5.087  15.568  0.00  0.00    +0.000 A 
ATOM      4  C   UNL     1       5.142   4.812  16.128  0.00  0.00    +0.000 A 
ATOM      5  C   UNL     1       4.738   5.478  17.285  0.00  0.00    +0.000 A 
ATOM      6  C   UNL     1       5.664   6.289  17.975  0.00  0.00    +0.000 A 
ENDROOT
BRANCH   5   7
ATOM      7  C   UNL     1       3.383   5.308  17.878  0.00  0.00    +0.000 C 
ATOM      8  O   UNL     1       2.576   6.215  17.674  0.00  0.00    +0.000 OA
ATOM      9  N   UNL     1       3.036   4.156  18.584  0.00  0.00    +0.000 N 
ATOM     10  C   UNL     1       3.860   2.972  18.854  0.00  0.00    +0.000 C 
ATOM     11  C   UNL     1       3.098   1.664  18.605  0.00  0.00    +0.000 C 
ATOM     12  O   UNL     1       1.826   1.649  19.261  0.00  0.00    +0.000 OA
ATOM     13  C   UNL     1       1.025   2.756  18.819  0.00  0.00    +0.000 C 
ATOM     14  C   UNL     1       1.698   4.081  19.183  0.00  0.00    +0.000 C 
ENDBRANCH   5   7
BRANCH   1  18
ATOM     15  O   UNL     1       7.355   9.355  17.561  0.00  0.00    +0.000 OA
ATOM     16  C   UNL     1       8.043   8.594  18.232  0.00  0.00    +0.000 C 
ATOM     17  N   UNL     1       9.112   9.010  19.008  0.00  0.00    +0.000 N 
ATOM     18  N   UNL     1       7.878   7.214  18.261  0.00  0.00    +0.000 N 
ATOM     19  H   UNL     1       9.718   8.293  19.374  0.00  0.00    +0.000 HD
ATOM     20  H   UNL     1       8.582   6.675  18.741  0.00  0.00    +0.000 HD
BRANCH  17  21
ATOM     21  C   UNL     1       9.587  10.342  19.103  0.00  0.00    +0.000 A 
ATOM     22  C   UNL     1      10.100  11.058  18.014  0.00  0.00    +0.000 A 
ATOM     23  C   UNL     1      10.653  12.329  18.186  0.00  0.00    +0.000 A 
ATOM     24  C   UNL     1      10.679  12.904  19.451  0.00  0.00    +0.000 A 
ATOM     25 CL   UNL     1      11.409  14.445  19.674  0.00  0.00    +0.000 Cl
ATOM     26  C   UNL     1      10.124  12.230  20.536  0.00  0.00    +0.000 A 
ATOM     27  C   UNL     1       9.569  10.957  20.360  0.00  0.00    +0.000 A 
ENDBRANCH  17  21
ENDBRANCH   1  18
TORSDOF 3
ENDMDL
MODEL 3
REMARK VINA RESULT:      -8.3      0.958      1.374
REMARK  Name = 
REMARK  3 active torsions:
REMARK  status: ('A' for Active; 'I' for Inactive)
REMARK    1  A    between atoms: N_3  and  C_4
REMARK    2  A    between atoms: N_11  and  C_12
REMARK    3  A    between atoms: C_16  and  C_17
REMARK                            x       y       z     vdW  Elec       q    Type
REMARK                         _______ _______ _______ _____ _____    ______ ____
ROOT
ATOM      1  C   UNL     1       6.953   5.949  17.451  0.00  0.00    +0.000 A 
ATOM      2  C   UNL     1       7.194   5.728  16.092  0.00  0.00    +0.000 A 
ATOM      3  C   UNL     1       6.458   4.786  15.375  0.00  0.00    +0.000 A 
ATOM      4  C   UNL     1       5.445   4.072  16.005  0.00  0.00    +0.000 A 
ATOM      5  C   UNL     1       5.083   4.386  17.314  0.00  0.00    +0.000 A 
ATOM      6  C   UNL     1       5.866   5.302  18.048  0.00  0.00    +0.000 A 
ENDROOT
BRANCH   5   7
ATOM      7  C   UNL     1       3.940   3.732  18.010  0.00  0.00    +0.000 C 
ATOM      8  O   UNL     1       3.975   2.504  18.090  0.00  0.00    +0.000 OA
ATOM      9  N   UNL     1       2.912   4.480  18.583  0.00  0.00    +0.000 N 
ATOM     10  C   UNL     1       2.764   5.941  18.626  0.00  0.00    +0.000 C 
ATOM     11  C   UNL     1       2.353   6.443  20.015  0.00  0.00    +0.000 C 
ATOM     12  O   UNL     1       1.227   5.729  20.535  0.00  0.00    +0.000 OA
ATOM     13  C   UNL     1       1.517   4.325  20.605  0.00  0.00    +0.000 C 
ATOM     14  C   UNL     1       1.793   3.765  19.208  0.00  0.00    +0.000 C 
ENDBRANCH   5   7
BRANCH   1  18
ATOM     15  O   UNL     1       7.246   8.829  17.361  0.00  0.00    +0.000 OA
ATOM     16  C   UNL     1       7.895   8.148  18.147  0.00  0.00    +0.000 C 
ATOM     17  N   UNL     1       8.872   8.662  18.982  0.00  0.00    +0.000 N 
ATOM     18  N   UNL     1       7.776   6.768  18.265  0.00  0.00    +0.000 N 
ATOM     19  H   UNL     1       9.466   7.999  19.454  0.00  0.00    +0.000 HD
ATOM     20  H   UNL     1       8.450   6.294  18.845  0.00  0.00    +0.000 HD
BRANCH  17  21
ATOM     21  C   UNL     1       9.290  10.015  19.018  0.00  0.00    +0.000 A 
ATOM     22  C   UNL     1       9.671  10.736  17.880  0.00  0.00    +0.000 A 
ATOM     23  C   UNL     1      10.177  12.034  17.986  0.00  0.00    +0.000 A 
ATOM     24  C   UNL     1      10.286  12.630  19.237  0.00  0.00    +0.000 A 
ATOM     25 CL   UNL     1      10.959  14.207  19.375  0.00  0.00    +0.000 Cl
ATOM     26  C   UNL     1       9.861  11.950  20.375  0.00  0.00    +0.000 A 
ATOM     27  C   UNL     1       9.353  10.649  20.264  0.00  0.00    +0.000 A 
ENDBRANCH  17  21
ENDBRANCH   1  18
TORSDOF 3
ENDMDL
MODEL 4
REMARK VINA RESULT:      -8.2      1.175      1.178
REMARK  Name = 
REMARK  3 active torsions:
REMARK  status: ('A' for Active; 'I' for Inactive)
REMARK    1  A    between atoms: N_3  and  C_4
REMARK    2  A    between atoms: N_11  and  C_12
REMARK    3  A    between atoms: C_16  and  C_17
REMARK                            x       y       z     vdW  Elec       q    Type
REMARK                         _______ _______ _______ _____ _____    ______ ____
ROOT
ATOM      1  C   UNL     1       7.356   6.307  17.954  0.00  0.00    +0.000 A 
ATOM      2  C   UNL     1       7.394   6.191  16.561  0.00  0.00    +0.000 A 
ATOM      3  C   UNL     1       6.705   5.171  15.906  0.00  0.00    +0.000 A 
ATOM      4  C   UNL     1       5.941   4.269  16.636  0.00  0.00    +0.000 A 
ATOM      5  C   UNL     1       5.762   4.459  18.006  0.00  0.00    +0.000 A 
ATOM      6  C   UNL     1       6.503   5.459  18.669  0.00  0.00    +0.000 A 
ENDROOT
BRANCH   5   7
ATOM      7  C   UNL     1       4.872   3.591  18.827  0.00  0.00    +0.000 C 
ATOM      8  O   UNL     1       5.334   3.184  19.893  0.00  0.00    +0.000 OA
ATOM      9  N   UNL     1       3.568   3.299  18.428  0.00  0.00    +0.000 N 
ATOM     10  C   UNL     1       2.861   3.759  17.226  0.00  0.00    +0.000 C 
ATOM     11  C   UNL     1       1.437   4.236  17.536  0.00  0.00    +0.000 C 
ATOM     12  O   UNL     1       0.706   3.280  18.312  0.00  0.00    +0.000 OA
ATOM     13  C   UNL     1       1.393   3.008  19.543  0.00  0.00    +0.000 C 
ATOM     14  C   UNL     1       2.768   2.396  19.263  0.00  0.00    +0.000 C 
ENDBRANCH   5   7
BRANCH   1  18
ATOM     15  O   UNL     1       7.523   9.182  17.648  0.00  0.00    +0.000 OA
ATOM     16  C   UNL     1       8.221   8.587  18.462  0.00  0.00    +0.000 C 
ATOM     17  N   UNL     1       9.198   9.200  19.229  0.00  0.00    +0.000 N 
ATOM     18  N   UNL     1       8.164   7.215  18.682  0.00  0.00    +0.000 N 
ATOM     19  H   UNL     1       9.831   8.597  19.729  0.00  0.00    +0.000 HD
ATOM     20  H   UNL     1       8.873   6.813  19.275  0.00  0.00    +0.000 HD
BRANCH  17  21
ATOM     21  C   UNL     1       9.558  10.568  19.155  0.00  0.00    +0.000 A 
ATOM     22  C   UNL     1       9.388  11.469  20.213  0.00  0.00    +0.000 A 
ATOM     23  C   UNL     1       9.661  12.830  20.050  0.00  0.00    +0.000 A 
ATOM     24  C   UNL     1      10.128  13.297  18.827  0.00  0.00    +0.000 A 
ATOM     25 CL   UNL     1      10.412  14.979  18.608  0.00  0.00    +0.000 Cl
ATOM     26  C   UNL     1      10.355  12.407  17.780  0.00  0.00    +0.000 A 
ATOM     27  C   UNL     1      10.082  11.044  17.948  0.00  0.00    +0.000 A 
ENDBRANCH  17  21
ENDBRANCH   1  18
TORSDOF 3
ENDMDL
MODEL 5
REMARK VINA RESULT:      -8.0      1.607      1.678
REMARK  Name = 
REMARK  3 active torsions:
REMARK  status: ('A' for Active; 'I' for Inactive)
REMARK    1  A    between atoms: N_3  and  C_4
REMARK    2  A    between atoms: N_11  and  C_12
REMARK    3  A    between atoms: C_16  and  C_17
REMARK                            x       y       z     vdW  Elec       q    Type
REMARK                         _______ _______ _______ _____ _____    ______ ____
ROOT
ATOM      1  C   UNL     1       5.777   6.543  16.869  0.00  0.00    +0.000 A 
ATOM      2  C   UNL     1       5.677   5.968  15.598  0.00  0.00    +0.000 A 
ATOM      3  C   UNL     1       5.360   4.619  15.442  0.00  0.00    +0.000 A 
ATOM      4  C   UNL     1       5.106   3.833  16.559  0.00  0.00    +0.000 A 
ATOM      5  C   UNL     1       5.045   4.418  17.823  0.00  0.00    +0.000 A 
ATOM      6  C   UNL     1       5.418   5.770  17.978  0.00  0.00    +0.000 A 
ENDROOT
BRANCH   5   7
ATOM      7  C   UNL     1       4.675   3.653  19.046  0.00  0.00    +0.000 C 
ATOM      8  O   UNL     1       5.605   3.205  19.716  0.00  0.00    +0.000 OA
ATOM      9  N   UNL     1       3.344   3.497  19.433  0.00  0.00    +0.000 N 
ATOM     10  C   UNL     1       2.139   4.022  18.778  0.00  0.00    +0.000 C 
ATOM     11  C   UNL     1       1.159   4.646  19.778  0.00  0.00    +0.000 C 
ATOM     12  O   UNL     1       0.889   3.776  20.883  0.00  0.00    +0.000 OA
ATOM     13  C   UNL     1       2.109   3.440  21.561  0.00  0.00    +0.000 C 
ATOM     14  C   UNL     1       3.053   2.686  20.621  0.00  0.00    +0.000 C 
ENDBRANCH   5   7
BRANCH   1  18
ATOM     15  O   UNL     1       8.413   7.352  17.752  0.00  0.00    +0.000 OA
ATOM     16  C   UNL     1       7.529   8.177  17.551  0.00  0.00    +0.000 C 
ATOM     17  N   UNL     1       7.669   9.530  17.807  0.00  0.00    +0.000 N 
ATOM     18  N   UNL     1       6.255   7.857  17.093  0.00  0.00    +0.000 N 
ATOM     19  H   UNL     1       6.832  10.090  17.778  0.00  0.00    +0.000 HD
ATOM     20  H   UNL     1       5.567   8.595  17.091  0.00  0.00    +0.000 HD
BRANCH  17  21
ATOM     21  C   UNL     1       8.815  10.143  18.371  0.00  0.00    +0.000 A 
ATOM     22  C   UNL     1       9.067  10.191  19.747  0.00  0.00    +0.000 A 
ATOM     23  C   UNL     1      10.158  10.901  20.255  0.00  0.00    +0.000 A 
ATOM     24  C   UNL     1      11.020  11.554  19.383  0.00  0.00    +0.000 A 
ATOM     25 CL   UNL     1      12.332  12.474  20.009  0.00  0.00    +0.000 Cl
ATOM     26  C   UNL     1      10.818  11.472  18.008  0.00  0.00    +0.000 A 
ATOM     27  C   UNL     1       9.724  10.758  17.502  0.00  0.00    +0.000 A 
ENDBRANCH  17  21
ENDBRANCH   1  18
TORSDOF 3
ENDMDL
MODEL 6
REMARK VINA RESULT:      -8.0      1.089      1.165
REMARK  Name = 
REMARK  3 active torsions:
REMARK  status: ('A' for Active; 'I' for Inactive)
REMARK    1  A    between atoms: N_3  and  C_4
REMARK    2  A    between atoms: N_11  and  C_12
REMARK    3  A    between atoms: C_16  and  C_17
REMARK                            x       y       z     vdW  Elec       q    Type
REMARK                         _______ _______ _______ _____ _____    ______ ____
ROOT
ATOM      1  C   UNL     1       7.023   5.735  17.336  0.00  0.00    +0.000 A 
ATOM      2  C   UNL     1       7.348   5.481  16.000  0.00  0.00    +0.000 A 
ATOM      3  C   UNL     1       6.658   4.520  15.263  0.00  0.00    +0.000 A 
ATOM      4  C   UNL     1       5.607   3.821  15.845  0.00  0.00    +0.000 A 
ATOM      5  C   UNL     1       5.164   4.167  17.121  0.00  0.00    +0.000 A 
ATOM      6  C   UNL     1       5.900   5.102  17.879  0.00  0.00    +0.000 A 
ENDROOT
BRANCH   5   7
ATOM      7  C   UNL     1       3.980   3.529  17.760  0.00  0.00    +0.000 C 
ATOM      8  O   UNL     1       3.966   2.299  17.787  0.00  0.00    +0.000 OA
ATOM      9  N   UNL     1       2.966   4.292  18.340  0.00  0.00    +0.000 N 
ATOM     10  C   UNL     1       2.873   5.754  18.442  0.00  0.00    +0.000 C 
ATOM     11  C   UNL     1       2.446   6.213  19.842  0.00  0.00    +0.000 C 
ATOM     12  O   UNL     1       1.280   5.522  20.303  0.00  0.00    +0.000 OA
ATOM     13  C   UNL     1       1.515   4.106  20.319  0.00  0.00    +0.000 C 
ATOM     14  C   UNL     1       1.805   3.595  18.906  0.00  0.00    +0.000 C 
ENDBRANCH   5   7
BRANCH   1  18
ATOM     15  O   UNL     1       7.156   8.628  17.328  0.00  0.00    +0.000 OA
ATOM     16  C   UNL     1       7.836   7.962  18.100  0.00  0.00    +0.000 C 
ATOM     17  N   UNL     1       8.778   8.506  18.957  0.00  0.00    +0.000 N 
ATOM     18  N   UNL     1       7.793   6.575  18.178  0.00  0.00    +0.000 N 
ATOM     19  H   UNL     1       9.404   7.863  19.415  0.00  0.00    +0.000 HD
ATOM     20  H   UNL     1       8.489   6.123  18.751  0.00  0.00    +0.000 HD
BRANCH  17  21
ATOM     21  C   UNL     1       9.119   9.879  19.034  0.00  0.00    +0.000 A 
ATOM     22  C   UNL     1       9.519  10.510  20.218  0.00  0.00    +0.000 A 
ATOM     23  C   UNL     1       9.741  11.889  20.259  0.00  0.00    +0.000 A 
ATOM     24  C   UNL     1       9.582  12.646  19.106  0.00  0.00    +0.000 A 
ATOM     25 CL   UNL     1       9.801  14.351  19.167  0.00  0.00    +0.000 Cl
ATOM     26  C   UNL     1       9.239  12.029  17.906  0.00  0.00    +0.000 A 
ATOM     27  C   UNL     1       9.019  10.646  17.868  0.00  0.00    +0.000 A 
ENDBRANCH  17  21
ENDBRANCH   1  18
TORSDOF 3
ENDMDL
MODEL 7
REMARK VINA RESULT:      -7.7      1.711      2.033
REMARK  Name = 
REMARK  3 active torsions:
REMARK  status: ('A' for Active; 'I' for Inactive)
REMARK    1  A    between atoms: N_3  and  C_4
REMARK    2  A    between atoms: N_11  and  C_12
REMARK    3  A    between atoms: C_16  and  C_17
REMARK                            x       y       z     vdW  Elec       q    Type
REMARK                         _______ _______ _______ _____ _____    ______ ____
ROOT
ATOM      1  C   UNL     1       7.396   7.467  17.910  0.00  0.00    +0.000 A 
ATOM      2  C   UNL     1       8.196   6.708  18.770  0.00  0.00    +0.000 A 
ATOM      3  C   UNL     1       7.728   5.516  19.321  0.00  0.00    +0.000 A 
ATOM      4  C   UNL     1       6.461   5.049  18.992  0.00  0.00    +0.000 A 
ATOM      5  C   UNL     1       5.710   5.706  18.018  0.00  0.00    +0.000 A 
ATOM      6  C   UNL     1       6.166   6.938  17.506  0.00  0.00    +0.000 A 
ENDROOT
BRANCH   5   7
ATOM      7  C   UNL     1       4.391   5.200  17.545  0.00  0.00    +0.000 C 
ATOM      8  O   UNL     1       4.362   4.719  16.412  0.00  0.00    +0.000 OA
ATOM      9  N   UNL     1       3.264   5.226  18.365  0.00  0.00    +0.000 N 
ATOM     10  C   UNL     1       3.157   5.704  19.750  0.00  0.00    +0.000 C 
ATOM     11  C   UNL     1       2.369   4.737  20.640  0.00  0.00    +0.000 C 
ATOM     12  O   UNL     1       1.117   4.364  20.055  0.00  0.00    +0.000 OA
ATOM     13  C   UNL     1       1.327   3.761  18.769  0.00  0.00    +0.000 C 
ATOM     14  C   UNL     1       1.987   4.757  17.813  0.00  0.00    +0.000 C 
ENDBRANCH   5   7
BRANCH   1  18
ATOM     15  O   UNL     1       9.085   9.417  19.228  0.00  0.00    +0.000 OA
ATOM     16  C   UNL     1       8.545   9.664  18.156  0.00  0.00    +0.000 C 
ATOM     17  N   UNL     1       8.610  10.898  17.530  0.00  0.00    +0.000 N 
ATOM     18  N   UNL     1       7.752   8.761  17.456  0.00  0.00    +0.000 N 
ATOM     19  H   UNL     1       7.989  11.049  16.752  0.00  0.00    +0.000 HD
ATOM     20  H   UNL     1       7.250   9.112  16.655  0.00  0.00    +0.000 HD
BRANCH  17  21
ATOM     21  C   UNL     1       9.260  12.045  18.048  0.00  0.00    +0.000 A 
ATOM     22  C   UNL     1       8.580  13.109  18.655  0.00  0.00    +0.000 A 
ATOM     23  C   UNL     1       9.260  14.264  19.052  0.00  0.00    +0.000 A 
ATOM     24  C   UNL     1      10.633  14.354  18.862  0.00  0.00    +0.000 A 
ATOM     25 CL   UNL     1      11.462  15.796  19.299  0.00  0.00    +0.000 Cl
ATOM     26  C   UNL     1      11.334  13.285  18.310  0.00  0.00    +0.000 A 
ATOM     27  C   UNL     1      10.650  12.128  17.915  0.00  0.00    +0.000 A 
ENDBRANCH  17  21
ENDBRANCH   1  18
TORSDOF 3
ENDMDL
MODEL 8
REMARK VINA RESULT:      -7.6      6.939      9.637
REMARK  Name = 
REMARK  3 active torsions:
REMARK  status: ('A' for Active; 'I' for Inactive)
REMARK    1  A    between atoms: N_3  and  C_4
REMARK    2  A    between atoms: N_11  and  C_12
REMARK    3  A    between atoms: C_16  and  C_17
REMARK                            x       y       z     vdW  Elec       q    Type
REMARK                         _______ _______ _______ _____ _____    ______ ____
ROOT
ATOM      1  C   UNL     1       0.337  10.406  18.993  0.00  0.00    +0.000 A 
ATOM      2  C   UNL     1       0.804  11.716  19.135  0.00  0.00    +0.000 A 
ATOM      3  C   UNL     1       0.040  12.801  18.707  0.00  0.00    +0.000 A 
ATOM      4  C   UNL     1      -1.219  12.591  18.159  0.00  0.00    +0.000 A 
ATOM      5  C   UNL     1      -1.769  11.309  18.151  0.00  0.00    +0.000 A 
ATOM      6  C   UNL     1      -0.971  10.212  18.536  0.00  0.00    +0.000 A 
ENDROOT
BRANCH   5   7
ATOM      7  C   UNL     1      -3.152  11.032  17.675  0.00  0.00    +0.000 C 
ATOM      8  O   UNL     1      -3.262  10.253  16.728  0.00  0.00    +0.000 OA
ATOM      9  N   UNL     1      -4.265  11.588  18.306  0.00  0.00    +0.000 N 
ATOM     10  C   UNL     1      -4.299  12.475  19.475  0.00  0.00    +0.000 C 
ATOM     11  C   UNL     1      -5.365  12.055  20.494  0.00  0.00    +0.000 C 
ATOM     12  O   UNL     1      -6.643  11.850  19.882  0.00  0.00    +0.000 OA
ATOM     13  C   UNL     1      -6.549  10.852  18.854  0.00  0.00    +0.000 C 
ATOM     14  C   UNL     1      -5.595  11.311  17.749  0.00  0.00    +0.000 C 
ENDBRANCH   5   7
BRANCH   1  18
ATOM     15  O   UNL     1       2.209   9.094  17.214  0.00  0.00    +0.000 OA
ATOM     16  C   UNL     1       1.992   8.662  18.341  0.00  0.00    +0.000 C 
ATOM     17  N   UNL     1       2.534   7.484  18.829  0.00  0.00    +0.000 N 
ATOM     18  N   UNL     1       1.134   9.263  19.254  0.00  0.00    +0.000 N 
ATOM     19  H   UNL     1       2.153   7.129  19.691  0.00  0.00    +0.000 HD
ATOM     20  H   UNL     1       0.926   8.753  20.098  0.00  0.00    +0.000 HD
BRANCH  17  21
ATOM     21  C   UNL     1       3.365   6.600  18.097  0.00  0.00    +0.000 A 
ATOM     22  C   UNL     1       4.520   7.010  17.419  0.00  0.00    +0.000 A 
ATOM     23  C   UNL     1       5.243   6.116  16.625  0.00  0.00    +0.000 A 
ATOM     24  C   UNL     1       4.825   4.795  16.519  0.00  0.00    +0.000 A 
ATOM     25 CL   UNL     1       5.681   3.707  15.499  0.00  0.00    +0.000 Cl
ATOM     26  C   UNL     1       3.710   4.356  17.230  0.00  0.00    +0.000 A 
ATOM     27  C   UNL     1       2.989   5.254  18.026  0.00  0.00    +0.000 A 
ENDBRANCH  17  21
ENDBRANCH   1  18
TORSDOF 3
ENDMDL
MODEL 9
REMARK VINA RESULT:      -7.6      5.175      8.066
REMARK  Name = 
REMARK  3 active torsions:
REMARK  status: ('A' for Active; 'I' for Inactive)
REMARK    1  A    between atoms: N_3  and  C_4
REMARK    2  A    between atoms: N_11  and  C_12
REMARK    3  A    between atoms: C_16  and  C_17
REMARK                            x       y       z     vdW  Elec       q    Type
REMARK                         _______ _______ _______ _____ _____    ______ ____
ROOT
ATOM      1  C   UNL     1       2.296   6.118  20.223  0.00  0.00    +0.000 A 
ATOM      2  C   UNL     1       1.834   5.113  21.079  0.00  0.00    +0.000 A 
ATOM      3  C   UNL     1       1.872   3.772  20.699  0.00  0.00    +0.000 A 
ATOM      4  C   UNL     1       2.407   3.415  19.467  0.00  0.00    +0.000 A 
ATOM      5  C   UNL     1       3.015   4.380  18.666  0.00  0.00    +0.000 A 
ATOM      6  C   UNL     1       2.925   5.740  19.032  0.00  0.00    +0.000 A 
ENDROOT
BRANCH   5   7
ATOM      7  C   UNL     1       3.698   4.047  17.385  0.00  0.00    +0.000 C 
ATOM      8  O   UNL     1       2.971   3.742  16.439  0.00  0.00    +0.000 OA
ATOM      9  N   UNL     1       5.084   4.127  17.256  0.00  0.00    +0.000 N 
ATOM     10  C   UNL     1       6.070   4.534  18.266  0.00  0.00    +0.000 C 
ATOM     11  C   UNL     1       7.111   5.508  17.703  0.00  0.00    +0.000 C 
ATOM     12  O   UNL     1       7.690   5.033  16.483  0.00  0.00    +0.000 OA
ATOM     13  C   UNL     1       6.667   4.811  15.500  0.00  0.00    +0.000 C 
ATOM     14  C   UNL     1       5.690   3.735  15.978  0.00  0.00    +0.000 C 
ENDBRANCH   5   7
BRANCH   1  18
ATOM     15  O   UNL     1      -0.052   7.466  21.252  0.00  0.00    +0.000 OA
ATOM     16  C   UNL     1       0.960   8.090  20.950  0.00  0.00    +0.000 C 
ATOM     17  N   UNL     1       1.046   9.472  20.981  0.00  0.00    +0.000 N 
ATOM     18  N   UNL     1       2.129   7.500  20.485  0.00  0.00    +0.000 N 
ATOM     19  H   UNL     1       1.853   9.889  20.546  0.00  0.00    +0.000 HD
ATOM     20  H   UNL     1       2.850   8.115  20.140  0.00  0.00    +0.000 HD
BRANCH  17  21
ATOM     21  C   UNL     1      -0.013  10.352  21.316  0.00  0.00    +0.000 A 
ATOM     22  C   UNL     1      -0.662  11.169  20.383  0.00  0.00    +0.000 A 
ATOM     23  C   UNL     1      -1.626  12.096  20.787  0.00  0.00    +0.000 A 
ATOM     24  C   UNL     1      -1.964  12.197  22.131  0.00  0.00    +0.000 A 
ATOM     25 CL   UNL     1      -3.111  13.375  22.637  0.00  0.00    +0.000 Cl
ATOM     26  C   UNL     1      -1.369  11.355  23.066  0.00  0.00    +0.000 A 
ATOM     27  C   UNL     1      -0.404  10.426  22.658  0.00  0.00    +0.000 A 
ENDBRANCH  17  21
ENDBRANCH   1  18
TORSDOF 3
ENDMDL
