MODEL 1
REMARK VINA RESULT:      -6.1      0.000      0.000
REMARK  Name = 
REMARK  6 active torsions:
REMARK  status: ('A' for Active; 'I' for Inactive)
REMARK    1  A    between atoms: C_1  and  O_2
REMARK    2  A    between atoms: O_2  and  C_3
REMARK    3  A    between atoms: C_3  and  C_4
REMARK    4  A    between atoms: C_4  and  N_5
REMARK    5  A    between atoms: C_8  and  C_9
REMARK    6  A    between atoms: C_14  and  C_15
REMARK                            x       y       z     vdW  Elec       q    Type
REMARK                         _______ _______ _______ _____ _____    ______ ____
ROOT
ATOM      1  N   UNL     1       5.917   5.036  16.974  0.00  0.00    +0.000 N 
ATOM      2  C   UNL     1       5.122   4.341  16.111  0.00  0.00    +0.000 A 
ATOM      3  C   UNL     1       4.068   3.883  16.864  0.00  0.00    +0.000 A 
ATOM      4  C   UNL     1       4.297   4.373  18.173  0.00  0.00    +0.000 A 
ATOM      5  N   UNL     1       5.431   5.085  18.226  0.00  0.00    +0.000 NA
ENDROOT
BRANCH   4   6
ATOM      6  C   UNL     1       3.421   4.158  19.371  0.00  0.00    +0.000 A 
ATOM      7  S   UNL     1       3.235   2.647  20.159  0.00  0.00    +0.000 S 
ATOM      8  C   UNL     1       2.129   3.354  21.257  0.00  0.00    +0.000 A 
ATOM      9  N   UNL     1       1.534   2.629  22.216  0.00  0.00    +0.000 N 
ATOM     10  N   UNL     1       1.919   4.634  21.097  0.00  0.00    +0.000 NA
ATOM     11  C   UNL     1       2.639   5.111  20.005  0.00  0.00    +0.000 A 
ATOM     12  C   UNL     1       2.466   6.544  19.642  0.00  0.00    +0.000 C 
ATOM     13  H   UNL     1       1.963   1.759  22.501  0.00  0.00    +0.000 HD
ATOM     14  H   UNL     1       1.103   3.158  22.964  0.00  0.00    +0.000 HD
ENDBRANCH   4   6
BRANCH   1  15
ATOM     15  C   UNL     1       7.181   5.677  16.671  0.00  0.00    +0.000 C 
BRANCH  15  16
ATOM     16  C   UNL     1       7.540   6.739  17.701  0.00  0.00    +0.000 C 
BRANCH  16  18
ATOM     17  C   UNL     1       8.100   9.018  17.896  0.00  0.00    +0.000 C 
ATOM     18  O   UNL     1       7.466   8.031  17.090  0.00  0.00    +0.000 OA
ENDBRANCH  16  18
ENDBRANCH  15  16
ENDBRANCH   1  15
TORSDOF 4
ENDMDL
MODEL 2
REMARK VINA RESULT:      -6.1      1.834      2.643
REMARK  Name = 
REMARK  6 active torsions:
REMARK  status: ('A' for Active; 'I' for Inactive)
REMARK    1  A    between atoms: C_1  and  O_2
REMARK    2  A    between atoms: O_2  and  C_3
REMARK    3  A    between atoms: C_3  and  C_4
REMARK    4  A    between atoms: C_4  and  N_5
REMARK    5  A    between atoms: C_8  and  C_9
REMARK    6  A    between atoms: C_14  and  C_15
REMARK                            x       y       z     vdW  Elec       q    Type
REMARK                         _______ _______ _______ _____ _____    ______ ____
ROOT
ATOM      1  N   UNL     1       5.484   5.968  17.671  0.00  0.00    +0.000 N 
ATOM      2  C   UNL     1       4.448   6.789  17.332  0.00  0.00    +0.000 A 
ATOM      3  C   UNL     1       3.331   6.235  17.911  0.00  0.00    +0.000 A 
ATOM      4  C   UNL     1       3.793   5.090  18.604  0.00  0.00    +0.000 A 
ATOM      5  N   UNL     1       5.116   4.940  18.456  0.00  0.00    +0.000 NA
ENDROOT
BRANCH   4   6
ATOM      6  C   UNL     1       2.958   4.142  19.413  0.00  0.00    +0.000 A 
ATOM      7  S   UNL     1       2.421   4.464  21.009  0.00  0.00    +0.000 S 
ATOM      8  C   UNL     1       1.660   2.933  21.064  0.00  0.00    +0.000 A 
ATOM      9  N   UNL     1       1.012   2.512  22.160  0.00  0.00    +0.000 N 
ATOM     10  N   UNL     1       1.750   2.220  19.971  0.00  0.00    +0.000 NA
ATOM     11  C   UNL     1       2.508   2.892  19.016  0.00  0.00    +0.000 A 
ATOM     12  C   UNL     1       2.763   2.192  17.727  0.00  0.00    +0.000 C 
ATOM     13  H   UNL     1       0.695   3.201  22.829  0.00  0.00    +0.000 HD
ATOM     14  H   UNL     1       0.388   1.725  22.028  0.00  0.00    +0.000 HD
ENDBRANCH   4   6
BRANCH   1  15
ATOM     15  C   UNL     1       6.868   6.098  17.263  0.00  0.00    +0.000 C 
BRANCH  15  16
ATOM     16  C   UNL     1       7.348   4.879  16.488  0.00  0.00    +0.000 C 
BRANCH  16  18
ATOM     17  C   UNL     1       6.581   4.553  14.285  0.00  0.00    +0.000 C 
ATOM     18  O   UNL     1       7.519   5.234  15.112  0.00  0.00    +0.000 OA
ENDBRANCH  16  18
ENDBRANCH  15  16
ENDBRANCH   1  15
TORSDOF 4
ENDMDL
MODEL 3
REMARK VINA RESULT:      -6.0      3.072      5.807
REMARK  Name = 
REMARK  6 active torsions:
REMARK  status: ('A' for Active; 'I' for Inactive)
REMARK    1  A    between atoms: C_1  and  O_2
REMARK    2  A    between atoms: O_2  and  C_3
REMARK    3  A    between atoms: C_3  and  C_4
REMARK    4  A    between atoms: C_4  and  N_5
REMARK    5  A    between atoms: C_8  and  C_9
REMARK    6  A    between atoms: C_14  and  C_15
REMARK                            x       y       z     vdW  Elec       q    Type
REMARK                         _______ _______ _______ _____ _____    ______ ____
ROOT
ATOM      1  N   UNL     1       2.960   2.870  19.239  0.00  0.00    +0.000 N 
ATOM      2  C   UNL     1       2.125   2.543  18.212  0.00  0.00    +0.000 A 
ATOM      3  C   UNL     1       2.677   3.111  17.089  0.00  0.00    +0.000 A 
ATOM      4  C   UNL     1       3.865   3.744  17.531  0.00  0.00    +0.000 A 
ATOM      5  N   UNL     1       4.031   3.583  18.850  0.00  0.00    +0.000 NA
ENDROOT
BRANCH   4   6
ATOM      6  C   UNL     1       4.840   4.501  16.679  0.00  0.00    +0.000 A 
ATOM      7  S   UNL     1       5.981   3.754  15.639  0.00  0.00    +0.000 S 
ATOM      8  C   UNL     1       6.579   5.292  15.189  0.00  0.00    +0.000 A 
ATOM      9  N   UNL     1       7.602   5.422  14.330  0.00  0.00    +0.000 N 
ATOM     10  N   UNL     1       5.969   6.314  15.730  0.00  0.00    +0.000 NA
ATOM     11  C   UNL     1       4.977   5.879  16.604  0.00  0.00    +0.000 A 
ATOM     12  C   UNL     1       4.222   6.917  17.357  0.00  0.00    +0.000 C 
ATOM     13  H   UNL     1       7.811   4.654  13.707  0.00  0.00    +0.000 HD
ATOM     14  H   UNL     1       7.725   6.344  13.929  0.00  0.00    +0.000 HD
ENDBRANCH   4   6
BRANCH   1  15
ATOM     15  C   UNL     1       2.788   2.543  20.640  0.00  0.00    +0.000 C 
BRANCH  15  16
ATOM     16  C   UNL     1       1.816   3.491  21.329  0.00  0.00    +0.000 C 
BRANCH  16  18
ATOM     17  C   UNL     1       1.604   5.719  20.596  0.00  0.00    +0.000 C 
ATOM     18  O   UNL     1       2.383   4.804  21.361  0.00  0.00    +0.000 OA
ENDBRANCH  16  18
ENDBRANCH  15  16
ENDBRANCH   1  15
TORSDOF 4
ENDMDL
MODEL 4
REMARK VINA RESULT:      -6.0      3.351      6.301
REMARK  Name = 
REMARK  6 active torsions:
REMARK  status: ('A' for Active; 'I' for Inactive)
REMARK    1  A    between atoms: C_1  and  O_2
REMARK    2  A    between atoms: O_2  and  C_3
REMARK    3  A    between atoms: C_3  and  C_4
REMARK    4  A    between atoms: C_4  and  N_5
REMARK    5  A    between atoms: C_8  and  C_9
REMARK    6  A    between atoms: C_14  and  C_15
REMARK                            x       y       z     vdW  Elec       q    Type
REMARK                         _______ _______ _______ _____ _____    ______ ____
ROOT
ATOM      1  N   UNL     1       2.595   5.706  19.691  0.00  0.00    +0.000 N 
ATOM      2  C   UNL     1       2.317   6.936  19.170  0.00  0.00    +0.000 A 
ATOM      3  C   UNL     1       3.294   7.172  18.233  0.00  0.00    +0.000 A 
ATOM      4  C   UNL     1       4.110   6.014  18.237  0.00  0.00    +0.000 A 
ATOM      5  N   UNL     1       3.667   5.119  19.130  0.00  0.00    +0.000 NA
ENDROOT
BRANCH   4   6
ATOM      6  C   UNL     1       5.314   5.770  17.377  0.00  0.00    +0.000 A 
ATOM      7  S   UNL     1       5.254   5.624  15.669  0.00  0.00    +0.000 S 
ATOM      8  C   UNL     1       6.943   5.354  15.632  0.00  0.00    +0.000 A 
ATOM      9  N   UNL     1       7.590   5.121  14.480  0.00  0.00    +0.000 N 
ATOM     10  N   UNL     1       7.546   5.400  16.791  0.00  0.00    +0.000 NA
ATOM     11  C   UNL     1       6.622   5.621  17.810  0.00  0.00    +0.000 A 
ATOM     12  C   UNL     1       7.133   5.639  19.207  0.00  0.00    +0.000 C 
ATOM     13  H   UNL     1       7.158   5.416  13.615  0.00  0.00    +0.000 HD
ATOM     14  H   UNL     1       8.597   5.224  14.512  0.00  0.00    +0.000 HD
ENDBRANCH   4   6
BRANCH   1  15
ATOM     15  C   UNL     1       1.879   5.026  20.751  0.00  0.00    +0.000 C 
BRANCH  15  16
ATOM     16  C   UNL     1       0.924   3.974  20.207  0.00  0.00    +0.000 C 
BRANCH  16  18
ATOM     17  C   UNL     1       2.294   2.786  21.710  0.00  0.00    +0.000 C 
ATOM     18  O   UNL     1       1.096   2.758  20.942  0.00  0.00    +0.000 OA
ENDBRANCH  16  18
ENDBRANCH  15  16
ENDBRANCH   1  15
TORSDOF 4
ENDMDL
MODEL 5
REMARK VINA RESULT:      -5.9      3.492      6.276
REMARK  Name = 
REMARK  6 active torsions:
REMARK  status: ('A' for Active; 'I' for Inactive)
REMARK    1  A    between atoms: C_1  and  O_2
REMARK    2  A    between atoms: O_2  and  C_3
REMARK    3  A    between atoms: C_3  and  C_4
REMARK    4  A    between atoms: C_4  and  N_5
REMARK    5  A    between atoms: C_8  and  C_9
REMARK    6  A    between atoms: C_14  and  C_15
REMARK                            x       y       z     vdW  Elec       q    Type
REMARK                         _______ _______ _______ _____ _____    ______ ____
ROOT
ATOM      1  N   UNL     1       2.259   3.371  18.316  0.00  0.00    +0.000 N 
ATOM      2  C   UNL     1       2.746   2.101  18.217  0.00  0.00    +0.000 A 
ATOM      3  C   UNL     1       3.956   2.216  17.576  0.00  0.00    +0.000 A 
ATOM      4  C   UNL     1       4.132   3.602  17.345  0.00  0.00    +0.000 A 
ATOM      5  N   UNL     1       3.088   4.302  17.810  0.00  0.00    +0.000 NA
ENDROOT
BRANCH   4   6
ATOM      6  C   UNL     1       5.309   4.252  16.680  0.00  0.00    +0.000 A 
ATOM      7  S   UNL     1       5.592   4.215  14.989  0.00  0.00    +0.000 S 
ATOM      8  C   UNL     1       7.037   5.103  15.210  0.00  0.00    +0.000 A 
ATOM      9  N   UNL     1       7.829   5.420  14.175  0.00  0.00    +0.000 N 
ATOM     10  N   UNL     1       7.301   5.451  16.442  0.00  0.00    +0.000 NA
ATOM     11  C   UNL     1       6.327   4.955  17.305  0.00  0.00    +0.000 A 
ATOM     12  C   UNL     1       6.508   5.207  18.761  0.00  0.00    +0.000 C 
ATOM     13  H   UNL     1       7.432   5.423  13.245  0.00  0.00    +0.000 HD
ATOM     14  H   UNL     1       8.513   6.147  14.350  0.00  0.00    +0.000 HD
ENDBRANCH   4   6
BRANCH   1  15
ATOM     15  C   UNL     1       0.986   3.776  18.875  0.00  0.00    +0.000 C 
BRANCH  15  16
ATOM     16  C   UNL     1       1.112   4.187  20.335  0.00  0.00    +0.000 C 
BRANCH  16  18
ATOM     17  C   UNL     1       2.235   2.794  21.866  0.00  0.00    +0.000 C 
ATOM     18  O   UNL     1       1.019   3.023  21.162  0.00  0.00    +0.000 OA
ENDBRANCH  16  18
ENDBRANCH  15  16
ENDBRANCH   1  15
TORSDOF 4
ENDMDL
MODEL 6
REMARK VINA RESULT:      -5.9      2.148      3.144
REMARK  Name = 
REMARK  6 active torsions:
REMARK  status: ('A' for Active; 'I' for Inactive)
REMARK    1  A    between atoms: C_1  and  O_2
REMARK    2  A    between atoms: O_2  and  C_3
REMARK    3  A    between atoms: C_3  and  C_4
REMARK    4  A    between atoms: C_4  and  N_5
REMARK    5  A    between atoms: C_8  and  C_9
REMARK    6  A    between atoms: C_14  and  C_15
REMARK                            x       y       z     vdW  Elec       q    Type
REMARK                         _______ _______ _______ _____ _____    ______ ____
ROOT
ATOM      1  N   UNL     1       6.513   4.651  16.722  0.00  0.00    +0.000 N 
ATOM      2  C   UNL     1       7.202   5.053  17.827  0.00  0.00    +0.000 A 
ATOM      3  C   UNL     1       6.294   5.035  18.858  0.00  0.00    +0.000 A 
ATOM      4  C   UNL     1       5.081   4.582  18.285  0.00  0.00    +0.000 A 
ATOM      5  N   UNL     1       5.229   4.343  16.975  0.00  0.00    +0.000 NA
ENDROOT
BRANCH   4   6
ATOM      6  C   UNL     1       3.779   4.377  19.002  0.00  0.00    +0.000 A 
ATOM      7  S   UNL     1       3.394   2.968  19.900  0.00  0.00    +0.000 S 
ATOM      8  C   UNL     1       1.852   3.615  20.257  0.00  0.00    +0.000 A 
ATOM      9  N   UNL     1       0.954   2.929  20.981  0.00  0.00    +0.000 N 
ATOM     10  N   UNL     1       1.621   4.812  19.786  0.00  0.00    +0.000 NA
ATOM     11  C   UNL     1       2.712   5.261  19.046  0.00  0.00    +0.000 A 
ATOM     12  C   UNL     1       2.592   6.587  18.382  0.00  0.00    +0.000 C 
ATOM     13  H   UNL     1       1.285   2.185  21.581  0.00  0.00    +0.000 HD
ATOM     14  H   UNL     1       0.184   3.470  21.355  0.00  0.00    +0.000 HD
ENDBRANCH   4   6
BRANCH   1  15
ATOM     15  C   UNL     1       7.019   4.549  15.368  0.00  0.00    +0.000 C 
BRANCH  15  16
ATOM     16  C   UNL     1       5.928   4.155  14.382  0.00  0.00    +0.000 C 
BRANCH  16  18
ATOM     17  C   UNL     1       5.597   3.255  12.231  0.00  0.00    +0.000 C 
ATOM     18  O   UNL     1       6.520   3.895  13.105  0.00  0.00    +0.000 OA
ENDBRANCH  16  18
ENDBRANCH  15  16
ENDBRANCH   1  15
TORSDOF 4
ENDMDL
MODEL 7
REMARK VINA RESULT:      -5.9      1.777      2.429
REMARK  Name = 
REMARK  6 active torsions:
REMARK  status: ('A' for Active; 'I' for Inactive)
REMARK    1  A    between atoms: C_1  and  O_2
REMARK    2  A    between atoms: O_2  and  C_3
REMARK    3  A    between atoms: C_3  and  C_4
REMARK    4  A    between atoms: C_4  and  N_5
REMARK    5  A    between atoms: C_8  and  C_9
REMARK    6  A    between atoms: C_14  and  C_15
REMARK                            x       y       z     vdW  Elec       q    Type
REMARK                         _______ _______ _______ _____ _____    ______ ____
ROOT
ATOM      1  N   UNL     1       5.947   4.177  16.710  0.00  0.00    +0.000 N 
ATOM      2  C   UNL     1       6.775   4.885  17.531  0.00  0.00    +0.000 A 
ATOM      3  C   UNL     1       6.111   4.986  18.730  0.00  0.00    +0.000 A 
ATOM      4  C   UNL     1       4.894   4.285  18.549  0.00  0.00    +0.000 A 
ATOM      5  N   UNL     1       4.808   3.787  17.308  0.00  0.00    +0.000 NA
ENDROOT
BRANCH   4   6
ATOM      6  C   UNL     1       3.816   4.093  19.574  0.00  0.00    +0.000 A 
ATOM      7  S   UNL     1       3.553   2.626  20.421  0.00  0.00    +0.000 S 
ATOM      8  C   UNL     1       2.228   3.333  21.239  0.00  0.00    +0.000 A 
ATOM      9  N   UNL     1       1.495   2.636  22.120  0.00  0.00    +0.000 N 
ATOM     10  N   UNL     1       1.993   4.587  20.951  0.00  0.00    +0.000 NA
ATOM     11  C   UNL     1       2.886   5.037  19.982  0.00  0.00    +0.000 A 
ATOM     12  C   UNL     1       2.719   6.431  19.491  0.00  0.00    +0.000 C 
ATOM     13  H   UNL     1       1.902   1.812  22.542  0.00  0.00    +0.000 HD
ATOM     14  H   UNL     1       0.906   3.184  22.734  0.00  0.00    +0.000 HD
ENDBRANCH   4   6
BRANCH   1  15
ATOM     15  C   UNL     1       6.176   3.844  15.319  0.00  0.00    +0.000 C 
BRANCH  15  16
ATOM     16  C   UNL     1       6.308   5.087  14.451  0.00  0.00    +0.000 C 
BRANCH  16  18
ATOM     17  C   UNL     1       7.995   5.348  12.828  0.00  0.00    +0.000 C 
ATOM     18  O   UNL     1       7.694   5.354  14.220  0.00  0.00    +0.000 OA
ENDBRANCH  16  18
ENDBRANCH  15  16
ENDBRANCH   1  15
TORSDOF 4
ENDMDL
MODEL 8
REMARK VINA RESULT:      -5.9      1.971      2.853
REMARK  Name = 
REMARK  6 active torsions:
REMARK  status: ('A' for Active; 'I' for Inactive)
REMARK    1  A    between atoms: C_1  and  O_2
REMARK    2  A    between atoms: O_2  and  C_3
REMARK    3  A    between atoms: C_3  and  C_4
REMARK    4  A    between atoms: C_4  and  N_5
REMARK    5  A    between atoms: C_8  and  C_9
REMARK    6  A    between atoms: C_14  and  C_15
REMARK                            x       y       z     vdW  Elec       q    Type
REMARK                         _______ _______ _______ _____ _____    ______ ____
ROOT
ATOM      1  N   UNL     1       5.545   5.261  16.647  0.00  0.00    +0.000 N 
ATOM      2  C   UNL     1       6.576   5.404  17.528  0.00  0.00    +0.000 A 
ATOM      3  C   UNL     1       6.049   5.123  18.766  0.00  0.00    +0.000 A 
ATOM      4  C   UNL     1       4.691   4.794  18.533  0.00  0.00    +0.000 A 
ATOM      5  N   UNL     1       4.395   4.876  17.229  0.00  0.00    +0.000 NA
ENDROOT
BRANCH   4   6
ATOM      6  C   UNL     1       3.681   4.399  19.568  0.00  0.00    +0.000 A 
ATOM      7  S   UNL     1       3.579   2.830  20.254  0.00  0.00    +0.000 S 
ATOM      8  C   UNL     1       2.239   3.327  21.194  0.00  0.00    +0.000 A 
ATOM      9  N   UNL     1       1.607   2.476  22.017  0.00  0.00    +0.000 N 
ATOM     10  N   UNL     1       1.889   4.579  21.057  0.00  0.00    +0.000 NA
ATOM     11  C   UNL     1       2.696   5.208  20.113  0.00  0.00    +0.000 A 
ATOM     12  C   UNL     1       2.393   6.628  19.789  0.00  0.00    +0.000 C 
ATOM     13  H   UNL     1       2.099   1.649  22.328  0.00  0.00    +0.000 HD
ATOM     14  H   UNL     1       1.003   2.901  22.710  0.00  0.00    +0.000 HD
ENDBRANCH   4   6
BRANCH   1  15
ATOM     15  C   UNL     1       5.580   5.494  15.218  0.00  0.00    +0.000 C 
BRANCH  15  16
ATOM     16  C   UNL     1       6.718   4.737  14.547  0.00  0.00    +0.000 C 
BRANCH  16  18
ATOM     17  C   UNL     1       6.270   3.569  12.551  0.00  0.00    +0.000 C 
ATOM     18  O   UNL     1       6.205   3.530  13.973  0.00  0.00    +0.000 OA
ENDBRANCH  16  18
ENDBRANCH  15  16
ENDBRANCH   1  15
TORSDOF 4
ENDMDL
MODEL 9
REMARK VINA RESULT:      -5.8      3.157      6.383
REMARK  Name = 
REMARK  6 active torsions:
REMARK  status: ('A' for Active; 'I' for Inactive)
REMARK    1  A    between atoms: C_1  and  O_2
REMARK    2  A    between atoms: O_2  and  C_3
REMARK    3  A    between atoms: C_3  and  C_4
REMARK    4  A    between atoms: C_4  and  N_5
REMARK    5  A    between atoms: C_8  and  C_9
REMARK    6  A    between atoms: C_14  and  C_15
REMARK                            x       y       z     vdW  Elec       q    Type
REMARK                         _______ _______ _______ _____ _____    ______ ____
ROOT
ATOM      1  N   UNL     1       3.113   5.208  19.474  0.00  0.00    +0.000 N 
ATOM      2  C   UNL     1       2.691   6.440  19.067  0.00  0.00    +0.000 A 
ATOM      3  C   UNL     1       3.478   6.766  17.989  0.00  0.00    +0.000 A 
ATOM      4  C   UNL     1       4.337   5.655  17.799  0.00  0.00    +0.000 A 
ATOM      5  N   UNL     1       4.099   4.703  18.711  0.00  0.00    +0.000 NA
ENDROOT
BRANCH   4   6
ATOM      6  C   UNL     1       5.384   5.512  16.735  0.00  0.00    +0.000 A 
ATOM      7  S   UNL     1       5.154   4.638  15.278  0.00  0.00    +0.000 S 
ATOM      8  C   UNL     1       6.758   4.999  14.806  0.00  0.00    +0.000 A 
ATOM      9  N   UNL     1       7.268   4.542  13.652  0.00  0.00    +0.000 N 
ATOM     10  N   UNL     1       7.434   5.748  15.637  0.00  0.00    +0.000 NA
ATOM     11  C   UNL     1       6.667   6.039  16.762  0.00  0.00    +0.000 A 
ATOM     12  C   UNL     1       7.309   6.835  17.843  0.00  0.00    +0.000 C 
ATOM     13  H   UNL     1       6.630   4.263  12.919  0.00  0.00    +0.000 HD
ATOM     14  H   UNL     1       8.113   4.999  13.333  0.00  0.00    +0.000 HD
ENDBRANCH   4   6
BRANCH   1  15
ATOM     15  C   UNL     1       2.625   4.449  20.607  0.00  0.00    +0.000 C 
BRANCH  15  16
ATOM     16  C   UNL     1       1.137   4.147  20.490  0.00  0.00    +0.000 C 
BRANCH  16  18
ATOM     17  C   UNL     1       0.851   2.498  18.833  0.00  0.00    +0.000 C 
ATOM     18  O   UNL     1       0.960   2.751  20.230  0.00  0.00    +0.000 OA
ENDBRANCH  16  18
ENDBRANCH  15  16
ENDBRANCH   1  15
TORSDOF 4
ENDMDL
