MODEL 1
REMARK VINA RESULT:      -7.8      0.000      0.000
REMARK  Name = 
REMARK  6 active torsions:
REMARK  status: ('A' for Active; 'I' for Inactive)
REMARK    1  A    between atoms: C_1  and  N_2
REMARK    2  A    between atoms: N_2  and  C_3
REMARK    3  A    between atoms: N_2  and  C_4
REMARK    4  A    between atoms: C_7  and  N_8
REMARK    5  A    between atoms: C_9  and  C_11
REMARK    6  A    between atoms: C_11  and  N_12
REMARK                            x       y       z     vdW  Elec       q    Type
REMARK                         _______ _______ _______ _____ _____    ______ ____
ROOT
ATOM      1  C   UNL     1       5.758   5.682  16.578  0.00  0.00    +0.000 C 
ENDROOT
BRANCH   1   2
ATOM      2  N   UNL     1       5.457   4.341  17.070  0.00  0.00    +0.000 N 
ATOM      3  N   UNL     1       4.575   3.616  16.227  0.00  0.00    +0.000 NA
ATOM      4  C   UNL     1       3.689   2.852  16.790  0.00  0.00    +0.000 A 
ATOM      5  N   UNL     1       3.670   2.731  18.164  0.00  0.00    +0.000 N 
ATOM      6  C   UNL     1       4.813   2.938  18.882  0.00  0.00    +0.000 A 
ATOM      7  C   UNL     1       4.513   2.233  20.041  0.00  0.00    +0.000 A 
ATOM      8  C   UNL     1       3.207   2.743  20.316  0.00  0.00    +0.000 A 
ATOM      9  C   UNL     1       2.454   3.005  21.473  0.00  0.00    +0.000 A 
ATOM     10  C   UNL     1       1.291   3.778  21.338  0.00  0.00    +0.000 A 
ATOM     11  C   UNL     1       0.835   4.188  20.083  0.00  0.00    +0.000 A 
ATOM     12  C   UNL     1       1.487   3.803  18.908  0.00  0.00    +0.000 A 
ATOM     13  C   UNL     1       2.677   3.090  19.064  0.00  0.00    +0.000 A 
ATOM     14  C   UNL     1       5.588   4.084  18.467  0.00  0.00    +0.000 A 
ATOM     15  O   UNL     1       6.125   4.855  19.244  0.00  0.00    +0.000 OA
ENDBRANCH   1   2
BRANCH   1  17
ATOM     16  N   UNL     1       3.738   6.496  17.646  0.00  0.00    +0.000 N 
ATOM     17  C   UNL     1       5.079   6.762  17.395  0.00  0.00    +0.000 C 
ATOM     18  O   UNL     1       5.713   7.731  17.807  0.00  0.00    +0.000 OA
ATOM     19  H   UNL     1       3.465   5.520  17.582  0.00  0.00    +0.000 HD
BRANCH  16  23
ATOM     20  C   UNL     1       1.085   9.096  19.741  0.00  0.00    +0.000 A 
ATOM     21  C   UNL     1       1.353   9.262  18.378  0.00  0.00    +0.000 A 
ATOM     22  C   UNL     1       2.212   8.415  17.667  0.00  0.00    +0.000 A 
ATOM     23  C   UNL     1       2.838   7.353  18.304  0.00  0.00    +0.000 A 
ATOM     24  C   UNL     1       2.544   7.115  19.642  0.00  0.00    +0.000 A 
ATOM     25  C   UNL     1       1.677   7.972  20.345  0.00  0.00    +0.000 A 
BRANCH  20  27
ATOM     26  C   UNL     1      -0.186   9.600  21.787  0.00  0.00    +0.000 C 
ATOM     27  N   UNL     1       0.256   9.967  20.446  0.00  0.00    +0.000 N 
ATOM     28  C   UNL     1      -0.688  10.741  19.673  0.00  0.00    +0.000 C 
ENDBRANCH  20  27
ENDBRANCH  16  23
ENDBRANCH   1  17
TORSDOF 4
ENDMDL
MODEL 2
REMARK VINA RESULT:      -7.7      0.242      1.135
REMARK  Name = 
REMARK  6 active torsions:
REMARK  status: ('A' for Active; 'I' for Inactive)
REMARK    1  A    between atoms: C_1  and  N_2
REMARK    2  A    between atoms: N_2  and  C_3
REMARK    3  A    between atoms: N_2  and  C_4
REMARK    4  A    between atoms: C_7  and  N_8
REMARK    5  A    between atoms: C_9  and  C_11
REMARK    6  A    between atoms: C_11  and  N_12
REMARK                            x       y       z     vdW  Elec       q    Type
REMARK                         _______ _______ _______ _____ _____    ______ ____
ROOT
ATOM      1  C   UNL     1       5.760   5.653  16.565  0.00  0.00    +0.000 C 
ENDROOT
BRANCH   1   2
ATOM      2  N   UNL     1       5.452   4.314  17.059  0.00  0.00    +0.000 N 
ATOM      3  N   UNL     1       4.554   3.598  16.225  0.00  0.00    +0.000 NA
ATOM      4  C   UNL     1       3.668   2.841  16.797  0.00  0.00    +0.000 A 
ATOM      5  N   UNL     1       3.663   2.719  18.171  0.00  0.00    +0.000 N 
ATOM      6  C   UNL     1       4.816   2.915  18.876  0.00  0.00    +0.000 A 
ATOM      7  C   UNL     1       4.522   2.210  20.038  0.00  0.00    +0.000 A 
ATOM      8  C   UNL     1       3.225   2.732  20.328  0.00  0.00    +0.000 A 
ATOM      9  C   UNL     1       2.487   3.000  21.494  0.00  0.00    +0.000 A 
ATOM     10  C   UNL     1       1.329   3.783  21.374  0.00  0.00    +0.000 A 
ATOM     11  C   UNL     1       0.864   4.199  20.124  0.00  0.00    +0.000 A 
ATOM     12  C   UNL     1       1.499   3.810  18.941  0.00  0.00    +0.000 A 
ATOM     13  C   UNL     1       2.684   3.086  19.082  0.00  0.00    +0.000 A 
ATOM     14  C   UNL     1       5.597   4.053  18.455  0.00  0.00    +0.000 A 
ATOM     15  O   UNL     1       6.150   4.818  19.226  0.00  0.00    +0.000 OA
ENDBRANCH   1   2
BRANCH   1  17
ATOM     16  N   UNL     1       3.764   6.467  17.678  0.00  0.00    +0.000 N 
ATOM     17  C   UNL     1       5.096   6.737  17.388  0.00  0.00    +0.000 C 
ATOM     18  O   UNL     1       5.734   7.715  17.772  0.00  0.00    +0.000 OA
ATOM     19  H   UNL     1       3.496   5.488  17.632  0.00  0.00    +0.000 HD
BRANCH  16  23
ATOM     20  C   UNL     1       0.996   9.069  19.614  0.00  0.00    +0.000 A 
ATOM     21  C   UNL     1       1.613   8.014  20.294  0.00  0.00    +0.000 A 
ATOM     22  C   UNL     1       2.533   7.154  19.683  0.00  0.00    +0.000 A 
ATOM     23  C   UNL     1       2.876   7.325  18.350  0.00  0.00    +0.000 A 
ATOM     24  C   UNL     1       2.336   8.404  17.658  0.00  0.00    +0.000 A 
ATOM     25  C   UNL     1       1.415   9.264  18.284  0.00  0.00    +0.000 A 
BRANCH  20  27
ATOM     26  C   UNL     1      -0.837  10.696  19.390  0.00  0.00    +0.000 C 
ATOM     27  N   UNL     1       0.055   9.898  20.224  0.00  0.00    +0.000 N 
ATOM     28  C   UNL     1       0.434  10.502  21.481  0.00  0.00    +0.000 C 
ENDBRANCH  20  27
ENDBRANCH  16  23
ENDBRANCH   1  17
TORSDOF 4
ENDMDL
MODEL 3
REMARK VINA RESULT:      -7.6      5.019      6.191
REMARK  Name = 
REMARK  6 active torsions:
REMARK  status: ('A' for Active; 'I' for Inactive)
REMARK    1  A    between atoms: C_1  and  N_2
REMARK    2  A    between atoms: N_2  and  C_3
REMARK    3  A    between atoms: N_2  and  C_4
REMARK    4  A    between atoms: C_7  and  N_8
REMARK    5  A    between atoms: C_9  and  C_11
REMARK    6  A    between atoms: C_11  and  N_12
REMARK                            x       y       z     vdW  Elec       q    Type
REMARK                         _______ _______ _______ _____ _____    ______ ____
ROOT
ATOM      1  C   UNL     1       7.662   6.622  18.505  0.00  0.00    +0.000 C 
ENDROOT
BRANCH   1   2
ATOM      2  N   UNL     1       6.549   6.142  17.692  0.00  0.00    +0.000 N 
ATOM      3  N   UNL     1       5.783   7.187  17.111  0.00  0.00    +0.000 NA
ATOM      4  C   UNL     1       4.497   7.028  17.038  0.00  0.00    +0.000 A 
ATOM      5  N   UNL     1       3.932   5.847  17.471  0.00  0.00    +0.000 N 
ATOM      6  C   UNL     1       4.670   4.698  17.468  0.00  0.00    +0.000 A 
ATOM      7  C   UNL     1       3.655   3.748  17.441  0.00  0.00    +0.000 A 
ATOM      8  C   UNL     1       2.819   4.243  18.488  0.00  0.00    +0.000 A 
ATOM      9  C   UNL     1       1.965   3.672  19.448  0.00  0.00    +0.000 A 
ATOM     10  C   UNL     1       1.522   4.486  20.500  0.00  0.00    +0.000 A 
ATOM     11  C   UNL     1       1.831   5.848  20.541  0.00  0.00    +0.000 A 
ATOM     12  C   UNL     1       2.548   6.466  19.512  0.00  0.00    +0.000 A 
ATOM     13  C   UNL     1       3.036   5.630  18.507  0.00  0.00    +0.000 A 
ATOM     14  C   UNL     1       6.019   4.845  17.960  0.00  0.00    +0.000 A 
ATOM     15  O   UNL     1       6.566   4.035  18.690  0.00  0.00    +0.000 OA
ENDBRANCH   1   2
BRANCH   1  17
ATOM     16  N   UNL     1       8.773   8.680  19.146  0.00  0.00    +0.000 N 
ATOM     17  C   UNL     1       8.086   8.027  18.130  0.00  0.00    +0.000 C 
ATOM     18  O   UNL     1       7.858   8.475  17.009  0.00  0.00    +0.000 OA
ATOM     19  H   UNL     1       9.209   8.077  19.839  0.00  0.00    +0.000 HD
BRANCH  16  23
ATOM     20  C   UNL     1      10.187  12.703  19.154  0.00  0.00    +0.000 A 
ATOM     21  C   UNL     1       9.974  12.001  17.963  0.00  0.00    +0.000 A 
ATOM     22  C   UNL     1       9.500  10.684  17.935  0.00  0.00    +0.000 A 
ATOM     23  C   UNL     1       9.214  10.015  19.117  0.00  0.00    +0.000 A 
ATOM     24  C   UNL     1       9.348  10.702  20.318  0.00  0.00    +0.000 A 
ATOM     25  C   UNL     1       9.822  12.027  20.333  0.00  0.00    +0.000 A 
BRANCH  20  27
ATOM     26  C   UNL     1      11.554  14.445  18.080  0.00  0.00    +0.000 C 
ATOM     27  N   UNL     1      10.692  14.003  19.171  0.00  0.00    +0.000 N 
ATOM     28  C   UNL     1      10.989  14.573  20.465  0.00  0.00    +0.000 C 
ENDBRANCH  20  27
ENDBRANCH  16  23
ENDBRANCH   1  17
TORSDOF 4
ENDMDL
MODEL 4
REMARK VINA RESULT:      -7.5      4.853      6.021
REMARK  Name = 
REMARK  6 active torsions:
REMARK  status: ('A' for Active; 'I' for Inactive)
REMARK    1  A    between atoms: C_1  and  N_2
REMARK    2  A    between atoms: N_2  and  C_3
REMARK    3  A    between atoms: N_2  and  C_4
REMARK    4  A    between atoms: C_7  and  N_8
REMARK    5  A    between atoms: C_9  and  C_11
REMARK    6  A    between atoms: C_11  and  N_12
REMARK                            x       y       z     vdW  Elec       q    Type
REMARK                         _______ _______ _______ _____ _____    ______ ____
ROOT
ATOM      1  C   UNL     1       7.544   6.508  18.539  0.00  0.00    +0.000 C 
ENDROOT
BRANCH   1   2
ATOM      2  N   UNL     1       6.419   6.053  17.728  0.00  0.00    +0.000 N 
ATOM      3  N   UNL     1       5.651   7.114  17.183  0.00  0.00    +0.000 NA
ATOM      4  C   UNL     1       4.363   6.962  17.122  0.00  0.00    +0.000 A 
ATOM      5  N   UNL     1       3.799   5.772  17.532  0.00  0.00    +0.000 N 
ATOM      6  C   UNL     1       4.532   4.621  17.491  0.00  0.00    +0.000 A 
ATOM      7  C   UNL     1       3.514   3.675  17.453  0.00  0.00    +0.000 A 
ATOM      8  C   UNL     1       2.692   4.147  18.521  0.00  0.00    +0.000 A 
ATOM      9  C   UNL     1       1.848   3.554  19.477  0.00  0.00    +0.000 A 
ATOM     10  C   UNL     1       1.421   4.343  20.554  0.00  0.00    +0.000 A 
ATOM     11  C   UNL     1       1.735   5.702  20.626  0.00  0.00    +0.000 A 
ATOM     12  C   UNL     1       2.442   6.344  19.605  0.00  0.00    +0.000 A 
ATOM     13  C   UNL     1       2.915   5.531  18.573  0.00  0.00    +0.000 A 
ATOM     14  C   UNL     1       5.888   4.750  17.970  0.00  0.00    +0.000 A 
ATOM     15  O   UNL     1       6.441   3.921  18.673  0.00  0.00    +0.000 OA
ENDBRANCH   1   2
BRANCH   1  17
ATOM     16  N   UNL     1       8.606   8.609  19.120  0.00  0.00    +0.000 N 
ATOM     17  C   UNL     1       8.078   7.850  18.083  0.00  0.00    +0.000 C 
ATOM     18  O   UNL     1       8.060   8.163  16.895  0.00  0.00    +0.000 OA
ATOM     19  H   UNL     1       8.896   8.087  19.943  0.00  0.00    +0.000 HD
BRANCH  16  23
ATOM     20  C   UNL     1       9.972  12.634  18.773  0.00  0.00    +0.000 A 
ATOM     21  C   UNL     1      10.471  11.770  19.753  0.00  0.00    +0.000 A 
ATOM     22  C   UNL     1      10.046  10.442  19.880  0.00  0.00    +0.000 A 
ATOM     23  C   UNL     1       9.096   9.923  19.013  0.00  0.00    +0.000 A 
ATOM     24  C   UNL     1       8.625  10.730  17.983  0.00  0.00    +0.000 A 
ATOM     25  C   UNL     1       9.062  12.062  17.864  0.00  0.00    +0.000 A 
BRANCH  20  27
ATOM     26  C   UNL     1      11.121  14.562  19.782  0.00  0.00    +0.000 C 
ATOM     27  N   UNL     1      10.377  13.965  18.679  0.00  0.00    +0.000 N 
ATOM     28  C   UNL     1       9.504  14.865  17.962  0.00  0.00    +0.000 C 
ENDBRANCH  20  27
ENDBRANCH  16  23
ENDBRANCH   1  17
TORSDOF 4
ENDMDL
MODEL 5
REMARK VINA RESULT:      -7.5      5.311      6.396
REMARK  Name = 
REMARK  6 active torsions:
REMARK  status: ('A' for Active; 'I' for Inactive)
REMARK    1  A    between atoms: C_1  and  N_2
REMARK    2  A    between atoms: N_2  and  C_3
REMARK    3  A    between atoms: N_2  and  C_4
REMARK    4  A    between atoms: C_7  and  N_8
REMARK    5  A    between atoms: C_9  and  C_11
REMARK    6  A    between atoms: C_11  and  N_12
REMARK                            x       y       z     vdW  Elec       q    Type
REMARK                         _______ _______ _______ _____ _____    ______ ____
ROOT
ATOM      1  C   UNL     1       7.985   7.084  18.475  0.00  0.00    +0.000 C 
ENDROOT
BRANCH   1   2
ATOM      2  N   UNL     1       7.239   6.460  17.386  0.00  0.00    +0.000 N 
ATOM      3  N   UNL     1       6.291   7.327  16.782  0.00  0.00    +0.000 NA
ATOM      4  C   UNL     1       5.156   6.820  16.411  0.00  0.00    +0.000 A 
ATOM      5  N   UNL     1       4.933   5.468  16.564  0.00  0.00    +0.000 N 
ATOM      6  C   UNL     1       5.987   4.601  16.585  0.00  0.00    +0.000 A 
ATOM      7  C   UNL     1       5.349   3.420  16.222  0.00  0.00    +0.000 A 
ATOM      8  C   UNL     1       4.233   3.454  17.112  0.00  0.00    +0.000 A 
ATOM      9  C   UNL     1       3.455   2.496  17.786  0.00  0.00    +0.000 A 
ATOM     10  C   UNL     1       2.602   2.942  18.806  0.00  0.00    +0.000 A 
ATOM     11  C   UNL     1       2.448   4.304  19.077  0.00  0.00    +0.000 A 
ATOM     12  C   UNL     1       3.096   5.279  18.313  0.00  0.00    +0.000 A 
ATOM     13  C   UNL     1       3.989   4.817  17.346  0.00  0.00    +0.000 A 
ATOM     14  C   UNL     1       7.114   5.039  17.374  0.00  0.00    +0.000 A 
ATOM     15  O   UNL     1       7.757   4.303  18.103  0.00  0.00    +0.000 OA
ENDBRANCH   1   2
BRANCH   1  17
ATOM     16  N   UNL     1       9.082   9.129  19.180  0.00  0.00    +0.000 N 
ATOM     17  C   UNL     1       8.272   8.548  18.212  0.00  0.00    +0.000 C 
ATOM     18  O   UNL     1       7.843   9.101  17.202  0.00  0.00    +0.000 OA
ATOM     19  H   UNL     1       9.654   8.485  19.718  0.00  0.00    +0.000 HD
BRANCH  16  23
ATOM     20  C   UNL     1      10.128  13.262  19.262  0.00  0.00    +0.000 A 
ATOM     21  C   UNL     1       9.678  12.595  20.406  0.00  0.00    +0.000 A 
ATOM     22  C   UNL     1       9.339  11.236  20.406  0.00  0.00    +0.000 A 
ATOM     23  C   UNL     1       9.445  10.486  19.244  0.00  0.00    +0.000 A 
ATOM     24  C   UNL     1       9.953  11.098  18.103  0.00  0.00    +0.000 A 
ATOM     25  C   UNL     1      10.293  12.463  18.117  0.00  0.00    +0.000 A 
BRANCH  20  27
ATOM     26  C   UNL     1      11.303  15.157  20.306  0.00  0.00    +0.000 C 
ATOM     27  N   UNL     1      10.429  14.624  19.267  0.00  0.00    +0.000 N 
ATOM     28  C   UNL     1       9.397  15.523  18.804  0.00  0.00    +0.000 C 
ENDBRANCH  20  27
ENDBRANCH  16  23
ENDBRANCH   1  17
TORSDOF 4
ENDMDL
MODEL 6
REMARK VINA RESULT:      -7.4      5.262      6.291
REMARK  Name = 
REMARK  6 active torsions:
REMARK  status: ('A' for Active; 'I' for Inactive)
REMARK    1  A    between atoms: C_1  and  N_2
REMARK    2  A    between atoms: N_2  and  C_3
REMARK    3  A    between atoms: N_2  and  C_4
REMARK    4  A    between atoms: C_7  and  N_8
REMARK    5  A    between atoms: C_9  and  C_11
REMARK    6  A    between atoms: C_11  and  N_12
REMARK                            x       y       z     vdW  Elec       q    Type
REMARK                         _______ _______ _______ _____ _____    ______ ____
ROOT
ATOM      1  C   UNL     1       7.901   6.971  18.468  0.00  0.00    +0.000 C 
ENDROOT
BRANCH   1   2
ATOM      2  N   UNL     1       6.956   6.430  17.495  0.00  0.00    +0.000 N 
ATOM      3  N   UNL     1       5.855   7.289  17.241  0.00  0.00    +0.000 NA
ATOM      4  C   UNL     1       4.690   6.744  17.063  0.00  0.00    +0.000 A 
ATOM      5  N   UNL     1       4.574   5.370  17.073  0.00  0.00    +0.000 N 
ATOM      6  C   UNL     1       5.645   4.593  16.741  0.00  0.00    +0.000 A 
ATOM      7  C   UNL     1       4.999   3.419  16.368  0.00  0.00    +0.000 A 
ATOM      8  C   UNL     1       4.116   3.255  17.478  0.00  0.00    +0.000 A 
ATOM      9  C   UNL     1       3.561   2.163  18.167  0.00  0.00    +0.000 A 
ATOM     10  C   UNL     1       2.943   2.411  19.402  0.00  0.00    +0.000 A 
ATOM     11  C   UNL     1       2.790   3.712  19.886  0.00  0.00    +0.000 A 
ATOM     12  C   UNL     1       3.197   4.822  19.140  0.00  0.00    +0.000 A 
ATOM     13  C   UNL     1       3.867   4.555  17.945  0.00  0.00    +0.000 A 
ATOM     14  C   UNL     1       6.901   5.016  17.315  0.00  0.00    +0.000 A 
ATOM     15  O   UNL     1       7.728   4.248  17.774  0.00  0.00    +0.000 OA
ENDBRANCH   1   2
BRANCH   1  17
ATOM     16  N   UNL     1       9.001   9.004  19.201  0.00  0.00    +0.000 N 
ATOM     17  C   UNL     1       8.249   8.419  18.191  0.00  0.00    +0.000 C 
ATOM     18  O   UNL     1       7.911   8.956  17.138  0.00  0.00    +0.000 OA
ATOM     19  H   UNL     1       9.513   8.359  19.797  0.00  0.00    +0.000 HD
BRANCH  16  23
ATOM     20  C   UNL     1      10.261  13.069  19.484  0.00  0.00    +0.000 A 
ATOM     21  C   UNL     1      10.299  12.370  18.273  0.00  0.00    +0.000 A 
ATOM     22  C   UNL     1       9.880  11.039  18.154  0.00  0.00    +0.000 A 
ATOM     23  C   UNL     1       9.398  10.352  19.258  0.00  0.00    +0.000 A 
ATOM     24  C   UNL     1       9.281  11.034  20.465  0.00  0.00    +0.000 A 
ATOM     25  C   UNL     1       9.702  12.372  20.572  0.00  0.00    +0.000 A 
BRANCH  20  27
ATOM     26  C   UNL     1      10.793  14.995  20.919  0.00  0.00    +0.000 C 
ATOM     27  N   UNL     1      10.713  14.383  19.598  0.00  0.00    +0.000 N 
ATOM     28  C   UNL     1      10.385  15.283  18.516  0.00  0.00    +0.000 C 
ENDBRANCH  20  27
ENDBRANCH  16  23
ENDBRANCH   1  17
TORSDOF 4
ENDMDL
MODEL 7
REMARK VINA RESULT:      -7.2      3.912      5.320
REMARK  Name = 
REMARK  6 active torsions:
REMARK  status: ('A' for Active; 'I' for Inactive)
REMARK    1  A    between atoms: C_1  and  N_2
REMARK    2  A    between atoms: N_2  and  C_3
REMARK    3  A    between atoms: N_2  and  C_4
REMARK    4  A    between atoms: C_7  and  N_8
REMARK    5  A    between atoms: C_9  and  C_11
REMARK    6  A    between atoms: C_11  and  N_12
REMARK                            x       y       z     vdW  Elec       q    Type
REMARK                         _______ _______ _______ _____ _____    ______ ____
ROOT
ATOM      1  C   UNL     1       6.532   5.274  17.280  0.00  0.00    +0.000 C 
ENDROOT
BRANCH   1   2
ATOM      2  N   UNL     1       5.097   5.473  17.104  0.00  0.00    +0.000 N 
ATOM      3  N   UNL     1       4.633   6.714  17.611  0.00  0.00    +0.000 NA
ATOM      4  C   UNL     1       3.473   6.737  18.193  0.00  0.00    +0.000 A 
ATOM      5  N   UNL     1       2.718   5.583  18.249  0.00  0.00    +0.000 N 
ATOM      6  C   UNL     1       2.887   4.613  17.304  0.00  0.00    +0.000 A 
ATOM      7  C   UNL     1       1.665   3.956  17.397  0.00  0.00    +0.000 A 
ATOM      8  C   UNL     1       1.576   3.788  18.812  0.00  0.00    +0.000 A 
ATOM      9  C   UNL     1       1.027   2.825  19.678  0.00  0.00    +0.000 A 
ATOM     10  C   UNL     1       1.392   2.875  21.031  0.00  0.00    +0.000 A 
ATOM     11  C   UNL     1       2.192   3.906  21.528  0.00  0.00    +0.000 A 
ATOM     12  C   UNL     1       2.619   4.958  20.712  0.00  0.00    +0.000 A 
ATOM     13  C   UNL     1       2.301   4.860  19.356  0.00  0.00    +0.000 A 
ATOM     14  C   UNL     1       4.262   4.323  16.972  0.00  0.00    +0.000 A 
ATOM     15  O   UNL     1       4.694   3.197  16.798  0.00  0.00    +0.000 OA
ENDBRANCH   1   2
BRANCH   1  17
ATOM     16  N   UNL     1       7.334   7.559  17.408  0.00  0.00    +0.000 N 
ATOM     17  C   UNL     1       7.169   6.370  18.108  0.00  0.00    +0.000 C 
ATOM     18  O   UNL     1       7.448   6.183  19.290  0.00  0.00    +0.000 OA
ATOM     19  H   UNL     1       6.729   7.680  16.601  0.00  0.00    +0.000 HD
BRANCH  16  23
ATOM     20  C   UNL     1       9.151  11.134  18.859  0.00  0.00    +0.000 A 
ATOM     21  C   UNL     1       9.443   9.884  19.413  0.00  0.00    +0.000 A 
ATOM     22  C   UNL     1       8.867   8.695  18.947  0.00  0.00    +0.000 A 
ATOM     23  C   UNL     1       7.969   8.718  17.890  0.00  0.00    +0.000 A 
ATOM     24  C   UNL     1       7.705   9.933  17.268  0.00  0.00    +0.000 A 
ATOM     25  C   UNL     1       8.292  11.120  17.744  0.00  0.00    +0.000 A 
BRANCH  20  27
ATOM     26  C   UNL     1       9.664  12.570  20.790  0.00  0.00    +0.000 C 
ATOM     27  N   UNL     1       9.703  12.315  19.355  0.00  0.00    +0.000 N 
ATOM     28  C   UNL     1       9.606  13.486  18.514  0.00  0.00    +0.000 C 
ENDBRANCH  20  27
ENDBRANCH  16  23
ENDBRANCH   1  17
TORSDOF 4
ENDMDL
MODEL 8
REMARK VINA RESULT:      -7.1      1.568      2.064
REMARK  Name = 
REMARK  6 active torsions:
REMARK  status: ('A' for Active; 'I' for Inactive)
REMARK    1  A    between atoms: C_1  and  N_2
REMARK    2  A    between atoms: N_2  and  C_3
REMARK    3  A    between atoms: N_2  and  C_4
REMARK    4  A    between atoms: C_7  and  N_8
REMARK    5  A    between atoms: C_9  and  C_11
REMARK    6  A    between atoms: C_11  and  N_12
REMARK                            x       y       z     vdW  Elec       q    Type
REMARK                         _______ _______ _______ _____ _____    ______ ____
ROOT
ATOM      1  C   UNL     1       4.527   6.936  17.359  0.00  0.00    +0.000 C 
ENDROOT
BRANCH   1   2
ATOM      2  N   UNL     1       4.677   5.491  17.506  0.00  0.00    +0.000 N 
ATOM      3  N   UNL     1       3.941   4.747  16.548  0.00  0.00    +0.000 NA
ATOM      4  C   UNL     1       3.381   3.643  16.938  0.00  0.00    +0.000 A 
ATOM      5  N   UNL     1       3.561   3.210  18.235  0.00  0.00    +0.000 N 
ATOM      6  C   UNL     1       4.676   3.583  18.928  0.00  0.00    +0.000 A 
ATOM      7  C   UNL     1       4.728   2.573  19.882  0.00  0.00    +0.000 A 
ATOM      8  C   UNL     1       3.374   2.586  20.337  0.00  0.00    +0.000 A 
ATOM      9  C   UNL     1       2.722   2.335  21.557  0.00  0.00    +0.000 A 
ATOM     10  C   UNL     1       1.381   2.728  21.677  0.00  0.00    +0.000 A 
ATOM     11  C   UNL     1       0.681   3.258  20.590  0.00  0.00    +0.000 A 
ATOM     12  C   UNL     1       1.270   3.370  19.326  0.00  0.00    +0.000 A 
ATOM     13  C   UNL     1       2.622   3.035  19.241  0.00  0.00    +0.000 A 
ATOM     14  C   UNL     1       5.042   4.972  18.784  0.00  0.00    +0.000 A 
ATOM     15  O   UNL     1       5.429   5.670  19.706  0.00  0.00    +0.000 OA
ENDBRANCH   1   2
BRANCH   1  17
ATOM     16  N   UNL     1       2.860   8.697  17.433  0.00  0.00    +0.000 N 
ATOM     17  C   UNL     1       3.206   7.437  17.906  0.00  0.00    +0.000 C 
ATOM     18  O   UNL     1       2.529   6.736  18.655  0.00  0.00    +0.000 OA
ATOM     19  H   UNL     1       3.302   8.973  16.560  0.00  0.00    +0.000 HD
BRANCH  16  23
ATOM     20  C   UNL     1      -0.480  11.075  18.603  0.00  0.00    +0.000 A 
ATOM     21  C   UNL     1      -0.641   9.881  17.893  0.00  0.00    +0.000 A 
ATOM     22  C   UNL     1       0.440   9.078  17.508  0.00  0.00    +0.000 A 
ATOM     23  C   UNL     1       1.738   9.446  17.828  0.00  0.00    +0.000 A 
ATOM     24  C   UNL     1       1.934  10.592  18.591  0.00  0.00    +0.000 A 
ATOM     25  C   UNL     1       0.840  11.389  18.975  0.00  0.00    +0.000 A 
BRANCH  20  27
ATOM     26  C   UNL     1      -1.620  12.457  20.290  0.00  0.00    +0.000 C 
ATOM     27  N   UNL     1      -1.561  11.884  18.950  0.00  0.00    +0.000 N 
ATOM     28  C   UNL     1      -2.839  11.556  18.360  0.00  0.00    +0.000 C 
ENDBRANCH  20  27
ENDBRANCH  16  23
ENDBRANCH   1  17
TORSDOF 4
ENDMDL
MODEL 9
REMARK VINA RESULT:      -7.1      1.524      2.137
REMARK  Name = 
REMARK  6 active torsions:
REMARK  status: ('A' for Active; 'I' for Inactive)
REMARK    1  A    between atoms: C_1  and  N_2
REMARK    2  A    between atoms: N_2  and  C_3
REMARK    3  A    between atoms: N_2  and  C_4
REMARK    4  A    between atoms: C_7  and  N_8
REMARK    5  A    between atoms: C_9  and  C_11
REMARK    6  A    between atoms: C_11  and  N_12
REMARK                            x       y       z     vdW  Elec       q    Type
REMARK                         _______ _______ _______ _____ _____    ______ ____
ROOT
ATOM      1  C   UNL     1       4.514   6.923  17.370  0.00  0.00    +0.000 C 
ENDROOT
BRANCH   1   2
ATOM      2  N   UNL     1       4.669   5.480  17.527  0.00  0.00    +0.000 N 
ATOM      3  N   UNL     1       3.947   4.727  16.564  0.00  0.00    +0.000 NA
ATOM      4  C   UNL     1       3.387   3.623  16.953  0.00  0.00    +0.000 A 
ATOM      5  N   UNL     1       3.554   3.198  18.255  0.00  0.00    +0.000 N 
ATOM      6  C   UNL     1       4.660   3.579  18.959  0.00  0.00    +0.000 A 
ATOM      7  C   UNL     1       4.705   2.574  19.919  0.00  0.00    +0.000 A 
ATOM      8  C   UNL     1       3.346   2.584  20.359  0.00  0.00    +0.000 A 
ATOM      9  C   UNL     1       2.680   2.337  21.572  0.00  0.00    +0.000 A 
ATOM     10  C   UNL     1       1.336   2.725  21.674  0.00  0.00    +0.000 A 
ATOM     11  C   UNL     1       0.647   3.246  20.576  0.00  0.00    +0.000 A 
ATOM     12  C   UNL     1       1.250   3.353  19.319  0.00  0.00    +0.000 A 
ATOM     13  C   UNL     1       2.605   3.024  19.251  0.00  0.00    +0.000 A 
ATOM     14  C   UNL     1       5.021   4.969  18.812  0.00  0.00    +0.000 A 
ATOM     15  O   UNL     1       5.394   5.673  19.735  0.00  0.00    +0.000 OA
ENDBRANCH   1   2
BRANCH   1  17
ATOM     16  N   UNL     1       2.887   8.716  17.504  0.00  0.00    +0.000 N 
ATOM     17  C   UNL     1       3.191   7.423  17.912  0.00  0.00    +0.000 C 
ATOM     18  O   UNL     1       2.478   6.696  18.600  0.00  0.00    +0.000 OA
ATOM     19  H   UNL     1       3.358   9.032  16.661  0.00  0.00    +0.000 HD
BRANCH  16  23
ATOM     20  C   UNL     1      -0.557  10.889  18.771  0.00  0.00    +0.000 A 
ATOM     21  C   UNL     1       0.736  11.291  19.122  0.00  0.00    +0.000 A 
ATOM     22  C   UNL     1       1.882  10.600  18.709  0.00  0.00    +0.000 A 
ATOM     23  C   UNL     1       1.772   9.468  17.915  0.00  0.00    +0.000 A 
ATOM     24  C   UNL     1       0.507   9.076  17.490  0.00  0.00    +0.000 A 
ATOM     25  C   UNL     1      -0.637   9.781  17.909  0.00  0.00    +0.000 A 
BRANCH  20  27
ATOM     26  C   UNL     1      -2.914  11.505  18.425  0.00  0.00    +0.000 C 
ATOM     27  N   UNL     1      -1.692  11.565  19.218  0.00  0.00    +0.000 N 
ATOM     28  C   UNL     1      -1.477  12.803  19.932  0.00  0.00    +0.000 C 
ENDBRANCH  20  27
ENDBRANCH  16  23
ENDBRANCH   1  17
TORSDOF 4
ENDMDL
