MODEL 1
REMARK VINA RESULT:      -8.1      0.000      0.000
REMARK  Name = 
REMARK  4 active torsions:
REMARK  status: ('A' for Active; 'I' for Inactive)
REMARK    1  A    between atoms: C_1  and  C_2
REMARK    2  A    between atoms: C_4  and  N_5
REMARK    3  A    between atoms: N_5  and  C_6
REMARK    4  A    between atoms: C_11  and  N_12
REMARK                            x       y       z     vdW  Elec       q    Type
REMARK                         _______ _______ _______ _____ _____    ______ ____
ROOT
ATOM      1  C   UNL     1       3.361   7.134  17.841  0.00  0.00    +0.000 C 
ATOM      2  C   UNL     1       3.472   5.634  17.832  0.00  0.00    +0.000 A 
ATOM      3  C   UNL     1       4.349   5.028  16.924  0.00  0.00    +0.000 A 
ATOM      4  C   UNL     1       4.545   3.655  16.974  0.00  0.00    +0.000 A 
ATOM      5  N   UNL     1       3.863   2.876  17.839  0.00  0.00    +0.000 NA
ATOM      6  C   UNL     1       2.979   3.433  18.682  0.00  0.00    +0.000 A 
ATOM      7  C   UNL     1       2.282   2.602  19.552  0.00  0.00    +0.000 A 
ATOM      8  C   UNL     1       1.353   3.100  20.467  0.00  0.00    +0.000 A 
ATOM      9  C   UNL     1       1.113   4.466  20.525  0.00  0.00    +0.000 A 
ATOM     10  C   UNL     1       1.805   5.322  19.666  0.00  0.00    +0.000 A 
ATOM     11  C   UNL     1       2.744   4.822  18.731  0.00  0.00    +0.000 A 
ENDROOT
BRANCH   4  12
ATOM     12  N   UNL     1       5.547   3.090  16.150  0.00  0.00    +0.000 N 
ATOM     13  H   UNL     1       6.191   2.515  16.696  0.00  0.00    +0.000 HD
BRANCH  12  14
ATOM     14  C   UNL     1       6.134   3.725  15.028  0.00  0.00    +0.000 A 
ATOM     15  C   UNL     1       5.768   3.273  13.743  0.00  0.00    +0.000 A 
ATOM     16  C   UNL     1       6.258   3.864  12.579  0.00  0.00    +0.000 A 
ATOM     17  C   UNL     1       7.152   4.921  12.666  0.00  0.00    +0.000 A 
ATOM     18  C   UNL     1       7.582   5.362  13.917  0.00  0.00    +0.000 A 
ATOM     19  C   UNL     1       7.090   4.757  15.095  0.00  0.00    +0.000 A 
BRANCH  19  20
ATOM     20  N   UNL     1       7.614   5.248  16.379  0.00  0.00    +0.000 N 
ATOM     21  O   UNL     1       7.590   6.475  16.590  0.00  0.00    +0.000 OA
ATOM     22  O   UNL     1       8.041   4.415  17.190  0.00  0.00    +0.000 OA
ENDBRANCH  19  20
ENDBRANCH  12  14
ENDBRANCH   4  12
TORSDOF 3
ENDMDL
MODEL 2
REMARK VINA RESULT:      -8.0      2.579      3.340
REMARK  Name = 
REMARK  4 active torsions:
REMARK  status: ('A' for Active; 'I' for Inactive)
REMARK    1  A    between atoms: C_1  and  C_2
REMARK    2  A    between atoms: C_4  and  N_5
REMARK    3  A    between atoms: N_5  and  C_6
REMARK    4  A    between atoms: C_11  and  N_12
REMARK                            x       y       z     vdW  Elec       q    Type
REMARK                         _______ _______ _______ _____ _____    ______ ____
ROOT
ATOM      1  C   UNL     1       1.199   4.349  17.164  0.00  0.00    +0.000 C 
ATOM      2  C   UNL     1       2.373   3.903  17.990  0.00  0.00    +0.000 A 
ATOM      3  C   UNL     1       3.660   4.015  17.450  0.00  0.00    +0.000 A 
ATOM      4  C   UNL     1       4.762   3.710  18.236  0.00  0.00    +0.000 A 
ATOM      5  N   UNL     1       4.623   3.247  19.496  0.00  0.00    +0.000 NA
ATOM      6  C   UNL     1       3.396   3.085  20.014  0.00  0.00    +0.000 A 
ATOM      7  C   UNL     1       3.286   2.594  21.310  0.00  0.00    +0.000 A 
ATOM      8  C   UNL     1       2.048   2.404  21.928  0.00  0.00    +0.000 A 
ATOM      9  C   UNL     1       0.885   2.717  21.240  0.00  0.00    +0.000 A 
ATOM     10  C   UNL     1       0.969   3.217  19.939  0.00  0.00    +0.000 A 
ATOM     11  C   UNL     1       2.221   3.406  19.305  0.00  0.00    +0.000 A 
ENDROOT
BRANCH   4  12
ATOM     12  N   UNL     1       6.052   3.976  17.717  0.00  0.00    +0.000 N 
ATOM     13  H   UNL     1       6.665   3.166  17.826  0.00  0.00    +0.000 HD
BRANCH  12  14
ATOM     14  C   UNL     1       6.713   5.227  17.778  0.00  0.00    +0.000 A 
ATOM     15  C   UNL     1       7.462   5.526  18.934  0.00  0.00    +0.000 A 
ATOM     16  C   UNL     1       8.182   6.712  19.068  0.00  0.00    +0.000 A 
ATOM     17  C   UNL     1       8.159   7.652  18.048  0.00  0.00    +0.000 A 
ATOM     18  C   UNL     1       7.385   7.420  16.911  0.00  0.00    +0.000 A 
ATOM     19  C   UNL     1       6.650   6.221  16.781  0.00  0.00    +0.000 A 
BRANCH  19  20
ATOM     20  N   UNL     1       5.829   6.057  15.572  0.00  0.00    +0.000 N 
ATOM     21  O   UNL     1       5.957   5.008  14.915  0.00  0.00    +0.000 OA
ATOM     22  O   UNL     1       5.042   6.967  15.276  0.00  0.00    +0.000 OA
ENDBRANCH  19  20
ENDBRANCH  12  14
ENDBRANCH   4  12
TORSDOF 3
ENDMDL
MODEL 3
REMARK VINA RESULT:      -7.9      3.866      6.234
REMARK  Name = 
REMARK  4 active torsions:
REMARK  status: ('A' for Active; 'I' for Inactive)
REMARK    1  A    between atoms: C_1  and  C_2
REMARK    2  A    between atoms: C_4  and  N_5
REMARK    3  A    between atoms: N_5  and  C_6
REMARK    4  A    between atoms: C_11  and  N_12
REMARK                            x       y       z     vdW  Elec       q    Type
REMARK                         _______ _______ _______ _____ _____    ______ ____
ROOT
ATOM      1  C   UNL     1       1.766   9.706  17.809  0.00  0.00    +0.000 C 
ATOM      2  C   UNL     1       1.508   8.993  19.108  0.00  0.00    +0.000 A 
ATOM      3  C   UNL     1       2.037   7.709  19.290  0.00  0.00    +0.000 A 
ATOM      4  C   UNL     1       1.901   7.080  20.519  0.00  0.00    +0.000 A 
ATOM      5  N   UNL     1       1.215   7.651  21.531  0.00  0.00    +0.000 NA
ATOM      6  C   UNL     1       0.656   8.859  21.359  0.00  0.00    +0.000 A 
ATOM      7  C   UNL     1      -0.056   9.414  22.417  0.00  0.00    +0.000 A 
ATOM      8  C   UNL     1      -0.660  10.670  22.325  0.00  0.00    +0.000 A 
ATOM      9  C   UNL     1      -0.548  11.398  21.150  0.00  0.00    +0.000 A 
ATOM     10  C   UNL     1       0.167  10.866  20.076  0.00  0.00    +0.000 A 
ATOM     11  C   UNL     1       0.776   9.590  20.160  0.00  0.00    +0.000 A 
ENDROOT
BRANCH   4  12
ATOM     12  N   UNL     1       2.574   5.852  20.723  0.00  0.00    +0.000 N 
ATOM     13  H   UNL     1       3.549   6.007  20.985  0.00  0.00    +0.000 HD
BRANCH  12  14
ATOM     14  C   UNL     1       2.345   4.665  19.985  0.00  0.00    +0.000 A 
ATOM     15  C   UNL     1       1.086   4.041  20.105  0.00  0.00    +0.000 A 
ATOM     16  C   UNL     1       0.752   2.895  19.385  0.00  0.00    +0.000 A 
ATOM     17  C   UNL     1       1.682   2.322  18.531  0.00  0.00    +0.000 A 
ATOM     18  C   UNL     1       2.958   2.875  18.425  0.00  0.00    +0.000 A 
ATOM     19  C   UNL     1       3.297   4.032  19.160  0.00  0.00    +0.000 A 
BRANCH  19  20
ATOM     20  N   UNL     1       4.670   4.542  19.028  0.00  0.00    +0.000 N 
ATOM     21  O   UNL     1       5.608   3.783  19.335  0.00  0.00    +0.000 OA
ATOM     22  O   UNL     1       4.824   5.697  18.607  0.00  0.00    +0.000 OA
ENDBRANCH  19  20
ENDBRANCH  12  14
ENDBRANCH   4  12
TORSDOF 3
ENDMDL
MODEL 4
REMARK VINA RESULT:      -7.9      2.373      6.291
REMARK  Name = 
REMARK  4 active torsions:
REMARK  status: ('A' for Active; 'I' for Inactive)
REMARK    1  A    between atoms: C_1  and  C_2
REMARK    2  A    between atoms: C_4  and  N_5
REMARK    3  A    between atoms: N_5  and  C_6
REMARK    4  A    between atoms: C_11  and  N_12
REMARK                            x       y       z     vdW  Elec       q    Type
REMARK                         _______ _______ _______ _____ _____    ______ ____
ROOT
ATOM      1  C   UNL     1       7.775   7.512  17.377  0.00  0.00    +0.000 C 
ATOM      2  C   UNL     1       6.918   6.276  17.427  0.00  0.00    +0.000 A 
ATOM      3  C   UNL     1       6.307   5.928  18.638  0.00  0.00    +0.000 A 
ATOM      4  C   UNL     1       5.428   4.855  18.677  0.00  0.00    +0.000 A 
ATOM      5  N   UNL     1       5.194   4.095  17.587  0.00  0.00    +0.000 NA
ATOM      6  C   UNL     1       5.810   4.382  16.430  0.00  0.00    +0.000 A 
ATOM      7  C   UNL     1       5.558   3.572  15.329  0.00  0.00    +0.000 A 
ATOM      8  C   UNL     1       6.150   3.806  14.086  0.00  0.00    +0.000 A 
ATOM      9  C   UNL     1       7.014   4.880  13.931  0.00  0.00    +0.000 A 
ATOM     10  C   UNL     1       7.279   5.712  15.021  0.00  0.00    +0.000 A 
ATOM     11  C   UNL     1       6.687   5.476  16.286  0.00  0.00    +0.000 A 
ENDROOT
BRANCH   4  12
ATOM     12  N   UNL     1       4.710   4.619  19.874  0.00  0.00    +0.000 N 
ATOM     13  H   UNL     1       5.332   4.302  20.619  0.00  0.00    +0.000 HD
BRANCH  12  14
ATOM     14  C   UNL     1       3.394   4.098  19.945  0.00  0.00    +0.000 A 
ATOM     15  C   UNL     1       2.345   4.987  20.255  0.00  0.00    +0.000 A 
ATOM     16  C   UNL     1       1.013   4.577  20.305  0.00  0.00    +0.000 A 
ATOM     17  C   UNL     1       0.690   3.250  20.062  0.00  0.00    +0.000 A 
ATOM     18  C   UNL     1       1.703   2.327  19.807  0.00  0.00    +0.000 A 
ATOM     19  C   UNL     1       3.053   2.743  19.764  0.00  0.00    +0.000 A 
BRANCH  19  20
ATOM     20  N   UNL     1       4.073   1.711  19.524  0.00  0.00    +0.000 N 
ATOM     21  O   UNL     1       5.036   1.646  20.310  0.00  0.00    +0.000 OA
ATOM     22  O   UNL     1       3.916   0.951  18.559  0.00  0.00    +0.000 OA
ENDBRANCH  19  20
ENDBRANCH  12  14
ENDBRANCH   4  12
TORSDOF 3
ENDMDL
MODEL 5
REMARK VINA RESULT:      -7.9      3.169      6.483
REMARK  Name = 
REMARK  4 active torsions:
REMARK  status: ('A' for Active; 'I' for Inactive)
REMARK    1  A    between atoms: C_1  and  C_2
REMARK    2  A    between atoms: C_4  and  N_5
REMARK    3  A    between atoms: N_5  and  C_6
REMARK    4  A    between atoms: C_11  and  N_12
REMARK                            x       y       z     vdW  Elec       q    Type
REMARK                         _______ _______ _______ _____ _____    ______ ____
ROOT
ATOM      1  C   UNL     1       4.984   6.216  15.258  0.00  0.00    +0.000 C 
ATOM      2  C   UNL     1       5.368   5.723  16.626  0.00  0.00    +0.000 A 
ATOM      3  C   UNL     1       4.678   4.632  17.169  0.00  0.00    +0.000 A 
ATOM      4  C   UNL     1       5.089   4.097  18.380  0.00  0.00    +0.000 A 
ATOM      5  N   UNL     1       6.104   4.640  19.084  0.00  0.00    +0.000 NA
ATOM      6  C   UNL     1       6.745   5.718  18.605  0.00  0.00    +0.000 A 
ATOM      7  C   UNL     1       7.777   6.262  19.360  0.00  0.00    +0.000 A 
ATOM      8  C   UNL     1       8.501   7.376  18.930  0.00  0.00    +0.000 A 
ATOM      9  C   UNL     1       8.194   7.963  17.711  0.00  0.00    +0.000 A 
ATOM     10  C   UNL     1       7.166   7.431  16.931  0.00  0.00    +0.000 A 
ATOM     11  C   UNL     1       6.423   6.305  17.365  0.00  0.00    +0.000 A 
ENDROOT
BRANCH   4  12
ATOM     12  N   UNL     1       4.473   2.905  18.831  0.00  0.00    +0.000 N 
ATOM     13  H   UNL     1       4.537   2.169  18.125  0.00  0.00    +0.000 HD
BRANCH  12  14
ATOM     14  C   UNL     1       3.313   2.843  19.641  0.00  0.00    +0.000 A 
ATOM     15  C   UNL     1       3.479   2.613  21.022  0.00  0.00    +0.000 A 
ATOM     16  C   UNL     1       2.401   2.579  21.906  0.00  0.00    +0.000 A 
ATOM     17  C   UNL     1       1.111   2.757  21.427  0.00  0.00    +0.000 A 
ATOM     18  C   UNL     1       0.898   2.932  20.061  0.00  0.00    +0.000 A 
ATOM     19  C   UNL     1       1.991   2.958  19.166  0.00  0.00    +0.000 A 
BRANCH  19  20
ATOM     20  N   UNL     1       1.691   3.111  17.734  0.00  0.00    +0.000 N 
ATOM     21  O   UNL     1       2.110   2.238  16.952  0.00  0.00    +0.000 OA
ATOM     22  O   UNL     1       1.028   4.096  17.381  0.00  0.00    +0.000 OA
ENDBRANCH  19  20
ENDBRANCH  12  14
ENDBRANCH   4  12
TORSDOF 3
ENDMDL
MODEL 6
REMARK VINA RESULT:      -7.8      1.470      2.701
REMARK  Name = 
REMARK  4 active torsions:
REMARK  status: ('A' for Active; 'I' for Inactive)
REMARK    1  A    between atoms: C_1  and  C_2
REMARK    2  A    between atoms: C_4  and  N_5
REMARK    3  A    between atoms: N_5  and  C_6
REMARK    4  A    between atoms: C_11  and  N_12
REMARK                            x       y       z     vdW  Elec       q    Type
REMARK                         _______ _______ _______ _____ _____    ______ ____
ROOT
ATOM      1  C   UNL     1       2.318   4.149  21.388  0.00  0.00    +0.000 C 
ATOM      2  C   UNL     1       2.901   4.747  20.137  0.00  0.00    +0.000 A 
ATOM      3  C   UNL     1       3.775   3.973  19.364  0.00  0.00    +0.000 A 
ATOM      4  C   UNL     1       4.238   4.467  18.152  0.00  0.00    +0.000 A 
ATOM      5  N   UNL     1       3.914   5.705  17.726  0.00  0.00    +0.000 NA
ATOM      6  C   UNL     1       3.118   6.482  18.478  0.00  0.00    +0.000 A 
ATOM      7  C   UNL     1       2.814   7.758  18.017  0.00  0.00    +0.000 A 
ATOM      8  C   UNL     1       1.987   8.626  18.732  0.00  0.00    +0.000 A 
ATOM      9  C   UNL     1       1.440   8.212  19.938  0.00  0.00    +0.000 A 
ATOM     10  C   UNL     1       1.725   6.933  20.419  0.00  0.00    +0.000 A 
ATOM     11  C   UNL     1       2.569   6.050  19.702  0.00  0.00    +0.000 A 
ENDROOT
BRANCH   4  12
ATOM     12  N   UNL     1       4.996   3.607  17.322  0.00  0.00    +0.000 N 
ATOM     13  H   UNL     1       5.441   2.868  17.868  0.00  0.00    +0.000 HD
BRANCH  12  14
ATOM     14  C   UNL     1       5.725   4.014  16.178  0.00  0.00    +0.000 A 
ATOM     15  C   UNL     1       5.270   3.586  14.914  0.00  0.00    +0.000 A 
ATOM     16  C   UNL     1       5.895   3.970  13.728  0.00  0.00    +0.000 A 
ATOM     17  C   UNL     1       7.016   4.786  13.773  0.00  0.00    +0.000 A 
ATOM     18  C   UNL     1       7.532   5.186  15.005  0.00  0.00    +0.000 A 
ATOM     19  C   UNL     1       6.901   4.789  16.206  0.00  0.00    +0.000 A 
BRANCH  19  20
ATOM     20  N   UNL     1       7.519   5.218  17.470  0.00  0.00    +0.000 N 
ATOM     21  O   UNL     1       7.556   6.437  17.719  0.00  0.00    +0.000 OA
ATOM     22  O   UNL     1       7.959   4.343  18.228  0.00  0.00    +0.000 OA
ENDBRANCH  19  20
ENDBRANCH  12  14
ENDBRANCH   4  12
TORSDOF 3
ENDMDL
MODEL 7
REMARK VINA RESULT:      -7.8      4.270      6.580
REMARK  Name = 
REMARK  4 active torsions:
REMARK  status: ('A' for Active; 'I' for Inactive)
REMARK    1  A    between atoms: C_1  and  C_2
REMARK    2  A    between atoms: C_4  and  N_5
REMARK    3  A    between atoms: N_5  and  C_6
REMARK    4  A    between atoms: C_11  and  N_12
REMARK                            x       y       z     vdW  Elec       q    Type
REMARK                         _______ _______ _______ _____ _____    ______ ____
ROOT
ATOM      1  C   UNL     1       0.663  10.845  18.264  0.00  0.00    +0.000 C 
ATOM      2  C   UNL     1       0.787   9.878  19.409  0.00  0.00    +0.000 A 
ATOM      3  C   UNL     1       1.522   8.701  19.221  0.00  0.00    +0.000 A 
ATOM      4  C   UNL     1       1.738   7.850  20.296  0.00  0.00    +0.000 A 
ATOM      5  N   UNL     1       1.203   8.097  21.510  0.00  0.00    +0.000 NA
ATOM      6  C   UNL     1       0.453   9.194  21.696  0.00  0.00    +0.000 A 
ATOM      7  C   UNL     1      -0.095   9.414  22.955  0.00  0.00    +0.000 A 
ATOM      8  C   UNL     1      -0.880  10.534  23.236  0.00  0.00    +0.000 A 
ATOM      9  C   UNL     1      -1.122  11.468  22.239  0.00  0.00    +0.000 A 
ATOM     10  C   UNL     1      -0.577  11.273  20.969  0.00  0.00    +0.000 A 
ATOM     11  C   UNL     1       0.213  10.135  20.675  0.00  0.00    +0.000 A 
ENDROOT
BRANCH   4  12
ATOM     12  N   UNL     1       2.608   6.749  20.116  0.00  0.00    +0.000 N 
ATOM     13  H   UNL     1       3.539   7.059  19.833  0.00  0.00    +0.000 HD
BRANCH  12  14
ATOM     14  C   UNL     1       2.228   5.485  19.600  0.00  0.00    +0.000 A 
ATOM     15  C   UNL     1       1.319   4.709  20.348  0.00  0.00    +0.000 A 
ATOM     16  C   UNL     1       0.853   3.473  19.902  0.00  0.00    +0.000 A 
ATOM     17  C   UNL     1       1.301   2.963  18.692  0.00  0.00    +0.000 A 
ATOM     18  C   UNL     1       2.242   3.673  17.948  0.00  0.00    +0.000 A 
ATOM     19  C   UNL     1       2.719   4.922  18.405  0.00  0.00    +0.000 A 
BRANCH  19  20
ATOM     20  N   UNL     1       3.737   5.600  17.588  0.00  0.00    +0.000 N 
ATOM     21  O   UNL     1       4.580   4.896  17.002  0.00  0.00    +0.000 OA
ATOM     22  O   UNL     1       3.696   6.836  17.515  0.00  0.00    +0.000 OA
ENDBRANCH  19  20
ENDBRANCH  12  14
ENDBRANCH   4  12
TORSDOF 3
ENDMDL
MODEL 8
REMARK VINA RESULT:      -7.8      3.792      6.232
REMARK  Name = 
REMARK  4 active torsions:
REMARK  status: ('A' for Active; 'I' for Inactive)
REMARK    1  A    between atoms: C_1  and  C_2
REMARK    2  A    between atoms: C_4  and  N_5
REMARK    3  A    between atoms: N_5  and  C_6
REMARK    4  A    between atoms: C_11  and  N_12
REMARK                            x       y       z     vdW  Elec       q    Type
REMARK                         _______ _______ _______ _____ _____    ______ ____
ROOT
ATOM      1  C   UNL     1       1.483  10.333  17.860  0.00  0.00    +0.000 C 
ATOM      2  C   UNL     1       1.391   9.400  19.036  0.00  0.00    +0.000 A 
ATOM      3  C   UNL     1       2.009   8.146  18.953  0.00  0.00    +0.000 A 
ATOM      4  C   UNL     1       2.026   7.317  20.065  0.00  0.00    +0.000 A 
ATOM      5  N   UNL     1       1.408   7.663  21.213  0.00  0.00    +0.000 NA
ATOM      6  C   UNL     1       0.766   8.839  21.296  0.00  0.00    +0.000 A 
ATOM      7  C   UNL     1       0.126   9.160  22.487  0.00  0.00    +0.000 A 
ATOM      8  C   UNL     1      -0.555  10.366  22.660  0.00  0.00    +0.000 A 
ATOM      9  C   UNL     1      -0.598  11.283  21.620  0.00  0.00    +0.000 A 
ATOM     10  C   UNL     1       0.042  10.987  20.416  0.00  0.00    +0.000 A 
ATOM     11  C   UNL     1       0.729   9.762  20.232  0.00  0.00    +0.000 A 
ENDROOT
BRANCH   4  12
ATOM     12  N   UNL     1       2.786   6.124  20.001  0.00  0.00    +0.000 N 
ATOM     13  H   UNL     1       3.758   6.321  19.757  0.00  0.00    +0.000 HD
BRANCH  12  14
ATOM     14  C   UNL     1       2.304   4.875  19.539  0.00  0.00    +0.000 A 
ATOM     15  C   UNL     1       1.298   4.233  20.289  0.00  0.00    +0.000 A 
ATOM     16  C   UNL     1       0.730   3.023  19.891  0.00  0.00    +0.000 A 
ATOM     17  C   UNL     1       1.170   2.404  18.730  0.00  0.00    +0.000 A 
ATOM     18  C   UNL     1       2.202   2.978  17.988  0.00  0.00    +0.000 A 
ATOM     19  C   UNL     1       2.781   4.200  18.397  0.00  0.00    +0.000 A 
BRANCH  19  20
ATOM     20  N   UNL     1       3.889   4.730  17.588  0.00  0.00    +0.000 N 
ATOM     21  O   UNL     1       3.874   5.940  17.298  0.00  0.00    +0.000 OA
ATOM     22  O   UNL     1       4.786   3.947  17.246  0.00  0.00    +0.000 OA
ENDBRANCH  19  20
ENDBRANCH  12  14
ENDBRANCH   4  12
TORSDOF 3
ENDMDL
MODEL 9
REMARK VINA RESULT:      -7.8      4.323      6.884
REMARK  Name = 
REMARK  4 active torsions:
REMARK  status: ('A' for Active; 'I' for Inactive)
REMARK    1  A    between atoms: C_1  and  C_2
REMARK    2  A    between atoms: C_4  and  N_5
REMARK    3  A    between atoms: N_5  and  C_6
REMARK    4  A    between atoms: C_11  and  N_12
REMARK                            x       y       z     vdW  Elec       q    Type
REMARK                         _______ _______ _______ _____ _____    ______ ____
ROOT
ATOM      1  C   UNL     1      -0.161   9.621  23.317  0.00  0.00    +0.000 C 
ATOM      2  C   UNL     1       0.368   9.380  21.930  0.00  0.00    +0.000 A 
ATOM      3  C   UNL     1       1.327   8.378  21.738  0.00  0.00    +0.000 A 
ATOM      4  C   UNL     1       1.747   8.069  20.453  0.00  0.00    +0.000 A 
ATOM      5  N   UNL     1       1.299   8.755  19.380  0.00  0.00    +0.000 NA
ATOM      6  C   UNL     1       0.418   9.753  19.549  0.00  0.00    +0.000 A 
ATOM      7  C   UNL     1      -0.014  10.450  18.426  0.00  0.00    +0.000 A 
ATOM      8  C   UNL     1      -0.936  11.495  18.512  0.00  0.00    +0.000 A 
ATOM      9  C   UNL     1      -1.448  11.856  19.750  0.00  0.00    +0.000 A 
ATOM     10  C   UNL     1      -1.034  11.168  20.892  0.00  0.00    +0.000 A 
ATOM     11  C   UNL     1      -0.095  10.111  20.812  0.00  0.00    +0.000 A 
ENDROOT
BRANCH   4  12
ATOM     12  N   UNL     1       2.600   6.954  20.274  0.00  0.00    +0.000 N 
ATOM     13  H   UNL     1       3.551   7.251  20.050  0.00  0.00    +0.000 HD
BRANCH  12  14
ATOM     14  C   UNL     1       2.217   5.720  19.694  0.00  0.00    +0.000 A 
ATOM     15  C   UNL     1       1.336   4.891  20.418  0.00  0.00    +0.000 A 
ATOM     16  C   UNL     1       0.868   3.679  19.911  0.00  0.00    +0.000 A 
ATOM     17  C   UNL     1       1.288   3.247  18.661  0.00  0.00    +0.000 A 
ATOM     18  C   UNL     1       2.202   4.010  17.936  0.00  0.00    +0.000 A 
ATOM     19  C   UNL     1       2.680   5.234  18.454  0.00  0.00    +0.000 A 
BRANCH  19  20
ATOM     20  N   UNL     1       3.669   5.970  17.653  0.00  0.00    +0.000 N 
ATOM     21  O   UNL     1       4.626   5.333  17.174  0.00  0.00    +0.000 OA
ATOM     22  O   UNL     1       3.494   7.185  17.485  0.00  0.00    +0.000 OA
ENDBRANCH  19  20
ENDBRANCH  12  14
ENDBRANCH   4  12
TORSDOF 3
ENDMDL
