MODEL 1
REMARK VINA RESULT:      -8.6      0.000      0.000
REMARK  Name = 
REMARK  6 active torsions:
REMARK  status: ('A' for Active; 'I' for Inactive)
REMARK    1  A    between atoms: C_1  and  N_2
REMARK    2  A    between atoms: C_4  and  C_5
REMARK    3  A    between atoms: C_5  and  N_6
REMARK    4  A    between atoms: C_5  and  C_18
REMARK    5  A    between atoms: C_7  and  C_9
REMARK    6  A    between atoms: C_20  and  O_21
REMARK                            x       y       z     vdW  Elec       q    Type
REMARK                         _______ _______ _______ _____ _____    ______ ____
ROOT
ATOM      1  N   UNL     1       3.884   4.991  17.910  0.00  0.00    +0.000 N 
ATOM      2  C   UNL     1       5.217   4.664  17.806  0.00  0.00    +0.000 C 
ATOM      3  O   UNL     1       5.931   4.468  18.784  0.00  0.00    +0.000 OA
ATOM      4  H   UNL     1       3.371   5.141  17.049  0.00  0.00    +0.000 HD
ENDROOT
BRANCH   2   5
ATOM      5  C   UNL     1       5.731   4.557  16.453  0.00  0.00    +0.000 A 
ATOM      6  N   UNL     1       5.265   3.778  15.485  0.00  0.00    +0.000 NA
ATOM      7  C   UNL     1       6.067   4.056  14.393  0.00  0.00    +0.000 A 
ATOM      8  C   UNL     1       6.067   3.570  13.079  0.00  0.00    +0.000 A 
ATOM      9  C   UNL     1       7.032   4.088  12.204  0.00  0.00    +0.000 A 
ATOM     10  C   UNL     1       7.937   5.039  12.670  0.00  0.00    +0.000 A 
ATOM     11  N   UNL     1       7.980   5.535  13.929  0.00  0.00    +0.000 NA
ATOM     12  C   UNL     1       7.029   5.004  14.716  0.00  0.00    +0.000 A 
ATOM     13  N   UNL     1       6.805   5.300  16.021  0.00  0.00    +0.000 N 
ATOM     14  H   UNL     1       7.320   5.965  16.580  0.00  0.00    +0.000 HD
ENDBRANCH   2   5
BRANCH   1  15
ATOM     15  C   UNL     1       3.256   5.203  19.201  0.00  0.00    +0.000 C 
BRANCH  15  19
ATOM     16  C   UNL     1       1.414   9.808  18.202  0.00  0.00    +0.000 C 
ATOM     17  N   UNL     1       1.795   8.562  18.825  0.00  0.00    +0.000 N 
ATOM     18  C   UNL     1       2.402   7.488  18.237  0.00  0.00    +0.000 A 
ATOM     19  C   UNL     1       2.616   6.558  19.240  0.00  0.00    +0.000 A 
ATOM     20  C   UNL     1       2.072   7.184  20.389  0.00  0.00    +0.000 A 
ATOM     21  N   UNL     1       1.560   8.389  20.135  0.00  0.00    +0.000 NA
ENDBRANCH  15  19
BRANCH  15  22
ATOM     22  C   UNL     1       2.228   4.082  19.409  0.00  0.00    +0.000 C 
ATOM     23  C   UNL     1       2.688   2.758  20.085  0.00  0.00    +0.000 C 
ATOM     24  C   UNL     1       2.181   3.301  21.434  0.00  0.00    +0.000 C 
ATOM     25  C   UNL     1       1.289   4.277  20.638  0.00  0.00    +0.000 C 
BRANCH  24  26
ATOM     26  O   UNL     1       1.502   2.366  22.290  0.00  0.00    +0.000 OA
ATOM     27  H   UNL     1       0.737   2.843  22.651  0.00  0.00    +0.000 HD
ENDBRANCH  24  26
ENDBRANCH  15  22
ENDBRANCH   1  15
TORSDOF 5
ENDMDL
MODEL 2
REMARK VINA RESULT:      -8.5      1.074      1.473
REMARK  Name = 
REMARK  6 active torsions:
REMARK  status: ('A' for Active; 'I' for Inactive)
REMARK    1  A    between atoms: C_1  and  N_2
REMARK    2  A    between atoms: C_4  and  C_5
REMARK    3  A    between atoms: C_5  and  N_6
REMARK    4  A    between atoms: C_5  and  C_18
REMARK    5  A    between atoms: C_7  and  C_9
REMARK    6  A    between atoms: C_20  and  O_21
REMARK                            x       y       z     vdW  Elec       q    Type
REMARK                         _______ _______ _______ _____ _____    ______ ____
ROOT
ATOM      1  N   UNL     1       3.645   5.487  17.718  0.00  0.00    +0.000 N 
ATOM      2  C   UNL     1       4.982   5.163  17.675  0.00  0.00    +0.000 C 
ATOM      3  O   UNL     1       5.679   5.089  18.682  0.00  0.00    +0.000 OA
ATOM      4  H   UNL     1       3.146   5.529  16.837  0.00  0.00    +0.000 HD
ENDROOT
BRANCH   2   5
ATOM      5  C   UNL     1       5.521   4.903  16.353  0.00  0.00    +0.000 A 
ATOM      6  N   UNL     1       5.044   4.051  15.454  0.00  0.00    +0.000 NA
ATOM      7  C   UNL     1       5.881   4.188  14.362  0.00  0.00    +0.000 A 
ATOM      8  C   UNL     1       5.890   3.575  13.102  0.00  0.00    +0.000 A 
ATOM      9  C   UNL     1       6.894   3.966  12.206  0.00  0.00    +0.000 A 
ATOM     10  C   UNL     1       7.827   4.921  12.600  0.00  0.00    +0.000 A 
ATOM     11  N   UNL     1       7.864   5.536  13.805  0.00  0.00    +0.000 NA
ATOM     12  C   UNL     1       6.874   5.124  14.615  0.00  0.00    +0.000 A 
ATOM     13  N   UNL     1       6.634   5.556  15.879  0.00  0.00    +0.000 N 
ATOM     14  H   UNL     1       7.164   6.252  16.383  0.00  0.00    +0.000 HD
ENDBRANCH   2   5
BRANCH   1  15
ATOM     15  C   UNL     1       2.992   5.843  18.964  0.00  0.00    +0.000 C 
BRANCH  15  19
ATOM     16  C   UNL     1       0.812  10.338  19.762  0.00  0.00    +0.000 C 
ATOM     17  N   UNL     1       1.544   9.219  19.216  0.00  0.00    +0.000 N 
ATOM     18  C   UNL     1       1.787   8.013  19.812  0.00  0.00    +0.000 A 
ATOM     19  C   UNL     1       2.475   7.247  18.886  0.00  0.00    +0.000 A 
ATOM     20  C   UNL     1       2.603   8.116  17.773  0.00  0.00    +0.000 A 
ATOM     21  N   UNL     1       2.055   9.314  17.979  0.00  0.00    +0.000 NA
ENDBRANCH  15  19
BRANCH  15  22
ATOM     22  C   UNL     1       1.862   4.833  19.204  0.00  0.00    +0.000 C 
ATOM     23  C   UNL     1       1.540   3.789  18.094  0.00  0.00    +0.000 C 
ATOM     24  C   UNL     1       2.434   2.772  18.827  0.00  0.00    +0.000 C 
ATOM     25  C   UNL     1       2.249   3.620  20.104  0.00  0.00    +0.000 C 
BRANCH  24  26
ATOM     26  O   UNL     1       1.954   1.417  18.884  0.00  0.00    +0.000 OA
ATOM     27  H   UNL     1       2.362   1.023  19.673  0.00  0.00    +0.000 HD
ENDBRANCH  24  26
ENDBRANCH  15  22
ENDBRANCH   1  15
TORSDOF 5
ENDMDL
MODEL 3
REMARK VINA RESULT:      -8.2      1.018      1.199
REMARK  Name = 
REMARK  6 active torsions:
REMARK  status: ('A' for Active; 'I' for Inactive)
REMARK    1  A    between atoms: C_1  and  N_2
REMARK    2  A    between atoms: C_4  and  C_5
REMARK    3  A    between atoms: C_5  and  N_6
REMARK    4  A    between atoms: C_5  and  C_18
REMARK    5  A    between atoms: C_7  and  C_9
REMARK    6  A    between atoms: C_20  and  O_21
REMARK                            x       y       z     vdW  Elec       q    Type
REMARK                         _______ _______ _______ _____ _____    ______ ____
ROOT
ATOM      1  N   UNL     1       3.527   5.420  18.383  0.00  0.00    +0.000 N 
ATOM      2  C   UNL     1       4.845   5.028  18.315  0.00  0.00    +0.000 C 
ATOM      3  O   UNL     1       5.534   4.843  19.312  0.00  0.00    +0.000 OA
ATOM      4  H   UNL     1       3.033   5.555  17.508  0.00  0.00    +0.000 HD
ENDROOT
BRANCH   2   5
ATOM      5  C   UNL     1       5.372   4.840  16.976  0.00  0.00    +0.000 A 
ATOM      6  N   UNL     1       4.845   4.098  16.011  0.00  0.00    +0.000 NA
ATOM      7  C   UNL     1       5.696   4.265  14.934  0.00  0.00    +0.000 A 
ATOM      8  C   UNL     1       5.671   3.756  13.629  0.00  0.00    +0.000 A 
ATOM      9  C   UNL     1       6.705   4.149  12.768  0.00  0.00    +0.000 A 
ATOM     10  C   UNL     1       7.698   5.004  13.239  0.00  0.00    +0.000 A 
ATOM     11  N   UNL     1       7.769   5.517  14.489  0.00  0.00    +0.000 NA
ATOM     12  C   UNL     1       6.749   5.108  15.263  0.00  0.00    +0.000 A 
ATOM     13  N   UNL     1       6.530   5.453  16.557  0.00  0.00    +0.000 N 
ATOM     14  H   UNL     1       7.103   6.068  17.117  0.00  0.00    +0.000 HD
ENDBRANCH   2   5
BRANCH   1  15
ATOM     15  C   UNL     1       2.890   5.715  19.653  0.00  0.00    +0.000 C 
BRANCH  15  19
ATOM     16  C   UNL     1       1.337  10.377  18.448  0.00  0.00    +0.000 C 
ATOM     17  N   UNL     1       1.592   9.118  19.108  0.00  0.00    +0.000 N 
ATOM     18  C   UNL     1       2.244   8.029  18.600  0.00  0.00    +0.000 A 
ATOM     19  C   UNL     1       2.291   7.089  19.615  0.00  0.00    +0.000 A 
ATOM     20  C   UNL     1       1.612   7.726  20.683  0.00  0.00    +0.000 A 
ATOM     21  N   UNL     1       1.175   8.947  20.371  0.00  0.00    +0.000 NA
ENDBRANCH  15  19
BRANCH  15  22
ATOM     22  C   UNL     1       1.827   4.637  19.904  0.00  0.00    +0.000 C 
ATOM     23  C   UNL     1       1.334   3.775  18.706  0.00  0.00    +0.000 C 
ATOM     24  C   UNL     1       2.350   2.688  19.104  0.00  0.00    +0.000 C 
ATOM     25  C   UNL     1       2.373   3.312  20.516  0.00  0.00    +0.000 C 
BRANCH  24  26
ATOM     26  O   UNL     1       1.902   1.324  19.014  0.00  0.00    +0.000 OA
ATOM     27  H   UNL     1       1.222   1.313  18.320  0.00  0.00    +0.000 HD
ENDBRANCH  24  26
ENDBRANCH  15  22
ENDBRANCH   1  15
TORSDOF 5
ENDMDL
MODEL 4
REMARK VINA RESULT:      -8.2      1.313      1.615
REMARK  Name = 
REMARK  6 active torsions:
REMARK  status: ('A' for Active; 'I' for Inactive)
REMARK    1  A    between atoms: C_1  and  N_2
REMARK    2  A    between atoms: C_4  and  C_5
REMARK    3  A    between atoms: C_5  and  N_6
REMARK    4  A    between atoms: C_5  and  C_18
REMARK    5  A    between atoms: C_7  and  C_9
REMARK    6  A    between atoms: C_20  and  O_21
REMARK                            x       y       z     vdW  Elec       q    Type
REMARK                         _______ _______ _______ _____ _____    ______ ____
ROOT
ATOM      1  N   UNL     1       4.461   4.038  18.247  0.00  0.00    +0.000 N 
ATOM      2  C   UNL     1       5.765   4.374  17.961  0.00  0.00    +0.000 C 
ATOM      3  O   UNL     1       6.581   4.663  18.830  0.00  0.00    +0.000 OA
ATOM      4  H   UNL     1       3.853   3.817  17.467  0.00  0.00    +0.000 HD
ENDROOT
BRANCH   2   5
ATOM      5  C   UNL     1       6.121   4.358  16.555  0.00  0.00    +0.000 A 
ATOM      6  N   UNL     1       5.574   3.610  15.605  0.00  0.00    +0.000 NA
ATOM      7  C   UNL     1       6.232   3.976  14.446  0.00  0.00    +0.000 A 
ATOM      8  C   UNL     1       6.097   3.558  13.116  0.00  0.00    +0.000 A 
ATOM      9  C   UNL     1       6.934   4.160  12.166  0.00  0.00    +0.000 A 
ATOM     10  C   UNL     1       7.852   5.123  12.577  0.00  0.00    +0.000 A 
ATOM     11  N   UNL     1       8.024   5.556  13.848  0.00  0.00    +0.000 NA
ATOM     12  C   UNL     1       7.191   4.946  14.708  0.00  0.00    +0.000 A 
ATOM     13  N   UNL     1       7.110   5.166  16.045  0.00  0.00    +0.000 N 
ATOM     14  H   UNL     1       7.662   5.823  16.577  0.00  0.00    +0.000 HD
ENDBRANCH   2   5
BRANCH   1  15
ATOM     15  C   UNL     1       3.947   4.083  19.604  0.00  0.00    +0.000 C 
BRANCH  15  19
ATOM     16  C   UNL     1       1.657   8.580  19.250  0.00  0.00    +0.000 C 
ATOM     17  N   UNL     1       2.090   7.262  19.652  0.00  0.00    +0.000 N 
ATOM     18  C   UNL     1       2.967   6.440  19.001  0.00  0.00    +0.000 A 
ATOM     19  C   UNL     1       3.110   5.312  19.791  0.00  0.00    +0.000 A 
ATOM     20  C   UNL     1       2.248   5.568  20.886  0.00  0.00    +0.000 A 
ATOM     21  N   UNL     1       1.618   6.739  20.794  0.00  0.00    +0.000 NA
ENDBRANCH  15  19
BRANCH  15  22
ATOM     22  C   UNL     1       3.137   2.801  19.839  0.00  0.00    +0.000 C 
ATOM     23  C   UNL     1       1.607   2.917  20.099  0.00  0.00    +0.000 C 
ATOM     24  C   UNL     1       1.359   2.648  18.602  0.00  0.00    +0.000 C 
ATOM     25  C   UNL     1       2.767   2.016  18.545  0.00  0.00    +0.000 C 
BRANCH  24  26
ATOM     26  O   UNL     1       0.256   1.785  18.278  0.00  0.00    +0.000 OA
ATOM     27  H   UNL     1      -0.538   2.227  18.622  0.00  0.00    +0.000 HD
ENDBRANCH  24  26
ENDBRANCH  15  22
ENDBRANCH   1  15
TORSDOF 5
ENDMDL
MODEL 5
REMARK VINA RESULT:      -7.9      0.873      1.581
REMARK  Name = 
REMARK  6 active torsions:
REMARK  status: ('A' for Active; 'I' for Inactive)
REMARK    1  A    between atoms: C_1  and  N_2
REMARK    2  A    between atoms: C_4  and  C_5
REMARK    3  A    between atoms: C_5  and  N_6
REMARK    4  A    between atoms: C_5  and  C_18
REMARK    5  A    between atoms: C_7  and  C_9
REMARK    6  A    between atoms: C_20  and  O_21
REMARK                            x       y       z     vdW  Elec       q    Type
REMARK                         _______ _______ _______ _____ _____    ______ ____
ROOT
ATOM      1  N   UNL     1       3.822   5.479  17.717  0.00  0.00    +0.000 N 
ATOM      2  C   UNL     1       5.183   5.296  17.626  0.00  0.00    +0.000 C 
ATOM      3  O   UNL     1       5.921   5.314  18.606  0.00  0.00    +0.000 OA
ATOM      4  H   UNL     1       3.288   5.453  16.855  0.00  0.00    +0.000 HD
ENDROOT
BRANCH   2   5
ATOM      5  C   UNL     1       5.696   5.071  16.288  0.00  0.00    +0.000 A 
ATOM      6  N   UNL     1       6.744   5.662  15.729  0.00  0.00    +0.000 NA
ATOM      7  C   UNL     1       6.839   5.095  14.472  0.00  0.00    +0.000 A 
ATOM      8  C   UNL     1       7.742   5.290  13.418  0.00  0.00    +0.000 A 
ATOM      9  C   UNL     1       7.553   4.521  12.261  0.00  0.00    +0.000 A 
ATOM     10  C   UNL     1       6.493   3.620  12.206  0.00  0.00    +0.000 A 
ATOM     11  N   UNL     1       5.592   3.400  13.192  0.00  0.00    +0.000 NA
ATOM     12  C   UNL     1       5.830   4.162  14.274  0.00  0.00    +0.000 A 
ATOM     13  N   UNL     1       5.116   4.168  15.428  0.00  0.00    +0.000 N 
ATOM     14  H   UNL     1       4.309   3.597  15.635  0.00  0.00    +0.000 HD
ENDBRANCH   2   5
BRANCH   1  15
ATOM     15  C   UNL     1       3.181   5.785  18.983  0.00  0.00    +0.000 C 
BRANCH  15  19
ATOM     16  C   UNL     1       0.739  10.125  19.871  0.00  0.00    +0.000 C 
ATOM     17  N   UNL     1       1.519   9.056  19.294  0.00  0.00    +0.000 N 
ATOM     18  C   UNL     1       1.872   7.873  19.881  0.00  0.00    +0.000 A 
ATOM     19  C   UNL     1       2.566   7.151  18.925  0.00  0.00    +0.000 A 
ATOM     20  C   UNL     1       2.582   8.020  17.805  0.00  0.00    +0.000 A 
ATOM     21  N   UNL     1       1.963   9.179  18.034  0.00  0.00    +0.000 NA
ENDBRANCH  15  19
BRANCH  15  22
ATOM     22  C   UNL     1       2.131   4.699  19.250  0.00  0.00    +0.000 C 
ATOM     23  C   UNL     1       2.612   3.261  19.603  0.00  0.00    +0.000 C 
ATOM     24  C   UNL     1       2.454   3.603  21.096  0.00  0.00    +0.000 C 
ATOM     25  C   UNL     1       1.497   4.739  20.673  0.00  0.00    +0.000 C 
BRANCH  24  26
ATOM     26  O   UNL     1       1.897   2.577  21.936  0.00  0.00    +0.000 OA
ATOM     27  H   UNL     1       2.554   2.419  22.635  0.00  0.00    +0.000 HD
ENDBRANCH  24  26
ENDBRANCH  15  22
ENDBRANCH   1  15
TORSDOF 5
ENDMDL
MODEL 6
REMARK VINA RESULT:      -7.8      1.324      2.030
REMARK  Name = 
REMARK  6 active torsions:
REMARK  status: ('A' for Active; 'I' for Inactive)
REMARK    1  A    between atoms: C_1  and  N_2
REMARK    2  A    between atoms: C_4  and  C_5
REMARK    3  A    between atoms: C_5  and  N_6
REMARK    4  A    between atoms: C_5  and  C_18
REMARK    5  A    between atoms: C_7  and  C_9
REMARK    6  A    between atoms: C_20  and  O_21
REMARK                            x       y       z     vdW  Elec       q    Type
REMARK                         _______ _______ _______ _____ _____    ______ ____
ROOT
ATOM      1  N   UNL     1       3.827   5.478  17.623  0.00  0.00    +0.000 N 
ATOM      2  C   UNL     1       5.198   5.441  17.503  0.00  0.00    +0.000 C 
ATOM      3  O   UNL     1       5.952   5.629  18.453  0.00  0.00    +0.000 OA
ATOM      4  H   UNL     1       3.280   5.315  16.785  0.00  0.00    +0.000 HD
ENDROOT
BRANCH   2   5
ATOM      5  C   UNL     1       5.702   5.156  16.173  0.00  0.00    +0.000 A 
ATOM      6  N   UNL     1       6.779   5.680  15.601  0.00  0.00    +0.000 NA
ATOM      7  C   UNL     1       6.848   5.076  14.360  0.00  0.00    +0.000 A 
ATOM      8  C   UNL     1       7.762   5.198  13.305  0.00  0.00    +0.000 A 
ATOM      9  C   UNL     1       7.538   4.409  12.168  0.00  0.00    +0.000 A 
ATOM     10  C   UNL     1       6.435   3.559  12.133  0.00  0.00    +0.000 A 
ATOM     11  N   UNL     1       5.523   3.410  13.122  0.00  0.00    +0.000 NA
ATOM     12  C   UNL     1       5.795   4.188  14.184  0.00  0.00    +0.000 A 
ATOM     13  N   UNL     1       5.081   4.259  15.335  0.00  0.00    +0.000 N 
ATOM     14  H   UNL     1       4.247   3.734  15.555  0.00  0.00    +0.000 HD
ENDBRANCH   2   5
BRANCH   1  15
ATOM     15  C   UNL     1       3.186   5.823  18.878  0.00  0.00    +0.000 C 
BRANCH  15  19
ATOM     16  C   UNL     1       0.752  10.194  19.630  0.00  0.00    +0.000 C 
ATOM     17  N   UNL     1       1.547   9.113  19.095  0.00  0.00    +0.000 N 
ATOM     18  C   UNL     1       1.858   7.929  19.703  0.00  0.00    +0.000 A 
ATOM     19  C   UNL     1       2.590   7.195  18.785  0.00  0.00    +0.000 A 
ATOM     20  C   UNL     1       2.668   8.058  17.663  0.00  0.00    +0.000 A 
ATOM     21  N   UNL     1       2.052   9.224  17.857  0.00  0.00    +0.000 NA
ENDBRANCH  15  19
BRANCH  15  22
ATOM     22  C   UNL     1       2.120   4.757  19.166  0.00  0.00    +0.000 C 
ATOM     23  C   UNL     1       1.579   3.899  17.986  0.00  0.00    +0.000 C 
ATOM     24  C   UNL     1       2.595   2.800  18.353  0.00  0.00    +0.000 C 
ATOM     25  C   UNL     1       2.671   3.426  19.762  0.00  0.00    +0.000 C 
BRANCH  24  26
ATOM     26  O   UNL     1       2.129   1.442  18.280  0.00  0.00    +0.000 OA
ATOM     27  H   UNL     1       2.806   0.954  17.784  0.00  0.00    +0.000 HD
ENDBRANCH  24  26
ENDBRANCH  15  22
ENDBRANCH   1  15
TORSDOF 5
ENDMDL
MODEL 7
REMARK VINA RESULT:      -7.8      1.371      1.937
REMARK  Name = 
REMARK  6 active torsions:
REMARK  status: ('A' for Active; 'I' for Inactive)
REMARK    1  A    between atoms: C_1  and  N_2
REMARK    2  A    between atoms: C_4  and  C_5
REMARK    3  A    between atoms: C_5  and  N_6
REMARK    4  A    between atoms: C_5  and  C_18
REMARK    5  A    between atoms: C_7  and  C_9
REMARK    6  A    between atoms: C_20  and  O_21
REMARK                            x       y       z     vdW  Elec       q    Type
REMARK                         _______ _______ _______ _____ _____    ______ ____
ROOT
ATOM      1  N   UNL     1       4.466   5.000  17.681  0.00  0.00    +0.000 N 
ATOM      2  C   UNL     1       5.821   4.956  17.442  0.00  0.00    +0.000 C 
ATOM      3  O   UNL     1       6.654   5.010  18.340  0.00  0.00    +0.000 OA
ATOM      4  H   UNL     1       3.848   4.954  16.878  0.00  0.00    +0.000 HD
ENDROOT
BRANCH   2   5
ATOM      5  C   UNL     1       6.206   4.831  16.049  0.00  0.00    +0.000 A 
ATOM      6  N   UNL     1       7.162   5.508  15.425  0.00  0.00    +0.000 NA
ATOM      7  C   UNL     1       7.157   5.015  14.133  0.00  0.00    +0.000 A 
ATOM      8  C   UNL     1       7.938   5.315  13.009  0.00  0.00    +0.000 A 
ATOM      9  C   UNL     1       7.671   4.600  11.834  0.00  0.00    +0.000 A 
ATOM     10  C   UNL     1       6.656   3.646  11.830  0.00  0.00    +0.000 A 
ATOM     11  N   UNL     1       5.872   3.325  12.885  0.00  0.00    +0.000 NA
ATOM     12  C   UNL     1       6.180   4.040  13.981  0.00  0.00    +0.000 A 
ATOM     13  N   UNL     1       5.587   3.945  15.198  0.00  0.00    +0.000 N 
ATOM     14  H   UNL     1       4.835   3.320  15.449  0.00  0.00    +0.000 HD
ENDBRANCH   2   5
BRANCH   1  15
ATOM     15  C   UNL     1       3.939   5.196  19.019  0.00  0.00    +0.000 C 
BRANCH  15  19
ATOM     16  C   UNL     1       1.551   9.558  18.089  0.00  0.00    +0.000 C 
ATOM     17  N   UNL     1       2.029   8.325  18.669  0.00  0.00    +0.000 N 
ATOM     18  C   UNL     1       2.884   7.418  18.107  0.00  0.00    +0.000 A 
ATOM     19  C   UNL     1       3.091   6.431  19.056  0.00  0.00    +0.000 A 
ATOM     20  C   UNL     1       2.286   6.850  20.145  0.00  0.00    +0.000 A 
ATOM     21  N   UNL     1       1.630   7.986  19.904  0.00  0.00    +0.000 NA
ENDBRANCH  15  19
BRANCH  15  22
ATOM     22  C   UNL     1       3.136   3.943  19.392  0.00  0.00    +0.000 C 
ATOM     23  C   UNL     1       2.711   2.960  18.262  0.00  0.00    +0.000 C 
ATOM     24  C   UNL     1       3.952   2.103  18.576  0.00  0.00    +0.000 C 
ATOM     25  C   UNL     1       3.986   2.770  19.968  0.00  0.00    +0.000 C 
BRANCH  24  26
ATOM     26  O   UNL     1       3.773   0.677  18.553  0.00  0.00    +0.000 OA
ATOM     27  H   UNL     1       3.828   0.416  17.619  0.00  0.00    +0.000 HD
ENDBRANCH  24  26
ENDBRANCH  15  22
ENDBRANCH   1  15
TORSDOF 5
ENDMDL
MODEL 8
REMARK VINA RESULT:      -7.8      4.816      6.676
REMARK  Name = 
REMARK  6 active torsions:
REMARK  status: ('A' for Active; 'I' for Inactive)
REMARK    1  A    between atoms: C_1  and  N_2
REMARK    2  A    between atoms: C_4  and  C_5
REMARK    3  A    between atoms: C_5  and  N_6
REMARK    4  A    between atoms: C_5  and  C_18
REMARK    5  A    between atoms: C_7  and  C_9
REMARK    6  A    between atoms: C_20  and  O_21
REMARK                            x       y       z     vdW  Elec       q    Type
REMARK                         _______ _______ _______ _____ _____    ______ ____
ROOT
ATOM      1  N   UNL     1       6.792   7.291  17.251  0.00  0.00    +0.000 N 
ATOM      2  C   UNL     1       7.797   7.469  18.174  0.00  0.00    +0.000 C 
ATOM      3  O   UNL     1       8.248   6.549  18.849  0.00  0.00    +0.000 OA
ATOM      4  H   UNL     1       6.476   8.108  16.740  0.00  0.00    +0.000 HD
ENDROOT
BRANCH   2   5
ATOM      5  C   UNL     1       8.301   8.824  18.296  0.00  0.00    +0.000 A 
ATOM      6  N   UNL     1       8.029   9.849  17.498  0.00  0.00    +0.000 NA
ATOM      7  C   UNL     1       8.721  10.913  18.044  0.00  0.00    +0.000 A 
ATOM      8  C   UNL     1       8.823  12.260  17.670  0.00  0.00    +0.000 A 
ATOM      9  C   UNL     1       9.615  13.091  18.473  0.00  0.00    +0.000 A 
ATOM     10  C   UNL     1      10.262  12.553  19.583  0.00  0.00    +0.000 A 
ATOM     11  N   UNL     1      10.200  11.261  19.982  0.00  0.00    +0.000 NA
ATOM     12  C   UNL     1       9.422  10.519  19.176  0.00  0.00    +0.000 A 
ATOM     13  N   UNL     1       9.151   9.196  19.312  0.00  0.00    +0.000 N 
ATOM     14  H   UNL     1       9.493   8.588  20.042  0.00  0.00    +0.000 HD
ENDBRANCH   2   5
BRANCH   1  15
ATOM     15  C   UNL     1       6.144   6.004  17.076  0.00  0.00    +0.000 C 
BRANCH  15  19
ATOM     16  C   UNL     1       2.554   4.849  20.447  0.00  0.00    +0.000 C 
ATOM     17  N   UNL     1       3.341   5.455  19.399  0.00  0.00    +0.000 N 
ATOM     18  C   UNL     1       4.600   5.108  18.997  0.00  0.00    +0.000 A 
ATOM     19  C   UNL     1       4.915   5.932  17.930  0.00  0.00    +0.000 A 
ATOM     20  C   UNL     1       3.765   6.751  17.798  0.00  0.00    +0.000 A 
ATOM     21  N   UNL     1       2.820   6.474  18.697  0.00  0.00    +0.000 NA
ENDBRANCH  15  19
BRANCH  15  22
ATOM     22  C   UNL     1       5.812   5.848  15.586  0.00  0.00    +0.000 C 
ATOM     23  C   UNL     1       6.927   5.360  14.615  0.00  0.00    +0.000 C 
ATOM     24  C   UNL     1       6.386   3.925  14.757  0.00  0.00    +0.000 C 
ATOM     25  C   UNL     1       5.048   4.539  15.220  0.00  0.00    +0.000 C 
BRANCH  24  26
ATOM     26  O   UNL     1       6.345   3.131  13.558  0.00  0.00    +0.000 OA
ATOM     27  H   UNL     1       5.550   2.578  13.632  0.00  0.00    +0.000 HD
ENDBRANCH  24  26
ENDBRANCH  15  22
ENDBRANCH   1  15
TORSDOF 5
ENDMDL
MODEL 9
REMARK VINA RESULT:      -7.6      1.510      2.228
REMARK  Name = 
REMARK  6 active torsions:
REMARK  status: ('A' for Active; 'I' for Inactive)
REMARK    1  A    between atoms: C_1  and  N_2
REMARK    2  A    between atoms: C_4  and  C_5
REMARK    3  A    between atoms: C_5  and  N_6
REMARK    4  A    between atoms: C_5  and  C_18
REMARK    5  A    between atoms: C_7  and  C_9
REMARK    6  A    between atoms: C_20  and  O_21
REMARK                            x       y       z     vdW  Elec       q    Type
REMARK                         _______ _______ _______ _____ _____    ______ ____
ROOT
ATOM      1  N   UNL     1       4.685   4.195  17.935  0.00  0.00    +0.000 N 
ATOM      2  C   UNL     1       5.997   4.484  17.634  0.00  0.00    +0.000 C 
ATOM      3  O   UNL     1       6.841   4.702  18.496  0.00  0.00    +0.000 OA
ATOM      4  H   UNL     1       4.052   4.033  17.159  0.00  0.00    +0.000 HD
ENDROOT
BRANCH   2   5
ATOM      5  C   UNL     1       6.324   4.507  16.221  0.00  0.00    +0.000 A 
ATOM      6  N   UNL     1       7.221   5.283  15.626  0.00  0.00    +0.000 NA
ATOM      7  C   UNL     1       7.179   4.912  14.295  0.00  0.00    +0.000 A 
ATOM      8  C   UNL     1       7.895   5.351  13.173  0.00  0.00    +0.000 A 
ATOM      9  C   UNL     1       7.606   4.736  11.947  0.00  0.00    +0.000 A 
ATOM     10  C   UNL     1       6.635   3.740  11.894  0.00  0.00    +0.000 A 
ATOM     11  N   UNL     1       5.914   3.286  12.946  0.00  0.00    +0.000 NA
ATOM     12  C   UNL     1       6.239   3.910  14.091  0.00  0.00    +0.000 A 
ATOM     13  N   UNL     1       5.707   3.675  15.317  0.00  0.00    +0.000 N 
ATOM     14  H   UNL     1       4.994   2.995  15.538  0.00  0.00    +0.000 HD
ENDBRANCH   2   5
BRANCH   1  15
ATOM     15  C   UNL     1       4.200   4.209  19.303  0.00  0.00    +0.000 C 
BRANCH  15  19
ATOM     16  C   UNL     1       1.095   7.775  21.101  0.00  0.00    +0.000 C 
ATOM     17  N   UNL     1       1.987   6.982  20.288  0.00  0.00    +0.000 N 
ATOM     18  C   UNL     1       2.636   5.833  20.644  0.00  0.00    +0.000 A 
ATOM     19  C   UNL     1       3.329   5.409  19.522  0.00  0.00    +0.000 A 
ATOM     20  C   UNL     1       3.031   6.403  18.557  0.00  0.00    +0.000 A 
ATOM     21  N   UNL     1       2.233   7.364  19.026  0.00  0.00    +0.000 NA
ENDBRANCH  15  19
BRANCH  15  22
ATOM     22  C   UNL     1       3.436   2.900  19.541  0.00  0.00    +0.000 C 
ATOM     23  C   UNL     1       1.955   2.970  20.015  0.00  0.00    +0.000 C 
ATOM     24  C   UNL     1       1.506   2.818  18.550  0.00  0.00    +0.000 C 
ATOM     25  C   UNL     1       2.895   2.215  18.249  0.00  0.00    +0.000 C 
BRANCH  24  26
ATOM     26  O   UNL     1       0.373   1.967  18.309  0.00  0.00    +0.000 OA
ATOM     27  H   UNL     1       0.192   2.026  17.356  0.00  0.00    +0.000 HD
ENDBRANCH  24  26
ENDBRANCH  15  22
ENDBRANCH   1  15
TORSDOF 5
ENDMDL
