MODEL 1
REMARK VINA RESULT:      -6.7      0.000      0.000
REMARK  Name = 
REMARK  11 active torsions:
REMARK  status: ('A' for Active; 'I' for Inactive)
REMARK    1  A    between atoms: C_1  and  C_2
REMARK    2  A    between atoms: C_2  and  C_3
REMARK    3  A    between atoms: C_3  and  C_4
REMARK    4  A    between atoms: C_4  and  O_5
REMARK    5  A    between atoms: O_5  and  C_6
REMARK    6  A    between atoms: C_15  and  C_16
REMARK    7  A    between atoms: N_22  and  C_23
REMARK    8  A    between atoms: C_23  and  C_24
REMARK    9  A    between atoms: C_23  and  C_25
REMARK   10  A    between atoms: C_28  and  N_29
REMARK   11  A    between atoms: N_32  and  C_33
REMARK                            x       y       z     vdW  Elec       q    Type
REMARK                         _______ _______ _______ _____ _____    ______ ____
ROOT
ATOM      1  C   UNL     1       3.304   7.290  17.759  0.00  0.00    +0.000 A 
ATOM      2  C   UNL     1       2.963   8.641  17.621  0.00  0.00    +0.000 A 
ATOM      3  C   UNL     1       2.197   9.320  18.567  0.00  0.00    +0.000 A 
ATOM      4  C   UNL     1       1.916  10.745  18.274  0.00  0.00    +0.000 A 
ATOM      5  O   UNL     1       2.310  11.287  17.246  0.00  0.00    +0.000 OA
ATOM      6  C   UNL     1       1.162  11.429  19.281  0.00  0.00    +0.000 A 
ATOM      7  C   UNL     1       0.720  12.774  19.315  0.00  0.00    +0.000 A 
ATOM      8  C   UNL     1       0.830  13.875  18.441  0.00  0.00    +0.000 A 
ATOM      9  C   UNL     1       0.237  15.091  18.794  0.00  0.00    +0.000 A 
ATOM     10  C   UNL     1      -0.452  15.221  20.003  0.00  0.00    +0.000 A 
ATOM     11  C   UNL     1      -0.565  14.135  20.887  0.00  0.00    +0.000 A 
ATOM     12  C   UNL     1       0.033  12.925  20.514  0.00  0.00    +0.000 A 
ATOM     13  N   UNL     1       0.086  11.708  21.172  0.00  0.00    +0.000 N 
ATOM     14  C   UNL     1       0.737  10.768  20.418  0.00  0.00    +0.000 A 
ATOM     15  N   UNL     1       0.936   9.430  20.689  0.00  0.00    +0.000 N 
ATOM     16  C   UNL     1       1.716   8.689  19.727  0.00  0.00    +0.000 A 
ATOM     17  C   UNL     1       2.041   7.317  19.830  0.00  0.00    +0.000 A 
ATOM     18  C   UNL     1       2.830   6.579  18.886  0.00  0.00    +0.000 A 
ATOM     19  H   UNL     1      -0.334  11.572  22.071  0.00  0.00    +0.000 HD
ENDROOT
BRANCH  18  20
ATOM     20  N   UNL     1       2.995   5.212  19.115  0.00  0.00    +0.000 N 
ATOM     21  C   UNL     1       4.158   4.659  19.832  0.00  0.00    +0.000 C 
ATOM     22  C   UNL     1       4.494   3.244  19.281  0.00  0.00    +0.000 C 
ATOM     23  N   UNL     1       3.348   2.303  19.265  0.00  0.00    +0.000 NA
ATOM     24  C   UNL     1       3.721   1.051  18.605  0.00  0.00    +0.000 C 
ATOM     25  C   UNL     1       2.206   2.932  18.566  0.00  0.00    +0.000 C 
ATOM     26  C   UNL     1       1.826   4.308  19.169  0.00  0.00    +0.000 C 
ENDBRANCH  18  20
BRANCH  15  27
ATOM     27  C   UNL     1       0.599   8.754  21.974  0.00  0.00    +0.000 C 
ATOM     28  C   UNL     1       1.530   9.212  23.099  0.00  0.00    +0.000 C 
ATOM     29  C   UNL     1      -0.860   8.848  22.423  0.00  0.00    +0.000 C 
ENDBRANCH  15  27
BRANCH  10  30
ATOM     30  C   UNL     1      -1.064  16.474  20.345  0.00  0.00    +0.000 C 
ATOM     31  N   UNL     1      -1.553  17.483  20.634  0.00  0.00    +0.000 NA
ENDBRANCH  10  30
BRANCH   1  32
ATOM     32  O   UNL     1       4.109   6.668  16.815  0.00  0.00    +0.000 OA
BRANCH  32  33
ATOM     33  C   UNL     1       5.485   7.077  16.847  0.00  0.00    +0.000 C 
BRANCH  33  34
ATOM     34  C   UNL     1       6.426   5.996  17.355  0.00  0.00    +0.000 C 
BRANCH  34  36
ATOM     35  C   UNL     1       7.800   8.105  17.630  0.00  0.00    +0.000 C 
ATOM     36  C   UNL     1       7.605   6.668  18.071  0.00  0.00    +0.000 C 
ENDBRANCH  34  36
ENDBRANCH  33  34
ENDBRANCH  32  33
ENDBRANCH   1  32
TORSDOF 7
ENDMDL
MODEL 2
REMARK VINA RESULT:      -6.6      0.729      1.130
REMARK  Name = 
REMARK  11 active torsions:
REMARK  status: ('A' for Active; 'I' for Inactive)
REMARK    1  A    between atoms: C_1  and  C_2
REMARK    2  A    between atoms: C_2  and  C_3
REMARK    3  A    between atoms: C_3  and  C_4
REMARK    4  A    between atoms: C_4  and  O_5
REMARK    5  A    between atoms: O_5  and  C_6
REMARK    6  A    between atoms: C_15  and  C_16
REMARK    7  A    between atoms: N_22  and  C_23
REMARK    8  A    between atoms: C_23  and  C_24
REMARK    9  A    between atoms: C_23  and  C_25
REMARK   10  A    between atoms: C_28  and  N_29
REMARK   11  A    between atoms: N_32  and  C_33
REMARK                            x       y       z     vdW  Elec       q    Type
REMARK                         _______ _______ _______ _____ _____    ______ ____
ROOT
ATOM      1  C   UNL     1       3.280   7.331  17.764  0.00  0.00    +0.000 A 
ATOM      2  C   UNL     1       2.917   8.676  17.628  0.00  0.00    +0.000 A 
ATOM      3  C   UNL     1       2.157   9.347  18.584  0.00  0.00    +0.000 A 
ATOM      4  C   UNL     1       1.850  10.766  18.292  0.00  0.00    +0.000 A 
ATOM      5  O   UNL     1       2.218  11.310  17.256  0.00  0.00    +0.000 OA
ATOM      6  C   UNL     1       1.103  11.442  19.310  0.00  0.00    +0.000 A 
ATOM      7  C   UNL     1       0.641  12.781  19.347  0.00  0.00    +0.000 A 
ATOM      8  C   UNL     1       0.719  13.880  18.467  0.00  0.00    +0.000 A 
ATOM      9  C   UNL     1       0.114  15.088  18.826  0.00  0.00    +0.000 A 
ATOM     10  C   UNL     1      -0.556  15.212  20.047  0.00  0.00    +0.000 A 
ATOM     11  C   UNL     1      -0.637  14.128  20.936  0.00  0.00    +0.000 A 
ATOM     12  C   UNL     1      -0.027  12.926  20.557  0.00  0.00    +0.000 A 
ATOM     13  N   UNL     1       0.056  11.712  21.217  0.00  0.00    +0.000 N 
ATOM     14  C   UNL     1       0.708  10.779  20.456  0.00  0.00    +0.000 A 
ATOM     15  N   UNL     1       0.931   9.445  20.727  0.00  0.00    +0.000 N 
ATOM     16  C   UNL     1       1.705   8.713  19.755  0.00  0.00    +0.000 A 
ATOM     17  C   UNL     1       2.053   7.347  19.857  0.00  0.00    +0.000 A 
ATOM     18  C   UNL     1       2.837   6.616  18.902  0.00  0.00    +0.000 A 
ATOM     19  H   UNL     1      -0.347  11.573  22.125  0.00  0.00    +0.000 HD
ENDROOT
BRANCH  18  20
ATOM     20  N   UNL     1       3.027   5.253  19.133  0.00  0.00    +0.000 N 
ATOM     21  C   UNL     1       4.253   4.712  19.747  0.00  0.00    +0.000 C 
ATOM     22  C   UNL     1       4.540   3.290  19.185  0.00  0.00    +0.000 C 
ATOM     23  N   UNL     1       3.401   2.347  19.287  0.00  0.00    +0.000 NA
ATOM     24  C   UNL     1       3.715   1.087  18.612  0.00  0.00    +0.000 C 
ATOM     25  C   UNL     1       2.197   2.965  18.689  0.00  0.00    +0.000 C 
ATOM     26  C   UNL     1       1.870   4.348  19.305  0.00  0.00    +0.000 C 
ENDBRANCH  18  20
BRANCH  15  27
ATOM     27  C   UNL     1       0.627   8.769  22.021  0.00  0.00    +0.000 C 
ATOM     28  C   UNL     1       1.587   9.225  23.122  0.00  0.00    +0.000 C 
ATOM     29  C   UNL     1      -0.820   8.864  22.507  0.00  0.00    +0.000 C 
ENDBRANCH  15  27
BRANCH  10  30
ATOM     30  C   UNL     1      -1.180  16.457  20.395  0.00  0.00    +0.000 C 
ATOM     31  N   UNL     1      -1.688  17.462  20.663  0.00  0.00    +0.000 NA
ENDBRANCH  10  30
BRANCH   1  32
ATOM     32  O   UNL     1       4.079   6.718  16.808  0.00  0.00    +0.000 OA
BRANCH  32  33
ATOM     33  C   UNL     1       5.490   6.866  17.030  0.00  0.00    +0.000 C 
BRANCH  33  34
ATOM     34  C   UNL     1       6.322   5.769  16.385  0.00  0.00    +0.000 C 
BRANCH  34  36
ATOM     35  C   UNL     1       6.177   3.956  14.624  0.00  0.00    +0.000 C 
ATOM     36  C   UNL     1       5.400   4.896  15.524  0.00  0.00    +0.000 C 
ENDBRANCH  34  36
ENDBRANCH  33  34
ENDBRANCH  32  33
ENDBRANCH   1  32
TORSDOF 7
ENDMDL
MODEL 3
REMARK VINA RESULT:      -6.4      2.509      4.603
REMARK  Name = 
REMARK  11 active torsions:
REMARK  status: ('A' for Active; 'I' for Inactive)
REMARK    1  A    between atoms: C_1  and  C_2
REMARK    2  A    between atoms: C_2  and  C_3
REMARK    3  A    between atoms: C_3  and  C_4
REMARK    4  A    between atoms: C_4  and  O_5
REMARK    5  A    between atoms: O_5  and  C_6
REMARK    6  A    between atoms: C_15  and  C_16
REMARK    7  A    between atoms: N_22  and  C_23
REMARK    8  A    between atoms: C_23  and  C_24
REMARK    9  A    between atoms: C_23  and  C_25
REMARK   10  A    between atoms: C_28  and  N_29
REMARK   11  A    between atoms: N_32  and  C_33
REMARK                            x       y       z     vdW  Elec       q    Type
REMARK                         _______ _______ _______ _____ _____    ______ ____
ROOT
ATOM      1  C   UNL     1       1.757   6.752  20.438  0.00  0.00    +0.000 A 
ATOM      2  C   UNL     1       0.936   7.516  21.277  0.00  0.00    +0.000 A 
ATOM      3  C   UNL     1       0.586   8.833  20.985  0.00  0.00    +0.000 A 
ATOM      4  C   UNL     1      -0.284   9.509  21.975  0.00  0.00    +0.000 A 
ATOM      5  O   UNL     1      -0.651   8.952  23.005  0.00  0.00    +0.000 OA
ATOM      6  C   UNL     1      -0.662  10.847  21.631  0.00  0.00    +0.000 A 
ATOM      7  C   UNL     1      -1.467  11.766  22.347  0.00  0.00    +0.000 A 
ATOM      8  C   UNL     1      -2.149  11.735  23.580  0.00  0.00    +0.000 A 
ATOM      9  C   UNL     1      -2.854  12.865  24.001  0.00  0.00    +0.000 A 
ATOM     10  C   UNL     1      -2.892  14.016  23.208  0.00  0.00    +0.000 A 
ATOM     11  C   UNL     1      -2.223  14.060  21.974  0.00  0.00    +0.000 A 
ATOM     12  C   UNL     1      -1.520  12.918  21.570  0.00  0.00    +0.000 A 
ATOM     13  N   UNL     1      -0.781  12.675  20.426  0.00  0.00    +0.000 N 
ATOM     14  C   UNL     1      -0.214  11.429  20.460  0.00  0.00    +0.000 A 
ATOM     15  N   UNL     1       0.641  10.843  19.550  0.00  0.00    +0.000 N 
ATOM     16  C   UNL     1       1.035   9.483  19.822  0.00  0.00    +0.000 A 
ATOM     17  C   UNL     1       1.890   8.706  19.007  0.00  0.00    +0.000 A 
ATOM     18  C   UNL     1       2.274   7.348  19.263  0.00  0.00    +0.000 A 
ATOM     19  H   UNL     1      -0.680  13.362  19.703  0.00  0.00    +0.000 HD
ENDROOT
BRANCH  18  20
ATOM     20  N   UNL     1       3.181   6.757  18.383  0.00  0.00    +0.000 N 
ATOM     21  C   UNL     1       2.991   5.403  17.832  0.00  0.00    +0.000 C 
ATOM     22  C   UNL     1       4.374   4.734  17.590  0.00  0.00    +0.000 C 
ATOM     23  N   UNL     1       5.314   5.541  16.777  0.00  0.00    +0.000 NA
ATOM     24  C   UNL     1       6.628   4.898  16.720  0.00  0.00    +0.000 C 
ATOM     25  C   UNL     1       5.430   6.896  17.360  0.00  0.00    +0.000 C 
ATOM     26  C   UNL     1       4.055   7.590  17.528  0.00  0.00    +0.000 C 
ENDBRANCH  18  20
BRANCH  15  27
ATOM     27  C   UNL     1       1.010  11.418  18.224  0.00  0.00    +0.000 C 
ATOM     28  C   UNL     1      -0.161  12.191  17.613  0.00  0.00    +0.000 C 
ATOM     29  C   UNL     1       2.281  12.267  18.188  0.00  0.00    +0.000 C 
ENDBRANCH  15  27
BRANCH  10  30
ATOM     30  C   UNL     1      -3.613  15.171  23.661  0.00  0.00    +0.000 C 
ATOM     31  N   UNL     1      -4.205  16.096  24.029  0.00  0.00    +0.000 NA
ENDBRANCH  10  30
BRANCH   1  32
ATOM     32  O   UNL     1       2.040   5.428  20.746  0.00  0.00    +0.000 OA
BRANCH  32  33
ATOM     33  C   UNL     1       0.942   4.525  20.546  0.00  0.00    +0.000 C 
BRANCH  33  34
ATOM     34  C   UNL     1       1.239   3.103  20.992  0.00  0.00    +0.000 C 
BRANCH  34  36
ATOM     35  C   UNL     1       1.060   2.275  18.606  0.00  0.00    +0.000 C 
ATOM     36  C   UNL     1       1.934   2.363  19.842  0.00  0.00    +0.000 C 
ENDBRANCH  34  36
ENDBRANCH  33  34
ENDBRANCH  32  33
ENDBRANCH   1  32
TORSDOF 7
ENDMDL
MODEL 4
REMARK VINA RESULT:      -6.2      2.343      4.233
REMARK  Name = 
REMARK  11 active torsions:
REMARK  status: ('A' for Active; 'I' for Inactive)
REMARK    1  A    between atoms: C_1  and  C_2
REMARK    2  A    between atoms: C_2  and  C_3
REMARK    3  A    between atoms: C_3  and  C_4
REMARK    4  A    between atoms: C_4  and  O_5
REMARK    5  A    between atoms: O_5  and  C_6
REMARK    6  A    between atoms: C_15  and  C_16
REMARK    7  A    between atoms: N_22  and  C_23
REMARK    8  A    between atoms: C_23  and  C_24
REMARK    9  A    between atoms: C_23  and  C_25
REMARK   10  A    between atoms: C_28  and  N_29
REMARK   11  A    between atoms: N_32  and  C_33
REMARK                            x       y       z     vdW  Elec       q    Type
REMARK                         _______ _______ _______ _____ _____    ______ ____
ROOT
ATOM      1  C   UNL     1       1.804   6.157  20.781  0.00  0.00    +0.000 A 
ATOM      2  C   UNL     1       0.956   7.053  21.444  0.00  0.00    +0.000 A 
ATOM      3  C   UNL     1       0.751   8.358  20.999  0.00  0.00    +0.000 A 
ATOM      4  C   UNL     1      -0.170   9.185  21.814  0.00  0.00    +0.000 A 
ATOM      5  O   UNL     1      -0.698   8.755  22.834  0.00  0.00    +0.000 OA
ATOM      6  C   UNL     1      -0.395  10.507  21.312  0.00  0.00    +0.000 A 
ATOM      7  C   UNL     1      -1.200  11.545  21.842  0.00  0.00    +0.000 A 
ATOM      8  C   UNL     1      -2.020  11.679  22.980  0.00  0.00    +0.000 A 
ATOM      9  C   UNL     1      -2.676  12.892  23.213  0.00  0.00    +0.000 A 
ATOM     10  C   UNL     1      -2.528  13.961  22.326  0.00  0.00    +0.000 A 
ATOM     11  C   UNL     1      -1.718  13.841  21.184  0.00  0.00    +0.000 A 
ATOM     12  C   UNL     1      -1.068  12.619  20.969  0.00  0.00    +0.000 A 
ATOM     13  N   UNL     1      -0.224  12.217  19.949  0.00  0.00    +0.000 N 
ATOM     14  C   UNL     1       0.231  10.942  20.159  0.00  0.00    +0.000 A 
ATOM     15  N   UNL     1       1.135  10.214  19.414  0.00  0.00    +0.000 N 
ATOM     16  C   UNL     1       1.383   8.861  19.849  0.00  0.00    +0.000 A 
ATOM     17  C   UNL     1       2.261   7.952  19.215  0.00  0.00    +0.000 A 
ATOM     18  C   UNL     1       2.500   6.601  19.632  0.00  0.00    +0.000 A 
ATOM     19  H   UNL     1       0.015  12.823  19.188  0.00  0.00    +0.000 HD
ENDROOT
BRANCH  18  20
ATOM     20  N   UNL     1       3.453   5.866  18.923  0.00  0.00    +0.000 N 
ATOM     21  C   UNL     1       4.523   5.101  19.586  0.00  0.00    +0.000 C 
ATOM     22  C   UNL     1       5.790   5.076  18.684  0.00  0.00    +0.000 C 
ATOM     23  N   UNL     1       5.548   4.613  17.297  0.00  0.00    +0.000 NA
ATOM     24  C   UNL     1       6.760   4.756  16.489  0.00  0.00    +0.000 C 
ATOM     25  C   UNL     1       4.440   5.394  16.705  0.00  0.00    +0.000 C 
ATOM     26  C   UNL     1       3.155   5.352  17.569  0.00  0.00    +0.000 C 
ENDBRANCH  18  20
BRANCH  15  27
ATOM     27  C   UNL     1       1.701  10.633  18.100  0.00  0.00    +0.000 C 
ATOM     28  C   UNL     1       2.457  11.958  18.221  0.00  0.00    +0.000 C 
ATOM     29  C   UNL     1       2.563   9.596  17.376  0.00  0.00    +0.000 C 
ENDBRANCH  15  27
BRANCH  10  30
ATOM     30  C   UNL     1      -3.199  15.203  22.586  0.00  0.00    +0.000 C 
ATOM     31  N   UNL     1      -3.731  16.208  22.803  0.00  0.00    +0.000 NA
ENDBRANCH  10  30
BRANCH   1  32
ATOM     32  O   UNL     1       1.940   4.852  21.234  0.00  0.00    +0.000 OA
BRANCH  32  33
ATOM     33  C   UNL     1       1.093   3.902  20.569  0.00  0.00    +0.000 C 
BRANCH  33  34
ATOM     34  C   UNL     1       1.731   2.531  20.410  0.00  0.00    +0.000 C 
BRANCH  34  36
ATOM     35  C   UNL     1       3.078   1.815  18.390  0.00  0.00    +0.000 C 
ATOM     36  C   UNL     1       1.699   2.144  18.926  0.00  0.00    +0.000 C 
ENDBRANCH  34  36
ENDBRANCH  33  34
ENDBRANCH  32  33
ENDBRANCH   1  32
TORSDOF 7
ENDMDL
MODEL 5
REMARK VINA RESULT:      -6.1      3.248     10.536
REMARK  Name = 
REMARK  11 active torsions:
REMARK  status: ('A' for Active; 'I' for Inactive)
REMARK    1  A    between atoms: C_1  and  C_2
REMARK    2  A    between atoms: C_2  and  C_3
REMARK    3  A    between atoms: C_3  and  C_4
REMARK    4  A    between atoms: C_4  and  O_5
REMARK    5  A    between atoms: O_5  and  C_6
REMARK    6  A    between atoms: C_15  and  C_16
REMARK    7  A    between atoms: N_22  and  C_23
REMARK    8  A    between atoms: C_23  and  C_24
REMARK    9  A    between atoms: C_23  and  C_25
REMARK   10  A    between atoms: C_28  and  N_29
REMARK   11  A    between atoms: N_32  and  C_33
REMARK                            x       y       z     vdW  Elec       q    Type
REMARK                         _______ _______ _______ _____ _____    ______ ____
ROOT
ATOM      1  C   UNL     1      -2.065  12.739  23.079  0.00  0.00    +0.000 A 
ATOM      2  C   UNL     1      -1.511  11.465  22.906  0.00  0.00    +0.000 A 
ATOM      3  C   UNL     1      -0.733  11.131  21.799  0.00  0.00    +0.000 A 
ATOM      4  C   UNL     1      -0.224   9.740  21.758  0.00  0.00    +0.000 A 
ATOM      5  O   UNL     1      -0.495   8.923  22.632  0.00  0.00    +0.000 OA
ATOM      6  C   UNL     1       0.605   9.436  20.631  0.00  0.00    +0.000 A 
ATOM      7  C   UNL     1       1.240   8.218  20.284  0.00  0.00    +0.000 A 
ATOM      8  C   UNL     1       1.294   6.931  20.858  0.00  0.00    +0.000 A 
ATOM      9  C   UNL     1       2.025   5.926  20.218  0.00  0.00    +0.000 A 
ATOM     10  C   UNL     1       2.702   6.191  19.024  0.00  0.00    +0.000 A 
ATOM     11  C   UNL     1       2.662   7.470  18.443  0.00  0.00    +0.000 A 
ATOM     12  C   UNL     1       1.923   8.462  19.099  0.00  0.00    +0.000 A 
ATOM     13  N   UNL     1       1.709   9.789  18.769  0.00  0.00    +0.000 N 
ATOM     14  C   UNL     1       0.873  10.393  19.670  0.00  0.00    +0.000 A 
ATOM     15  N   UNL     1       0.367  11.676  19.655  0.00  0.00    +0.000 N 
ATOM     16  C   UNL     1      -0.452  12.057  20.779  0.00  0.00    +0.000 A 
ATOM     17  C   UNL     1      -1.050  13.326  20.956  0.00  0.00    +0.000 A 
ATOM     18  C   UNL     1      -1.852  13.717  22.079  0.00  0.00    +0.000 A 
ATOM     19  H   UNL     1       2.113  10.205  17.952  0.00  0.00    +0.000 HD
ENDROOT
BRANCH  18  20
ATOM     20  N   UNL     1      -2.418  14.993  22.054  0.00  0.00    +0.000 N 
ATOM     21  C   UNL     1      -1.886  16.116  22.847  0.00  0.00    +0.000 C 
ATOM     22  C   UNL     1      -3.045  17.071  23.252  0.00  0.00    +0.000 C 
ATOM     23  N   UNL     1      -3.884  17.533  22.121  0.00  0.00    +0.000 NA
ATOM     24  C   UNL     1      -5.025  18.308  22.611  0.00  0.00    +0.000 C 
ATOM     25  C   UNL     1      -4.352  16.362  21.347  0.00  0.00    +0.000 C 
ATOM     26  C   UNL     1      -3.188  15.454  20.879  0.00  0.00    +0.000 C 
ENDBRANCH  18  20
BRANCH  15  27
ATOM     27  C   UNL     1       0.766  12.746  18.697  0.00  0.00    +0.000 C 
ATOM     28  C   UNL     1      -0.455  13.512  18.184  0.00  0.00    +0.000 C 
ATOM     29  C   UNL     1       1.838  13.723  19.185  0.00  0.00    +0.000 C 
ENDBRANCH  15  27
BRANCH  10  30
ATOM     30  C   UNL     1       3.440   5.145  18.374  0.00  0.00    +0.000 C 
ATOM     31  N   UNL     1       4.044   4.310  17.847  0.00  0.00    +0.000 NA
ENDBRANCH  10  30
BRANCH   1  32
ATOM     32  O   UNL     1      -2.794  13.040  24.222  0.00  0.00    +0.000 OA
BRANCH  32  33
ATOM     33  C   UNL     1      -4.164  12.611  24.182  0.00  0.00    +0.000 C 
BRANCH  33  34
ATOM     34  C   UNL     1      -5.146  13.747  23.945  0.00  0.00    +0.000 C 
BRANCH  34  36
ATOM     35  C   UNL     1      -5.376  12.582  21.708  0.00  0.00    +0.000 C 
ATOM     36  C   UNL     1      -6.091  13.347  22.804  0.00  0.00    +0.000 C 
ENDBRANCH  34  36
ENDBRANCH  33  34
ENDBRANCH  32  33
ENDBRANCH   1  32
TORSDOF 7
ENDMDL
MODEL 6
REMARK VINA RESULT:      -6.1      2.479      4.343
REMARK  Name = 
REMARK  11 active torsions:
REMARK  status: ('A' for Active; 'I' for Inactive)
REMARK    1  A    between atoms: C_1  and  C_2
REMARK    2  A    between atoms: C_2  and  C_3
REMARK    3  A    between atoms: C_3  and  C_4
REMARK    4  A    between atoms: C_4  and  O_5
REMARK    5  A    between atoms: O_5  and  C_6
REMARK    6  A    between atoms: C_15  and  C_16
REMARK    7  A    between atoms: N_22  and  C_23
REMARK    8  A    between atoms: C_23  and  C_24
REMARK    9  A    between atoms: C_23  and  C_25
REMARK   10  A    between atoms: C_28  and  N_29
REMARK   11  A    between atoms: N_32  and  C_33
REMARK                            x       y       z     vdW  Elec       q    Type
REMARK                         _______ _______ _______ _____ _____    ______ ____
ROOT
ATOM      1  C   UNL     1       1.772   6.510  20.669  0.00  0.00    +0.000 A 
ATOM      2  C   UNL     1       0.886   7.314  21.396  0.00  0.00    +0.000 A 
ATOM      3  C   UNL     1       0.632   8.643  21.059  0.00  0.00    +0.000 A 
ATOM      4  C   UNL     1      -0.325   9.362  21.931  0.00  0.00    +0.000 A 
ATOM      5  O   UNL     1      -0.842   8.830  22.908  0.00  0.00    +0.000 OA
ATOM      6  C   UNL     1      -0.598  10.713  21.538  0.00  0.00    +0.000 A 
ATOM      7  C   UNL     1      -1.446  11.672  22.145  0.00  0.00    +0.000 A 
ATOM      8  C   UNL     1      -2.278  11.678  23.283  0.00  0.00    +0.000 A 
ATOM      9  C   UNL     1      -2.982  12.841  23.609  0.00  0.00    +0.000 A 
ATOM     10  C   UNL     1      -2.870  13.986  22.815  0.00  0.00    +0.000 A 
ATOM     11  C   UNL     1      -2.049  13.993  21.675  0.00  0.00    +0.000 A 
ATOM     12  C   UNL     1      -1.351  12.819  21.366  0.00  0.00    +0.000 A 
ATOM     13  N   UNL     1      -0.486  12.535  20.324  0.00  0.00    +0.000 N 
ATOM     14  C   UNL     1       0.018  11.266  20.432  0.00  0.00    +0.000 A 
ATOM     15  N   UNL     1       0.954  10.637  19.638  0.00  0.00    +0.000 N 
ATOM     16  C   UNL     1       1.252   9.264  19.961  0.00  0.00    +0.000 A 
ATOM     17  C   UNL     1       2.169   8.445  19.262  0.00  0.00    +0.000 A 
ATOM     18  C   UNL     1       2.457   7.073  19.567  0.00  0.00    +0.000 A 
ATOM     19  H   UNL     1      -0.265  13.211  19.617  0.00  0.00    +0.000 HD
ENDROOT
BRANCH  18  20
ATOM     20  N   UNL     1       3.442   6.438  18.809  0.00  0.00    +0.000 N 
ATOM     21  C   UNL     1       3.986   7.013  17.566  0.00  0.00    +0.000 C 
ATOM     22  C   UNL     1       4.391   5.872  16.590  0.00  0.00    +0.000 C 
ATOM     23  N   UNL     1       5.294   4.853  17.176  0.00  0.00    +0.000 NA
ATOM     24  C   UNL     1       5.506   3.753  16.234  0.00  0.00    +0.000 C 
ATOM     25  C   UNL     1       4.709   4.346  18.436  0.00  0.00    +0.000 C 
ATOM     26  C   UNL     1       4.378   5.481  19.437  0.00  0.00    +0.000 C 
ENDBRANCH  18  20
BRANCH  15  27
ATOM     27  C   UNL     1       1.511  11.185  18.368  0.00  0.00    +0.000 C 
ATOM     28  C   UNL     1       2.310  12.466  18.623  0.00  0.00    +0.000 C 
ATOM     29  C   UNL     1       2.328  10.213  17.515  0.00  0.00    +0.000 C 
ENDBRANCH  15  27
BRANCH  10  30
ATOM     30  C   UNL     1      -3.591  15.175  23.171  0.00  0.00    +0.000 C 
ATOM     31  N   UNL     1      -4.168  16.140  23.446  0.00  0.00    +0.000 NA
ENDBRANCH  10  30
BRANCH   1  32
ATOM     32  O   UNL     1       1.956   5.178  21.014  0.00  0.00    +0.000 OA
BRANCH  32  33
ATOM     33  C   UNL     1       0.959   4.286  20.491  0.00  0.00    +0.000 C 
BRANCH  33  34
ATOM     34  C   UNL     1       1.459   2.863  20.301  0.00  0.00    +0.000 C 
BRANCH  34  36
ATOM     35  C   UNL     1       1.324   3.657  17.900  0.00  0.00    +0.000 C 
ATOM     36  C   UNL     1       1.257   2.464  18.833  0.00  0.00    +0.000 C 
ENDBRANCH  34  36
ENDBRANCH  33  34
ENDBRANCH  32  33
ENDBRANCH   1  32
TORSDOF 7
ENDMDL
MODEL 7
REMARK VINA RESULT:      -6.1      1.981      9.483
REMARK  Name = 
REMARK  11 active torsions:
REMARK  status: ('A' for Active; 'I' for Inactive)
REMARK    1  A    between atoms: C_1  and  C_2
REMARK    2  A    between atoms: C_2  and  C_3
REMARK    3  A    between atoms: C_3  and  C_4
REMARK    4  A    between atoms: C_4  and  O_5
REMARK    5  A    between atoms: O_5  and  C_6
REMARK    6  A    between atoms: C_15  and  C_16
REMARK    7  A    between atoms: N_22  and  C_23
REMARK    8  A    between atoms: C_23  and  C_24
REMARK    9  A    between atoms: C_23  and  C_25
REMARK   10  A    between atoms: C_28  and  N_29
REMARK   11  A    between atoms: N_32  and  C_33
REMARK                            x       y       z     vdW  Elec       q    Type
REMARK                         _______ _______ _______ _____ _____    ______ ____
ROOT
ATOM      1  C   UNL     1       0.095  13.699  19.289  0.00  0.00    +0.000 A 
ATOM      2  C   UNL     1       0.753  12.589  18.744  0.00  0.00    +0.000 A 
ATOM      3  C   UNL     1       0.844  11.369  19.413  0.00  0.00    +0.000 A 
ATOM      4  C   UNL     1       1.578  10.294  18.707  0.00  0.00    +0.000 A 
ATOM      5  O   UNL     1       2.099  10.474  17.611  0.00  0.00    +0.000 OA
ATOM      6  C   UNL     1       1.621   9.041  19.399  0.00  0.00    +0.000 A 
ATOM      7  C   UNL     1       2.237   7.824  19.017  0.00  0.00    +0.000 A 
ATOM      8  C   UNL     1       2.995   7.403  17.905  0.00  0.00    +0.000 A 
ATOM      9  C   UNL     1       3.478   6.092  17.862  0.00  0.00    +0.000 A 
ATOM     10  C   UNL     1       3.211   5.202  18.906  0.00  0.00    +0.000 A 
ATOM     11  C   UNL     1       2.452   5.604  20.018  0.00  0.00    +0.000 A 
ATOM     12  C   UNL     1       1.978   6.922  20.043  0.00  0.00    +0.000 A 
ATOM     13  N   UNL     1       1.219   7.586  20.990  0.00  0.00    +0.000 N 
ATOM     14  C   UNL     1       1.022   8.894  20.636  0.00  0.00    +0.000 A 
ATOM     15  N   UNL     1       0.382   9.893  21.340  0.00  0.00    +0.000 N 
ATOM     16  C   UNL     1       0.277  11.174  20.685  0.00  0.00    +0.000 A 
ATOM     17  C   UNL     1      -0.351  12.316  21.231  0.00  0.00    +0.000 A 
ATOM     18  C   UNL     1      -0.474  13.588  20.579  0.00  0.00    +0.000 A 
ATOM     19  H   UNL     1       0.898   7.134  21.825  0.00  0.00    +0.000 HD
ENDROOT
BRANCH  18  20
ATOM     20  N   UNL     1      -1.070  14.626  21.298  0.00  0.00    +0.000 N 
ATOM     21  C   UNL     1      -0.288  15.653  22.009  0.00  0.00    +0.000 C 
ATOM     22  C   UNL     1      -1.067  16.131  23.268  0.00  0.00    +0.000 C 
ATOM     23  N   UNL     1      -2.457  16.571  23.000  0.00  0.00    +0.000 NA
ATOM     24  C   UNL     1      -3.152  16.867  24.254  0.00  0.00    +0.000 C 
ATOM     25  C   UNL     1      -3.172  15.514  22.253  0.00  0.00    +0.000 C 
ATOM     26  C   UNL     1      -2.431  15.095  20.959  0.00  0.00    +0.000 C 
ENDBRANCH  18  20
BRANCH  15  27
ATOM     27  C   UNL     1      -0.381   9.699  22.606  0.00  0.00    +0.000 C 
ATOM     28  C   UNL     1       0.552   9.325  23.760  0.00  0.00    +0.000 C 
ATOM     29  C   UNL     1      -1.302  10.848  23.020  0.00  0.00    +0.000 C 
ENDBRANCH  15  27
BRANCH  10  30
ATOM     30  C   UNL     1       3.724   3.862  18.850  0.00  0.00    +0.000 C 
ATOM     31  N   UNL     1       4.136   2.781  18.819  0.00  0.00    +0.000 NA
ENDBRANCH  10  30
BRANCH   1  32
ATOM     32  O   UNL     1      -0.011  14.878  18.564  0.00  0.00    +0.000 OA
BRANCH  32  33
ATOM     33  C   UNL     1       1.133  15.741  18.665  0.00  0.00    +0.000 C 
BRANCH  33  34
ATOM     34  C   UNL     1       0.774  17.217  18.717  0.00  0.00    +0.000 C 
BRANCH  34  36
ATOM     35  C   UNL     1      -0.115  18.373  16.648  0.00  0.00    +0.000 C 
ATOM     36  C   UNL     1      -0.441  17.459  17.812  0.00  0.00    +0.000 C 
ENDBRANCH  34  36
ENDBRANCH  33  34
ENDBRANCH  32  33
ENDBRANCH   1  32
TORSDOF 7
ENDMDL
MODEL 8
REMARK VINA RESULT:      -6.1      3.673     10.819
REMARK  Name = 
REMARK  11 active torsions:
REMARK  status: ('A' for Active; 'I' for Inactive)
REMARK    1  A    between atoms: C_1  and  C_2
REMARK    2  A    between atoms: C_2  and  C_3
REMARK    3  A    between atoms: C_3  and  C_4
REMARK    4  A    between atoms: C_4  and  O_5
REMARK    5  A    between atoms: O_5  and  C_6
REMARK    6  A    between atoms: C_15  and  C_16
REMARK    7  A    between atoms: N_22  and  C_23
REMARK    8  A    between atoms: C_23  and  C_24
REMARK    9  A    between atoms: C_23  and  C_25
REMARK   10  A    between atoms: C_28  and  N_29
REMARK   11  A    between atoms: N_32  and  C_33
REMARK                            x       y       z     vdW  Elec       q    Type
REMARK                         _______ _______ _______ _____ _____    ______ ____
ROOT
ATOM      1  C   UNL     1      -2.472  12.956  23.381  0.00  0.00    +0.000 A 
ATOM      2  C   UNL     1      -1.848  11.716  23.199  0.00  0.00    +0.000 A 
ATOM      3  C   UNL     1      -1.093  11.416  22.066  0.00  0.00    +0.000 A 
ATOM      4  C   UNL     1      -0.503  10.059  22.019  0.00  0.00    +0.000 A 
ATOM      5  O   UNL     1      -0.691   9.237  22.910  0.00  0.00    +0.000 OA
ATOM      6  C   UNL     1       0.301   9.792  20.864  0.00  0.00    +0.000 A 
ATOM      7  C   UNL     1       0.996   8.611  20.505  0.00  0.00    +0.000 A 
ATOM      8  C   UNL     1       1.149   7.336  21.088  0.00  0.00    +0.000 A 
ATOM      9  C   UNL     1       1.915   6.370  20.429  0.00  0.00    +0.000 A 
ATOM     10  C   UNL     1       2.531   6.662  19.209  0.00  0.00    +0.000 A 
ATOM     11  C   UNL     1       2.392   7.929  18.619  0.00  0.00    +0.000 A 
ATOM     12  C   UNL     1       1.619   8.883  19.293  0.00  0.00    +0.000 A 
ATOM     13  N   UNL     1       1.313  10.190  18.959  0.00  0.00    +0.000 N 
ATOM     14  C   UNL     1       0.476  10.753  19.886  0.00  0.00    +0.000 A 
ATOM     15  N   UNL     1      -0.107  12.003  19.878  0.00  0.00    +0.000 N 
ATOM     16  C   UNL     1      -0.906  12.346  21.029  0.00  0.00    +0.000 A 
ATOM     17  C   UNL     1      -1.572  13.579  21.216  0.00  0.00    +0.000 A 
ATOM     18  C   UNL     1      -2.354  13.934  22.365  0.00  0.00    +0.000 A 
ATOM     19  H   UNL     1       1.661  10.621  18.124  0.00  0.00    +0.000 HD
ENDROOT
BRANCH  18  20
ATOM     20  N   UNL     1      -2.997  15.173  22.350  0.00  0.00    +0.000 N 
ATOM     21  C   UNL     1      -2.581  16.296  23.209  0.00  0.00    +0.000 C 
ATOM     22  C   UNL     1      -3.819  17.164  23.578  0.00  0.00    +0.000 C 
ATOM     23  N   UNL     1      -4.621  17.615  22.416  0.00  0.00    +0.000 NA
ATOM     24  C   UNL     1      -5.833  18.301  22.865  0.00  0.00    +0.000 C 
ATOM     25  C   UNL     1      -4.971  16.448  21.577  0.00  0.00    +0.000 C 
ATOM     26  C   UNL     1      -3.728  15.630  21.148  0.00  0.00    +0.000 C 
ENDBRANCH  18  20
BRANCH  15  27
ATOM     27  C   UNL     1       0.192  13.084  18.896  0.00  0.00    +0.000 C 
ATOM     28  C   UNL     1       1.680  13.109  18.538  0.00  0.00    +0.000 C 
ATOM     29  C   UNL     1      -0.659  13.093  17.624  0.00  0.00    +0.000 C 
ENDBRANCH  15  27
BRANCH  10  30
ATOM     30  C   UNL     1       3.305   5.654  18.541  0.00  0.00    +0.000 C 
ATOM     31  N   UNL     1       3.920   4.833  18.004  0.00  0.00    +0.000 NA
ENDBRANCH  10  30
BRANCH   1  32
ATOM     32  O   UNL     1      -3.174  13.225  24.547  0.00  0.00    +0.000 OA
BRANCH  32  33
ATOM     33  C   UNL     1      -4.423  12.525  24.663  0.00  0.00    +0.000 C 
BRANCH  33  34
ATOM     34  C   UNL     1      -5.394  12.830  23.534  0.00  0.00    +0.000 C 
BRANCH  34  36
ATOM     35  C   UNL     1      -7.347  14.366  24.020  0.00  0.00    +0.000 C 
ATOM     36  C   UNL     1      -6.806  12.954  24.121  0.00  0.00    +0.000 C 
ENDBRANCH  34  36
ENDBRANCH  33  34
ENDBRANCH  32  33
ENDBRANCH   1  32
TORSDOF 7
ENDMDL
MODEL 9
REMARK VINA RESULT:      -6.0      2.834      4.783
REMARK  Name = 
REMARK  11 active torsions:
REMARK  status: ('A' for Active; 'I' for Inactive)
REMARK    1  A    between atoms: C_1  and  C_2
REMARK    2  A    between atoms: C_2  and  C_3
REMARK    3  A    between atoms: C_3  and  C_4
REMARK    4  A    between atoms: C_4  and  O_5
REMARK    5  A    between atoms: O_5  and  C_6
REMARK    6  A    between atoms: C_15  and  C_16
REMARK    7  A    between atoms: N_22  and  C_23
REMARK    8  A    between atoms: C_23  and  C_24
REMARK    9  A    between atoms: C_23  and  C_25
REMARK   10  A    between atoms: C_28  and  N_29
REMARK   11  A    between atoms: N_32  and  C_33
REMARK                            x       y       z     vdW  Elec       q    Type
REMARK                         _______ _______ _______ _____ _____    ______ ____
ROOT
ATOM      1  C   UNL     1       1.699   7.361  20.760  0.00  0.00    +0.000 A 
ATOM      2  C   UNL     1       0.925   8.139  21.629  0.00  0.00    +0.000 A 
ATOM      3  C   UNL     1       0.248   9.283  21.209  0.00  0.00    +0.000 A 
ATOM      4  C   UNL     1      -0.523  10.002  22.249  0.00  0.00    +0.000 A 
ATOM      5  O   UNL     1      -0.542   9.629  23.418  0.00  0.00    +0.000 OA
ATOM      6  C   UNL     1      -1.241  11.149  21.781  0.00  0.00    +0.000 A 
ATOM      7  C   UNL     1      -2.059  12.054  22.502  0.00  0.00    +0.000 A 
ATOM      8  C   UNL     1      -2.449  12.177  23.851  0.00  0.00    +0.000 A 
ATOM      9  C   UNL     1      -3.278  13.236  24.230  0.00  0.00    +0.000 A 
ATOM     10  C   UNL     1      -3.724  14.163  23.283  0.00  0.00    +0.000 A 
ATOM     11  C   UNL     1      -3.349  14.050  21.934  0.00  0.00    +0.000 A 
ATOM     12  C   UNL     1      -2.516  12.983  21.575  0.00  0.00    +0.000 A 
ATOM     13  N   UNL     1      -1.995  12.624  20.344  0.00  0.00    +0.000 N 
ATOM     14  C   UNL     1      -1.180  11.529  20.454  0.00  0.00    +0.000 A 
ATOM     15  N   UNL     1      -0.426  10.912  19.477  0.00  0.00    +0.000 N 
ATOM     16  C   UNL     1       0.298   9.730  19.877  0.00  0.00    +0.000 A 
ATOM     17  C   UNL     1       1.113   8.950  19.024  0.00  0.00    +0.000 A 
ATOM     18  C   UNL     1       1.823   7.765  19.410  0.00  0.00    +0.000 A 
ATOM     19  H   UNL     1      -2.195  13.144  19.511  0.00  0.00    +0.000 HD
ENDROOT
BRANCH  18  20
ATOM     20  N   UNL     1       2.634   7.158  18.450  0.00  0.00    +0.000 N 
ATOM     21  C   UNL     1       2.327   5.842  17.863  0.00  0.00    +0.000 C 
ATOM     22  C   UNL     1       3.647   5.102  17.506  0.00  0.00    +0.000 C 
ATOM     23  N   UNL     1       4.581   5.885  16.662  0.00  0.00    +0.000 NA
ATOM     24  C   UNL     1       5.847   5.169  16.495  0.00  0.00    +0.000 C 
ATOM     25  C   UNL     1       4.817   7.206  17.287  0.00  0.00    +0.000 C 
ATOM     26  C   UNL     1       3.501   7.972  17.571  0.00  0.00    +0.000 C 
ENDBRANCH  18  20
BRANCH  15  27
ATOM     27  C   UNL     1      -0.470  11.238  18.023  0.00  0.00    +0.000 C 
ATOM     28  C   UNL     1      -1.650  10.545  17.338  0.00  0.00    +0.000 C 
ATOM     29  C   UNL     1      -0.448  12.725  17.665  0.00  0.00    +0.000 C 
ENDBRANCH  15  27
BRANCH  10  30
ATOM     30  C   UNL     1      -4.566  15.251  23.691  0.00  0.00    +0.000 C 
ATOM     31  N   UNL     1      -5.257  16.122  24.016  0.00  0.00    +0.000 NA
ENDBRANCH  10  30
BRANCH   1  32
ATOM     32  O   UNL     1       2.316   6.203  21.214  0.00  0.00    +0.000 OA
BRANCH  32  33
ATOM     33  C   UNL     1       1.533   5.011  21.052  0.00  0.00    +0.000 C 
BRANCH  33  34
ATOM     34  C   UNL     1       2.371   3.748  20.932  0.00  0.00    +0.000 C 
BRANCH  34  36
ATOM     35  C   UNL     1       1.380   2.318  19.093  0.00  0.00    +0.000 C 
ATOM     36  C   UNL     1       1.445   2.575  20.585  0.00  0.00    +0.000 C 
ENDBRANCH  34  36
ENDBRANCH  33  34
ENDBRANCH  32  33
ENDBRANCH   1  32
TORSDOF 7
ENDMDL
