MODEL 1
REMARK VINA RESULT:      -7.7      0.000      0.000
REMARK  Name = 
REMARK  6 active torsions:
REMARK  status: ('A' for Active; 'I' for Inactive)
REMARK    1  A    between atoms: C_1  and  C_2
REMARK    2  A    between atoms: N_7  and  C_8
REMARK    3  A    between atoms: C_8  and  C_9
REMARK    4  A    between atoms: C_9  and  O_10
REMARK    5  A    between atoms: O_10  and  C_11
REMARK    6  A    between atoms: C_22  and  C_23
REMARK                            x       y       z     vdW  Elec       q    Type
REMARK                         _______ _______ _______ _____ _____    ______ ____
ROOT
ATOM      1  C   UNL     1       2.959   3.000  20.865  0.00  0.00    +0.000 C 
ENDROOT
BRANCH   1   8
ATOM      2  C   UNL     1       6.913   4.873  15.646  0.00  0.00    +0.000 C 
ATOM      3  C   UNL     1       5.996   4.406  16.746  0.00  0.00    +0.000 A 
ATOM      4  C   UNL     1       4.867   3.637  16.405  0.00  0.00    +0.000 A 
ATOM      5  C   UNL     1       3.983   3.216  17.409  0.00  0.00    +0.000 A 
ATOM      6  N   UNL     1       2.836   2.471  17.297  0.00  0.00    +0.000 NA
ATOM      7  C   UNL     1       2.377   2.364  18.521  0.00  0.00    +0.000 A 
ATOM      8  N   UNL     1       3.179   3.010  19.426  0.00  0.00    +0.000 N 
ATOM      9  C   UNL     1       4.236   3.556  18.736  0.00  0.00    +0.000 A 
ATOM     10  C   UNL     1       5.367   4.289  19.116  0.00  0.00    +0.000 A 
ATOM     11  C   UNL     1       6.244   4.726  18.099  0.00  0.00    +0.000 A 
ATOM     12  C   UNL     1       7.453   5.541  18.486  0.00  0.00    +0.000 C 
ENDBRANCH   1   8
BRANCH   1  13
ATOM     13  C   UNL     1       2.404   4.346  21.305  0.00  0.00    +0.000 C 
BRANCH  13  14
ATOM     14  O   UNL     1       1.437   4.902  20.386  0.00  0.00    +0.000 OA
BRANCH  14  15
ATOM     15  C   UNL     1       1.822   6.187  20.038  0.00  0.00    +0.000 A 
ATOM     16  C   UNL     1       2.465   6.446  18.811  0.00  0.00    +0.000 A 
ATOM     17  C   UNL     1       2.410   7.716  18.247  0.00  0.00    +0.000 A 
ATOM     18  C   UNL     1       1.780   8.697  18.980  0.00  0.00    +0.000 A 
ATOM     19  C   UNL     1       1.409   8.500  20.319  0.00  0.00    +0.000 A 
ATOM     20  C   UNL     1       1.403   7.230  20.872  0.00  0.00    +0.000 A 
ATOM     21  C   UNL     1       0.836   9.772  20.859  0.00  0.00    +0.000 C 
ATOM     22  C   UNL     1       0.161  10.252  19.571  0.00  0.00    +0.000 C 
ATOM     23  C   UNL     1       1.207   9.987  18.470  0.00  0.00    +0.000 C 
ENDBRANCH  14  15
ENDBRANCH  13  14
ENDBRANCH   1  13
TORSDOF 4
ENDMDL
MODEL 2
REMARK VINA RESULT:      -7.7      0.965      1.205
REMARK  Name = 
REMARK  6 active torsions:
REMARK  status: ('A' for Active; 'I' for Inactive)
REMARK    1  A    between atoms: C_1  and  C_2
REMARK    2  A    between atoms: N_7  and  C_8
REMARK    3  A    between atoms: C_8  and  C_9
REMARK    4  A    between atoms: C_9  and  O_10
REMARK    5  A    between atoms: O_10  and  C_11
REMARK    6  A    between atoms: C_22  and  C_23
REMARK                            x       y       z     vdW  Elec       q    Type
REMARK                         _______ _______ _______ _____ _____    ______ ____
ROOT
ATOM      1  C   UNL     1       1.977   4.100  20.462  0.00  0.00    +0.000 C 
ENDROOT
BRANCH   1   8
ATOM      2  C   UNL     1       7.061   4.719  15.973  0.00  0.00    +0.000 C 
ATOM      3  C   UNL     1       5.896   4.530  16.910  0.00  0.00    +0.000 A 
ATOM      4  C   UNL     1       4.736   3.897  16.427  0.00  0.00    +0.000 A 
ATOM      5  C   UNL     1       3.628   3.736  17.272  0.00  0.00    +0.000 A 
ATOM      6  N   UNL     1       2.412   3.157  17.007  0.00  0.00    +0.000 NA
ATOM      7  C   UNL     1       1.728   3.270  18.121  0.00  0.00    +0.000 A 
ATOM      8  N   UNL     1       2.451   3.900  19.101  0.00  0.00    +0.000 N 
ATOM      9  C   UNL     1       3.691   4.197  18.585  0.00  0.00    +0.000 A 
ATOM     10  C   UNL     1       4.841   4.800  19.110  0.00  0.00    +0.000 A 
ATOM     11  C   UNL     1       5.946   4.976  18.249  0.00  0.00    +0.000 A 
ATOM     12  C   UNL     1       7.184   5.648  18.789  0.00  0.00    +0.000 C 
ENDBRANCH   1   8
BRANCH   1  13
ATOM     13  C   UNL     1       1.292   5.455  20.570  0.00  0.00    +0.000 C 
BRANCH  13  14
ATOM     14  O   UNL     1       2.170   6.515  21.008  0.00  0.00    +0.000 OA
BRANCH  14  15
ATOM     15  C   UNL     1       1.958   7.638  20.223  0.00  0.00    +0.000 A 
ATOM     16  C   UNL     1       2.347   7.663  18.869  0.00  0.00    +0.000 A 
ATOM     17  C   UNL     1       1.727   8.534  17.980  0.00  0.00    +0.000 A 
ATOM     18  C   UNL     1       0.797   9.404  18.504  0.00  0.00    +0.000 A 
ATOM     19  C   UNL     1       0.636   9.572  19.888  0.00  0.00    +0.000 A 
ATOM     20  C   UNL     1       1.200   8.674  20.780  0.00  0.00    +0.000 A 
ATOM     21  C   UNL     1      -0.378  10.644  20.136  0.00  0.00    +0.000 C 
ATOM     22  C   UNL     1      -1.279  10.351  18.932  0.00  0.00    +0.000 C 
ATOM     23  C   UNL     1      -0.296  10.120  17.767  0.00  0.00    +0.000 C 
ENDBRANCH  14  15
ENDBRANCH  13  14
ENDBRANCH   1  13
TORSDOF 4
ENDMDL
MODEL 3
REMARK VINA RESULT:      -7.5      1.750      2.960
REMARK  Name = 
REMARK  6 active torsions:
REMARK  status: ('A' for Active; 'I' for Inactive)
REMARK    1  A    between atoms: C_1  and  C_2
REMARK    2  A    between atoms: N_7  and  C_8
REMARK    3  A    between atoms: C_8  and  C_9
REMARK    4  A    between atoms: C_9  and  O_10
REMARK    5  A    between atoms: O_10  and  C_11
REMARK    6  A    between atoms: C_22  and  C_23
REMARK                            x       y       z     vdW  Elec       q    Type
REMARK                         _______ _______ _______ _____ _____    ______ ____
ROOT
ATOM      1  C   UNL     1       3.904   3.179  17.927  0.00  0.00    +0.000 C 
ENDROOT
BRANCH   1   8
ATOM      2  C   UNL     1       8.001   5.292  12.914  0.00  0.00    +0.000 C 
ATOM      3  C   UNL     1       7.131   4.884  14.074  0.00  0.00    +0.000 A 
ATOM      4  C   UNL     1       7.430   5.389  15.353  0.00  0.00    +0.000 A 
ATOM      5  C   UNL     1       6.651   5.000  16.454  0.00  0.00    +0.000 A 
ATOM      6  N   UNL     1       6.769   5.367  17.771  0.00  0.00    +0.000 NA
ATOM      7  C   UNL     1       5.811   4.721  18.393  0.00  0.00    +0.000 A 
ATOM      8  N   UNL     1       5.075   3.949  17.533  0.00  0.00    +0.000 N 
ATOM      9  C   UNL     1       5.585   4.123  16.268  0.00  0.00    +0.000 A 
ATOM     10  C   UNL     1       5.238   3.628  15.005  0.00  0.00    +0.000 A 
ATOM     11  C   UNL     1       6.036   4.009  13.903  0.00  0.00    +0.000 A 
ATOM     12  C   UNL     1       5.694   3.463  12.539  0.00  0.00    +0.000 C 
ENDBRANCH   1   8
BRANCH   1  13
ATOM     13  C   UNL     1       3.355   3.721  19.238  0.00  0.00    +0.000 C 
BRANCH  13  14
ATOM     14  O   UNL     1       2.079   4.384  19.101  0.00  0.00    +0.000 OA
BRANCH  14  15
ATOM     15  C   UNL     1       2.263   5.755  19.201  0.00  0.00    +0.000 A 
ATOM     16  C   UNL     1       2.570   6.532  18.067  0.00  0.00    +0.000 A 
ATOM     17  C   UNL     1       2.278   7.891  18.050  0.00  0.00    +0.000 A 
ATOM     18  C   UNL     1       1.763   8.433  19.207  0.00  0.00    +0.000 A 
ATOM     19  C   UNL     1       1.741   7.718  20.415  0.00  0.00    +0.000 A 
ATOM     20  C   UNL     1       1.971   6.352  20.433  0.00  0.00    +0.000 A 
ATOM     21  C   UNL     1       1.211   8.605  21.498  0.00  0.00    +0.000 C 
ATOM     22  C   UNL     1       0.210   9.389  20.643  0.00  0.00    +0.000 C 
ATOM     23  C   UNL     1       0.981   9.706  19.346  0.00  0.00    +0.000 C 
ENDBRANCH  14  15
ENDBRANCH  13  14
ENDBRANCH   1  13
TORSDOF 4
ENDMDL
MODEL 4
REMARK VINA RESULT:      -7.4      1.706      5.553
REMARK  Name = 
REMARK  6 active torsions:
REMARK  status: ('A' for Active; 'I' for Inactive)
REMARK    1  A    between atoms: C_1  and  C_2
REMARK    2  A    between atoms: N_7  and  C_8
REMARK    3  A    between atoms: C_8  and  C_9
REMARK    4  A    between atoms: C_9  and  O_10
REMARK    5  A    between atoms: O_10  and  C_11
REMARK    6  A    between atoms: C_22  and  C_23
REMARK                            x       y       z     vdW  Elec       q    Type
REMARK                         _______ _______ _______ _____ _____    ______ ____
ROOT
ATOM      1  C   UNL     1       2.494   2.325  17.936  0.00  0.00    +0.000 C 
ENDROOT
BRANCH   1   8
ATOM      2  C   UNL     1       1.652   8.485  20.714  0.00  0.00    +0.000 C 
ATOM      3  C   UNL     1       1.793   7.090  20.166  0.00  0.00    +0.000 A 
ATOM      4  C   UNL     1       1.414   6.003  20.976  0.00  0.00    +0.000 A 
ATOM      5  C   UNL     1       1.564   4.693  20.498  0.00  0.00    +0.000 A 
ATOM      6  N   UNL     1       1.263   3.505  21.116  0.00  0.00    +0.000 NA
ATOM      7  C   UNL     1       1.599   2.576  20.254  0.00  0.00    +0.000 A 
ATOM      8  N   UNL     1       2.106   3.111  19.098  0.00  0.00    +0.000 N 
ATOM      9  C   UNL     1       2.079   4.480  19.221  0.00  0.00    +0.000 A 
ATOM     10  C   UNL     1       2.435   5.538  18.375  0.00  0.00    +0.000 A 
ATOM     11  C   UNL     1       2.299   6.854  18.868  0.00  0.00    +0.000 A 
ATOM     12  C   UNL     1       2.702   8.005  17.981  0.00  0.00    +0.000 C 
ENDBRANCH   1   8
BRANCH   1  13
ATOM     13  C   UNL     1       3.879   2.752  17.471  0.00  0.00    +0.000 C 
BRANCH  13  14
ATOM     14  O   UNL     1       3.858   3.652  16.341  0.00  0.00    +0.000 OA
BRANCH  14  15
ATOM     15  C   UNL     1       5.011   4.421  16.348  0.00  0.00    +0.000 A 
ATOM     16  C   UNL     1       5.046   5.685  15.726  0.00  0.00    +0.000 A 
ATOM     17  C   UNL     1       5.976   6.637  16.129  0.00  0.00    +0.000 A 
ATOM     18  C   UNL     1       6.888   6.252  17.086  0.00  0.00    +0.000 A 
ATOM     19  C   UNL     1       7.031   4.912  17.479  0.00  0.00    +0.000 A 
ATOM     20  C   UNL     1       6.078   3.968  17.133  0.00  0.00    +0.000 A 
ATOM     21  C   UNL     1       8.157   4.807  18.459  0.00  0.00    +0.000 C 
ATOM     22  C   UNL     1       7.951   6.159  19.149  0.00  0.00    +0.000 C 
ATOM     23  C   UNL     1       7.689   7.143  17.990  0.00  0.00    +0.000 C 
ENDBRANCH  14  15
ENDBRANCH  13  14
ENDBRANCH   1  13
TORSDOF 4
ENDMDL
MODEL 5
REMARK VINA RESULT:      -7.4      2.050      6.845
REMARK  Name = 
REMARK  6 active torsions:
REMARK  status: ('A' for Active; 'I' for Inactive)
REMARK    1  A    between atoms: C_1  and  C_2
REMARK    2  A    between atoms: N_7  and  C_8
REMARK    3  A    between atoms: C_8  and  C_9
REMARK    4  A    between atoms: C_9  and  O_10
REMARK    5  A    between atoms: O_10  and  C_11
REMARK    6  A    between atoms: C_22  and  C_23
REMARK                            x       y       z     vdW  Elec       q    Type
REMARK                         _______ _______ _______ _____ _____    ______ ____
ROOT
ATOM      1  C   UNL     1       2.518   6.109  19.971  0.00  0.00    +0.000 C 
ENDROOT
BRANCH   1   8
ATOM      2  C   UNL     1      -0.629  12.022  21.199  0.00  0.00    +0.000 C 
ATOM      3  C   UNL     1       0.099  10.750  20.855  0.00  0.00    +0.000 A 
ATOM      4  C   UNL     1       0.687  10.630  19.582  0.00  0.00    +0.000 A 
ATOM      5  C   UNL     1       1.346   9.443  19.229  0.00  0.00    +0.000 A 
ATOM      6  N   UNL     1       1.978   9.118  18.055  0.00  0.00    +0.000 NA
ATOM      7  C   UNL     1       2.418   7.895  18.229  0.00  0.00    +0.000 A 
ATOM      8  N   UNL     1       2.098   7.410  19.470  0.00  0.00    +0.000 N 
ATOM      9  C   UNL     1       1.420   8.396  20.146  0.00  0.00    +0.000 A 
ATOM     10  C   UNL     1       0.876   8.493  21.433  0.00  0.00    +0.000 A 
ATOM     11  C   UNL     1       0.199   9.684  21.777  0.00  0.00    +0.000 A 
ATOM     12  C   UNL     1      -0.417   9.796  23.150  0.00  0.00    +0.000 C 
ENDBRANCH   1   8
BRANCH   1  13
ATOM     13  C   UNL     1       2.361   5.066  18.875  0.00  0.00    +0.000 C 
BRANCH  13  14
ATOM     14  O   UNL     1       3.196   3.901  19.060  0.00  0.00    +0.000 OA
BRANCH  14  15
ATOM     15  C   UNL     1       4.369   4.061  18.339  0.00  0.00    +0.000 A 
ATOM     16  C   UNL     1       4.391   3.895  16.940  0.00  0.00    +0.000 A 
ATOM     17  C   UNL     1       5.381   4.507  16.179  0.00  0.00    +0.000 A 
ATOM     18  C   UNL     1       6.357   5.197  16.863  0.00  0.00    +0.000 A 
ATOM     19  C   UNL     1       6.491   5.106  18.257  0.00  0.00    +0.000 A 
ATOM     20  C   UNL     1       5.483   4.552  19.030  0.00  0.00    +0.000 A 
ATOM     21  C   UNL     1       7.691   5.890  18.685  0.00  0.00    +0.000 C 
ATOM     22  C   UNL     1       7.585   7.007  17.642  0.00  0.00    +0.000 C 
ATOM     23  C   UNL     1       7.258   6.271  16.327  0.00  0.00    +0.000 C 
ENDBRANCH  14  15
ENDBRANCH  13  14
ENDBRANCH   1  13
TORSDOF 4
ENDMDL
MODEL 6
REMARK VINA RESULT:      -7.4      2.386      7.013
REMARK  Name = 
REMARK  6 active torsions:
REMARK  status: ('A' for Active; 'I' for Inactive)
REMARK    1  A    between atoms: C_1  and  C_2
REMARK    2  A    between atoms: N_7  and  C_8
REMARK    3  A    between atoms: C_8  and  C_9
REMARK    4  A    between atoms: C_9  and  O_10
REMARK    5  A    between atoms: O_10  and  C_11
REMARK    6  A    between atoms: C_22  and  C_23
REMARK                            x       y       z     vdW  Elec       q    Type
REMARK                         _______ _______ _______ _____ _____    ______ ____
ROOT
ATOM      1  C   UNL     1       2.837   7.859  17.631  0.00  0.00    +0.000 C 
ENDROOT
BRANCH   1   8
ATOM      2  C   UNL     1      -1.206  11.905  21.327  0.00  0.00    +0.000 C 
ATOM      3  C   UNL     1      -0.324  10.949  20.569  0.00  0.00    +0.000 A 
ATOM      4  C   UNL     1       0.074   9.754  21.197  0.00  0.00    +0.000 A 
ATOM      5  C   UNL     1       0.920   8.861  20.522  0.00  0.00    +0.000 A 
ATOM      6  N   UNL     1       1.424   7.656  20.945  0.00  0.00    +0.000 NA
ATOM      7  C   UNL     1       2.164   7.227  19.951  0.00  0.00    +0.000 A 
ATOM      8  N   UNL     1       2.163   8.105  18.898  0.00  0.00    +0.000 N 
ATOM      9  C   UNL     1       1.352   9.163  19.232  0.00  0.00    +0.000 A 
ATOM     10  C   UNL     1       0.949  10.326  18.564  0.00  0.00    +0.000 A 
ATOM     11  C   UNL     1       0.112  11.229  19.255  0.00  0.00    +0.000 A 
ATOM     12  C   UNL     1      -0.311  12.500  18.561  0.00  0.00    +0.000 C 
ENDBRANCH   1   8
BRANCH   1  13
ATOM     13  C   UNL     1       3.979   6.877  17.843  0.00  0.00    +0.000 C 
BRANCH  13  14
ATOM     14  O   UNL     1       3.912   5.717  16.983  0.00  0.00    +0.000 OA
BRANCH  14  15
ATOM     15  C   UNL     1       3.691   4.588  17.756  0.00  0.00    +0.000 A 
ATOM     16  C   UNL     1       4.753   3.937  18.414  0.00  0.00    +0.000 A 
ATOM     17  C   UNL     1       4.505   3.152  19.535  0.00  0.00    +0.000 A 
ATOM     18  C   UNL     1       3.188   2.986  19.901  0.00  0.00    +0.000 A 
ATOM     19  C   UNL     1       2.130   3.389  19.071  0.00  0.00    +0.000 A 
ATOM     20  C   UNL     1       2.360   4.221  17.988  0.00  0.00    +0.000 A 
ATOM     21  C   UNL     1       0.834   2.991  19.704  0.00  0.00    +0.000 C 
ATOM     22  C   UNL     1       1.250   3.195  21.164  0.00  0.00    +0.000 C 
ATOM     23  C   UNL     1       2.662   2.580  21.247  0.00  0.00    +0.000 C 
ENDBRANCH  14  15
ENDBRANCH  13  14
ENDBRANCH   1  13
TORSDOF 4
ENDMDL
MODEL 7
REMARK VINA RESULT:      -7.4      3.684      8.197
REMARK  Name = 
REMARK  6 active torsions:
REMARK  status: ('A' for Active; 'I' for Inactive)
REMARK    1  A    between atoms: C_1  and  C_2
REMARK    2  A    between atoms: N_7  and  C_8
REMARK    3  A    between atoms: C_8  and  C_9
REMARK    4  A    between atoms: C_9  and  O_10
REMARK    5  A    between atoms: O_10  and  C_11
REMARK    6  A    between atoms: C_22  and  C_23
REMARK                            x       y       z     vdW  Elec       q    Type
REMARK                         _______ _______ _______ _____ _____    ______ ____
ROOT
ATOM      1  C   UNL     1       1.238   9.454  18.963  0.00  0.00    +0.000 C 
ENDROOT
BRANCH   1   8
ATOM      2  C   UNL     1      -4.842  11.728  16.905  0.00  0.00    +0.000 C 
ATOM      3  C   UNL     1      -3.515  11.258  17.439  0.00  0.00    +0.000 A 
ATOM      4  C   UNL     1      -3.095  11.712  18.703  0.00  0.00    +0.000 A 
ATOM      5  C   UNL     1      -1.850  11.310  19.208  0.00  0.00    +0.000 A 
ATOM      6  N   UNL     1      -1.253  11.633  20.401  0.00  0.00    +0.000 NA
ATOM      7  C   UNL     1      -0.097  11.013  20.386  0.00  0.00    +0.000 A 
ATOM      8  N   UNL     1       0.083  10.299  19.229  0.00  0.00    +0.000 N 
ATOM      9  C   UNL     1      -1.043  10.459  18.456  0.00  0.00    +0.000 A 
ATOM     10  C   UNL     1      -1.443   9.961  17.210  0.00  0.00    +0.000 A 
ATOM     11  C   UNL     1      -2.690  10.382  16.698  0.00  0.00    +0.000 A 
ATOM     12  C   UNL     1      -3.126   9.877  15.345  0.00  0.00    +0.000 C 
ENDBRANCH   1   8
BRANCH   1  13
ATOM     13  C   UNL     1       1.457   8.507  20.134  0.00  0.00    +0.000 C 
BRANCH  13  14
ATOM     14  O   UNL     1       2.541   7.574  19.929  0.00  0.00    +0.000 OA
BRANCH  14  15
ATOM     15  C   UNL     1       2.024   6.356  19.517  0.00  0.00    +0.000 A 
ATOM     16  C   UNL     1       2.125   5.938  18.176  0.00  0.00    +0.000 A 
ATOM     17  C   UNL     1       2.070   4.585  17.858  0.00  0.00    +0.000 A 
ATOM     18  C   UNL     1       1.834   3.710  18.894  0.00  0.00    +0.000 A 
ATOM     19  C   UNL     1       1.442   4.155  20.167  0.00  0.00    +0.000 A 
ATOM     20  C   UNL     1       1.550   5.492  20.512  0.00  0.00    +0.000 A 
ATOM     21  C   UNL     1       1.175   2.969  21.039  0.00  0.00    +0.000 C 
ATOM     22  C   UNL     1       2.252   2.046  20.459  0.00  0.00    +0.000 C 
ATOM     23  C   UNL     1       2.141   2.242  18.933  0.00  0.00    +0.000 C 
ENDBRANCH  14  15
ENDBRANCH  13  14
ENDBRANCH   1  13
TORSDOF 4
ENDMDL
MODEL 8
REMARK VINA RESULT:      -7.3      2.483      7.024
REMARK  Name = 
REMARK  6 active torsions:
REMARK  status: ('A' for Active; 'I' for Inactive)
REMARK    1  A    between atoms: C_1  and  C_2
REMARK    2  A    between atoms: N_7  and  C_8
REMARK    3  A    between atoms: C_8  and  C_9
REMARK    4  A    between atoms: C_9  and  O_10
REMARK    5  A    between atoms: O_10  and  C_11
REMARK    6  A    between atoms: C_22  and  C_23
REMARK                            x       y       z     vdW  Elec       q    Type
REMARK                         _______ _______ _______ _____ _____    ______ ____
ROOT
ATOM      1  C   UNL     1       2.829   6.927  19.093  0.00  0.00    +0.000 C 
ENDROOT
BRANCH   1   8
ATOM      2  C   UNL     1      -1.086  11.757  21.871  0.00  0.00    +0.000 C 
ATOM      3  C   UNL     1      -0.211  10.740  21.187  0.00  0.00    +0.000 A 
ATOM      4  C   UNL     1       0.108  10.926  19.829  0.00  0.00    +0.000 A 
ATOM      5  C   UNL     1       0.897   9.977  19.164  0.00  0.00    +0.000 A 
ATOM      6  N   UNL     1       1.319   9.962  17.858  0.00  0.00    +0.000 NA
ATOM      7  C   UNL     1       2.017   8.859  17.735  0.00  0.00    +0.000 A 
ATOM      8  N   UNL     1       2.066   8.153  18.910  0.00  0.00    +0.000 N 
ATOM      9  C   UNL     1       1.365   8.862  19.856  0.00  0.00    +0.000 A 
ATOM     10  C   UNL     1       1.096   8.662  21.216  0.00  0.00    +0.000 A 
ATOM     11  C   UNL     1       0.286   9.612  21.877  0.00  0.00    +0.000 A 
ATOM     12  C   UNL     1      -0.037   9.399  23.335  0.00  0.00    +0.000 C 
ENDBRANCH   1   8
BRANCH   1  13
ATOM     13  C   UNL     1       3.885   6.816  18.004  0.00  0.00    +0.000 C 
BRANCH  13  14
ATOM     14  O   UNL     1       3.696   5.682  17.128  0.00  0.00    +0.000 OA
BRANCH  14  15
ATOM     15  C   UNL     1       3.554   4.534  17.890  0.00  0.00    +0.000 A 
ATOM     16  C   UNL     1       4.659   3.951  18.541  0.00  0.00    +0.000 A 
ATOM     17  C   UNL     1       4.468   3.140  19.655  0.00  0.00    +0.000 A 
ATOM     18  C   UNL     1       3.166   2.882  20.022  0.00  0.00    +0.000 A 
ATOM     19  C   UNL     1       2.081   3.220  19.197  0.00  0.00    +0.000 A 
ATOM     20  C   UNL     1       2.252   4.075  18.120  0.00  0.00    +0.000 A 
ATOM     21  C   UNL     1       0.816   2.729  19.827  0.00  0.00    +0.000 C 
ATOM     22  C   UNL     1       1.221   2.947  21.288  0.00  0.00    +0.000 C 
ATOM     23  C   UNL     1       2.672   2.428  21.364  0.00  0.00    +0.000 C 
ENDBRANCH  14  15
ENDBRANCH  13  14
ENDBRANCH   1  13
TORSDOF 4
ENDMDL
MODEL 9
REMARK VINA RESULT:      -7.3      1.956      3.222
REMARK  Name = 
REMARK  6 active torsions:
REMARK  status: ('A' for Active; 'I' for Inactive)
REMARK    1  A    between atoms: C_1  and  C_2
REMARK    2  A    between atoms: N_7  and  C_8
REMARK    3  A    between atoms: C_8  and  C_9
REMARK    4  A    between atoms: C_9  and  O_10
REMARK    5  A    between atoms: O_10  and  C_11
REMARK    6  A    between atoms: C_22  and  C_23
REMARK                            x       y       z     vdW  Elec       q    Type
REMARK                         _______ _______ _______ _____ _____    ______ ____
ROOT
ATOM      1  C   UNL     1       3.394   1.464  18.171  0.00  0.00    +0.000 C 
ENDROOT
BRANCH   1   8
ATOM      2  C   UNL     1       7.106   7.096  17.230  0.00  0.00    +0.000 C 
ATOM      3  C   UNL     1       6.290   5.864  17.524  0.00  0.00    +0.000 A 
ATOM      4  C   UNL     1       6.206   5.409  18.853  0.00  0.00    +0.000 A 
ATOM      5  C   UNL     1       5.476   4.248  19.146  0.00  0.00    +0.000 A 
ATOM      6  N   UNL     1       5.271   3.636  20.358  0.00  0.00    +0.000 NA
ATOM      7  C   UNL     1       4.534   2.585  20.090  0.00  0.00    +0.000 A 
ATOM      8  N   UNL     1       4.251   2.487  18.752  0.00  0.00    +0.000 N 
ATOM      9  C   UNL     1       4.834   3.560  18.119  0.00  0.00    +0.000 A 
ATOM     10  C   UNL     1       4.867   4.003  16.791  0.00  0.00    +0.000 A 
ATOM     11  C   UNL     1       5.618   5.162  16.499  0.00  0.00    +0.000 A 
ATOM     12  C   UNL     1       5.688   5.639  15.069  0.00  0.00    +0.000 C 
ENDBRANCH   1   8
BRANCH   1  13
ATOM     13  C   UNL     1       2.045   1.469  18.877  0.00  0.00    +0.000 C 
BRANCH  13  14
ATOM     14  O   UNL     1       1.035   2.239  18.188  0.00  0.00    +0.000 OA
BRANCH  14  15
ATOM     15  C   UNL     1       1.047   3.540  18.666  0.00  0.00    +0.000 A 
ATOM     16  C   UNL     1       1.023   3.807  20.050  0.00  0.00    +0.000 A 
ATOM     17  C   UNL     1       1.515   5.013  20.538  0.00  0.00    +0.000 A 
ATOM     18  C   UNL     1       1.938   5.936  19.608  0.00  0.00    +0.000 A 
ATOM     19  C   UNL     1       1.683   5.780  18.237  0.00  0.00    +0.000 A 
ATOM     20  C   UNL     1       1.250   4.564  17.733  0.00  0.00    +0.000 A 
ATOM     21  C   UNL     1       2.183   6.985  17.506  0.00  0.00    +0.000 C 
ATOM     22  C   UNL     1       3.400   7.268  18.392  0.00  0.00    +0.000 C 
ATOM     23  C   UNL     1       2.875   7.087  19.831  0.00  0.00    +0.000 C 
ENDBRANCH  14  15
ENDBRANCH  13  14
ENDBRANCH   1  13
TORSDOF 4
ENDMDL
