MODEL 1
REMARK VINA RESULT:      -6.7      0.000      0.000
REMARK  Name = 
REMARK  6 active torsions:
REMARK  status: ('A' for Active; 'I' for Inactive)
REMARK    1  A    between atoms: C_1  and  C_2
REMARK    2  A    between atoms: N_5  and  C_6
REMARK    3  A    between atoms: N_5  and  C_7
REMARK    4  A    between atoms: C_9  and  C_10
REMARK    5  A    between atoms: C_11  and  N_12
REMARK    6  A    between atoms: C_13  and  C_15
REMARK                            x       y       z     vdW  Elec       q    Type
REMARK                         _______ _______ _______ _____ _____    ______ ____
ROOT
ATOM      1  C   UNL     1       1.835   5.373  20.827  0.00  0.00    +0.000 C 
ATOM      2  C   UNL     1       1.768   6.798  20.366  0.00  0.00    +0.000 A 
ATOM      3  N   UNL     1       1.111   7.620  21.221  0.00  0.00    +0.000 NA
ATOM      4  C   UNL     1       0.875   8.892  20.874  0.00  0.00    +0.000 A 
ATOM      5  N   UNL     1       0.221   9.712  21.763  0.00  0.00    +0.000 N 
ATOM      6  C   UNL     1      -0.328   9.173  22.990  0.00  0.00    +0.000 C 
ATOM      7  C   UNL     1      -0.078  11.089  21.432  0.00  0.00    +0.000 C 
ATOM      8  N   UNL     1       1.264   9.383  19.689  0.00  0.00    +0.000 NA
ATOM      9  C   UNL     1       1.921   8.564  18.836  0.00  0.00    +0.000 A 
ATOM     10  C   UNL     1       2.401   9.217  17.569  0.00  0.00    +0.000 C 
ATOM     11  C   UNL     1       2.212   7.234  19.124  0.00  0.00    +0.000 A 
ENDROOT
BRANCH  11  12
ATOM     12  N   UNL     1       2.847   6.418  18.151  0.00  0.00    +0.000 N 
ATOM     13  C   UNL     1       4.137   5.932  18.280  0.00  0.00    +0.000 C 
ATOM     14  O   UNL     1       4.834   6.071  19.280  0.00  0.00    +0.000 OA
ATOM     15  H   UNL     1       2.515   6.525  17.197  0.00  0.00    +0.000 HD
BRANCH  13  16
ATOM     16  C   UNL     1       4.739   5.276  17.078  0.00  0.00    +0.000 A 
ATOM     17  C   UNL     1       5.194   6.093  16.030  0.00  0.00    +0.000 A 
ATOM     18  C   UNL     1       5.738   5.531  14.871  0.00  0.00    +0.000 A 
ATOM     19  C   UNL     1       5.838   4.147  14.745  0.00  0.00    +0.000 A 
ATOM     20  C   UNL     1       5.393   3.325  15.779  0.00  0.00    +0.000 A 
ATOM     21  C   UNL     1       4.847   3.891  16.933  0.00  0.00    +0.000 A 
ATOM     22  F   UNL     1       4.407   3.060  17.891  0.00  0.00    +0.000 F 
ENDBRANCH  13  16
ENDBRANCH  11  12
TORSDOF 2
ENDMDL
MODEL 2
REMARK VINA RESULT:      -6.5      1.045      1.477
REMARK  Name = 
REMARK  6 active torsions:
REMARK  status: ('A' for Active; 'I' for Inactive)
REMARK    1  A    between atoms: C_1  and  C_2
REMARK    2  A    between atoms: N_5  and  C_6
REMARK    3  A    between atoms: N_5  and  C_7
REMARK    4  A    between atoms: C_9  and  C_10
REMARK    5  A    between atoms: C_11  and  N_12
REMARK    6  A    between atoms: C_13  and  C_15
REMARK                            x       y       z     vdW  Elec       q    Type
REMARK                         _______ _______ _______ _____ _____    ______ ____
ROOT
ATOM      1  C   UNL     1       1.825   5.345  20.809  0.00  0.00    +0.000 C 
ATOM      2  C   UNL     1       1.767   6.773  20.357  0.00  0.00    +0.000 A 
ATOM      3  N   UNL     1       1.110   7.593  21.215  0.00  0.00    +0.000 NA
ATOM      4  C   UNL     1       0.881   8.868  20.876  0.00  0.00    +0.000 A 
ATOM      5  N   UNL     1       0.228   9.686  21.766  0.00  0.00    +0.000 N 
ATOM      6  C   UNL     1      -0.330   9.141  22.988  0.00  0.00    +0.000 C 
ATOM      7  C   UNL     1      -0.063  11.066  21.443  0.00  0.00    +0.000 C 
ATOM      8  N   UNL     1       1.278   9.365  19.695  0.00  0.00    +0.000 NA
ATOM      9  C   UNL     1       1.935   8.549  18.839  0.00  0.00    +0.000 A 
ATOM     10  C   UNL     1       2.424   9.208  17.579  0.00  0.00    +0.000 C 
ATOM     11  C   UNL     1       2.218   7.215  19.120  0.00  0.00    +0.000 A 
ENDROOT
BRANCH  11  12
ATOM     12  N   UNL     1       2.853   6.402  18.144  0.00  0.00    +0.000 N 
ATOM     13  C   UNL     1       4.153   5.938  18.261  0.00  0.00    +0.000 C 
ATOM     14  O   UNL     1       4.860   6.095  19.250  0.00  0.00    +0.000 OA
ATOM     15  H   UNL     1       2.508   6.497  17.195  0.00  0.00    +0.000 HD
BRANCH  13  16
ATOM     16  C   UNL     1       4.750   5.283  17.055  0.00  0.00    +0.000 A 
ATOM     17  C   UNL     1       4.988   3.900  17.096  0.00  0.00    +0.000 A 
ATOM     18  C   UNL     1       5.570   3.243  16.007  0.00  0.00    +0.000 A 
ATOM     19  C   UNL     1       5.918   3.958  14.863  0.00  0.00    +0.000 A 
ATOM     20  C   UNL     1       5.683   5.331  14.809  0.00  0.00    +0.000 A 
ATOM     21  C   UNL     1       5.105   5.983  15.899  0.00  0.00    +0.000 A 
ATOM     22  F   UNL     1       4.923   7.310  15.812  0.00  0.00    +0.000 F 
ENDBRANCH  13  16
ENDBRANCH  11  12
TORSDOF 2
ENDMDL
MODEL 3
REMARK VINA RESULT:      -6.4      3.040      4.435
REMARK  Name = 
REMARK  6 active torsions:
REMARK  status: ('A' for Active; 'I' for Inactive)
REMARK    1  A    between atoms: C_1  and  C_2
REMARK    2  A    between atoms: N_5  and  C_6
REMARK    3  A    between atoms: N_5  and  C_7
REMARK    4  A    between atoms: C_9  and  C_10
REMARK    5  A    between atoms: C_11  and  N_12
REMARK    6  A    between atoms: C_13  and  C_15
REMARK                            x       y       z     vdW  Elec       q    Type
REMARK                         _______ _______ _______ _____ _____    ______ ____
ROOT
ATOM      1  C   UNL     1       1.173   9.014  17.724  0.00  0.00    +0.000 C 
ATOM      2  C   UNL     1       1.049   9.671  19.065  0.00  0.00    +0.000 A 
ATOM      3  N   UNL     1       1.077  11.026  19.016  0.00  0.00    +0.000 NA
ATOM      4  C   UNL     1       1.096  11.734  20.153  0.00  0.00    +0.000 A 
ATOM      5  N   UNL     1       1.109  13.106  20.080  0.00  0.00    +0.000 N 
ATOM      6  C   UNL     1       1.246  13.772  18.801  0.00  0.00    +0.000 C 
ATOM      7  C   UNL     1       1.150  13.920  21.277  0.00  0.00    +0.000 C 
ATOM      8  N   UNL     1       1.096  11.138  21.354  0.00  0.00    +0.000 NA
ATOM      9  C   UNL     1       1.066   9.787  21.404  0.00  0.00    +0.000 A 
ATOM     10  C   UNL     1       0.976   9.202  22.787  0.00  0.00    +0.000 C 
ATOM     11  C   UNL     1       1.037   8.980  20.271  0.00  0.00    +0.000 A 
ENDROOT
BRANCH  11  12
ATOM     12  N   UNL     1       1.073   7.567  20.402  0.00  0.00    +0.000 N 
ATOM     13  C   UNL     1       2.134   6.783  19.978  0.00  0.00    +0.000 C 
ATOM     14  O   UNL     1       3.188   7.224  19.533  0.00  0.00    +0.000 OA
ATOM     15  H   UNL     1       0.172   7.101  20.432  0.00  0.00    +0.000 HD
BRANCH  13  16
ATOM     16  C   UNL     1       1.926   5.301  19.983  0.00  0.00    +0.000 A 
ATOM     17  C   UNL     1       2.040   4.617  21.204  0.00  0.00    +0.000 A 
ATOM     18  C   UNL     1       1.884   3.228  21.261  0.00  0.00    +0.000 A 
ATOM     19  C   UNL     1       1.610   2.507  20.100  0.00  0.00    +0.000 A 
ATOM     20  C   UNL     1       1.491   3.176  18.883  0.00  0.00    +0.000 A 
ATOM     21  C   UNL     1       1.651   4.561  18.831  0.00  0.00    +0.000 A 
ATOM     22  F   UNL     1       1.555   5.159  17.633  0.00  0.00    +0.000 F 
ENDBRANCH  13  16
ENDBRANCH  11  12
TORSDOF 2
ENDMDL
MODEL 4
REMARK VINA RESULT:      -6.3      0.189      2.028
REMARK  Name = 
REMARK  6 active torsions:
REMARK  status: ('A' for Active; 'I' for Inactive)
REMARK    1  A    between atoms: C_1  and  C_2
REMARK    2  A    between atoms: N_5  and  C_6
REMARK    3  A    between atoms: N_5  and  C_7
REMARK    4  A    between atoms: C_9  and  C_10
REMARK    5  A    between atoms: C_11  and  N_12
REMARK    6  A    between atoms: C_13  and  C_15
REMARK                            x       y       z     vdW  Elec       q    Type
REMARK                         _______ _______ _______ _____ _____    ______ ____
ROOT
ATOM      1  C   UNL     1       2.376   9.312  17.514  0.00  0.00    +0.000 C 
ATOM      2  C   UNL     1       1.912   8.578  18.735  0.00  0.00    +0.000 A 
ATOM      3  N   UNL     1       1.318   9.373  19.659  0.00  0.00    +0.000 NA
ATOM      4  C   UNL     1       0.965   8.867  20.848  0.00  0.00    +0.000 A 
ATOM      5  N   UNL     1       0.351   9.687  21.764  0.00  0.00    +0.000 N 
ATOM      6  C   UNL     1       0.217  11.106  21.504  0.00  0.00    +0.000 C 
ATOM      7  C   UNL     1      -0.033   9.197  23.070  0.00  0.00    +0.000 C 
ATOM      8  N   UNL     1       1.192   7.583  21.161  0.00  0.00    +0.000 NA
ATOM      9  C   UNL     1       1.782   6.788  20.240  0.00  0.00    +0.000 A 
ATOM     10  C   UNL     1       1.916   5.344  20.637  0.00  0.00    +0.000 C 
ATOM     11  C   UNL     1       2.171   7.235  18.981  0.00  0.00    +0.000 A 
ENDROOT
BRANCH  11  12
ATOM     12  N   UNL     1       2.846   6.358  18.091  0.00  0.00    +0.000 N 
ATOM     13  C   UNL     1       4.196   6.062  18.182  0.00  0.00    +0.000 C 
ATOM     14  O   UNL     1       4.930   6.444  19.087  0.00  0.00    +0.000 OA
ATOM     15  H   UNL     1       2.442   6.269  17.165  0.00  0.00    +0.000 HD
BRANCH  13  16
ATOM     16  C   UNL     1       4.801   5.301  17.045  0.00  0.00    +0.000 A 
ATOM     17  C   UNL     1       5.260   6.021  15.930  0.00  0.00    +0.000 A 
ATOM     18  C   UNL     1       5.808   5.357  14.828  0.00  0.00    +0.000 A 
ATOM     19  C   UNL     1       5.907   3.967  14.827  0.00  0.00    +0.000 A 
ATOM     20  C   UNL     1       5.459   3.242  15.929  0.00  0.00    +0.000 A 
ATOM     21  C   UNL     1       4.909   3.908  17.025  0.00  0.00    +0.000 A 
ATOM     22  F   UNL     1       4.466   3.167  18.052  0.00  0.00    +0.000 F 
ENDBRANCH  13  16
ENDBRANCH  11  12
TORSDOF 2
ENDMDL
MODEL 5
REMARK VINA RESULT:      -6.2      2.805      4.029
REMARK  Name = 
REMARK  6 active torsions:
REMARK  status: ('A' for Active; 'I' for Inactive)
REMARK    1  A    between atoms: C_1  and  C_2
REMARK    2  A    between atoms: N_5  and  C_6
REMARK    3  A    between atoms: N_5  and  C_7
REMARK    4  A    between atoms: C_9  and  C_10
REMARK    5  A    between atoms: C_11  and  N_12
REMARK    6  A    between atoms: C_13  and  C_15
REMARK                            x       y       z     vdW  Elec       q    Type
REMARK                         _______ _______ _______ _____ _____    ______ ____
ROOT
ATOM      1  C   UNL     1       0.763   9.162  22.809  0.00  0.00    +0.000 C 
ATOM      2  C   UNL     1       1.018   9.701  21.434  0.00  0.00    +0.000 A 
ATOM      3  N   UNL     1       1.022  11.056  21.369  0.00  0.00    +0.000 NA
ATOM      4  C   UNL     1       1.117  11.666  20.181  0.00  0.00    +0.000 A 
ATOM      5  N   UNL     1       1.135  13.040  20.140  0.00  0.00    +0.000 N 
ATOM      6  C   UNL     1       0.909  13.813  21.344  0.00  0.00    +0.000 C 
ATOM      7  C   UNL     1       1.217  13.751  18.882  0.00  0.00    +0.000 C 
ATOM      8  N   UNL     1       1.202  10.972  19.037  0.00  0.00    +0.000 NA
ATOM      9  C   UNL     1       1.200   9.621  19.101  0.00  0.00    +0.000 A 
ATOM     10  C   UNL     1       1.390   8.920  17.784  0.00  0.00    +0.000 C 
ATOM     11  C   UNL     1       1.112   8.911  20.295  0.00  0.00    +0.000 A 
ENDROOT
BRANCH  11  12
ATOM     12  N   UNL     1       1.049   7.493  20.277  0.00  0.00    +0.000 N 
ATOM     13  C   UNL     1       2.125   6.681  19.958  0.00  0.00    +0.000 C 
ATOM     14  O   UNL     1       3.263   7.088  19.751  0.00  0.00    +0.000 OA
ATOM     15  H   UNL     1       0.134   7.091  20.102  0.00  0.00    +0.000 HD
BRANCH  13  16
ATOM     16  C   UNL     1       1.842   5.224  19.768  0.00  0.00    +0.000 A 
ATOM     17  C   UNL     1       1.486   4.462  20.893  0.00  0.00    +0.000 A 
ATOM     18  C   UNL     1       1.239   3.090  20.776  0.00  0.00    +0.000 A 
ATOM     19  C   UNL     1       1.341   2.464  19.535  0.00  0.00    +0.000 A 
ATOM     20  C   UNL     1       1.691   3.211  18.411  0.00  0.00    +0.000 A 
ATOM     21  C   UNL     1       1.940   4.579  18.533  0.00  0.00    +0.000 A 
ATOM     22  F   UNL     1       2.300   5.251  17.429  0.00  0.00    +0.000 F 
ENDBRANCH  13  16
ENDBRANCH  11  12
TORSDOF 2
ENDMDL
MODEL 6
REMARK VINA RESULT:      -6.2      3.029      4.396
REMARK  Name = 
REMARK  6 active torsions:
REMARK  status: ('A' for Active; 'I' for Inactive)
REMARK    1  A    between atoms: C_1  and  C_2
REMARK    2  A    between atoms: N_5  and  C_6
REMARK    3  A    between atoms: N_5  and  C_7
REMARK    4  A    between atoms: C_9  and  C_10
REMARK    5  A    between atoms: C_11  and  N_12
REMARK    6  A    between atoms: C_13  and  C_15
REMARK                            x       y       z     vdW  Elec       q    Type
REMARK                         _______ _______ _______ _____ _____    ______ ____
ROOT
ATOM      1  C   UNL     1       3.706   1.756  17.570  0.00  0.00    +0.000 C 
ATOM      2  C   UNL     1       3.566   3.192  17.975  0.00  0.00    +0.000 A 
ATOM      3  N   UNL     1       2.914   3.368  19.151  0.00  0.00    +0.000 NA
ATOM      4  C   UNL     1       2.614   4.605  19.570  0.00  0.00    +0.000 A 
ATOM      5  N   UNL     1       1.967   4.760  20.772  0.00  0.00    +0.000 N 
ATOM      6  C   UNL     1       1.489   3.604  21.503  0.00  0.00    +0.000 C 
ATOM      7  C   UNL     1       1.602   6.072  21.262  0.00  0.00    +0.000 C 
ATOM      8  N   UNL     1       2.936   5.689  18.849  0.00  0.00    +0.000 NA
ATOM      9  C   UNL     1       3.588   5.515  17.677  0.00  0.00    +0.000 A 
ATOM     10  C   UNL     1       3.990   6.784  16.978  0.00  0.00    +0.000 C 
ATOM     11  C   UNL     1       3.941   4.265  17.176  0.00  0.00    +0.000 A 
ENDROOT
BRANCH  11  12
ATOM     12  N   UNL     1       4.566   4.159  15.906  0.00  0.00    +0.000 N 
ATOM     13  C   UNL     1       5.940   4.132  15.726  0.00  0.00    +0.000 C 
ATOM     14  O   UNL     1       6.758   4.102  16.639  0.00  0.00    +0.000 OA
ATOM     15  H   UNL     1       4.031   4.506  15.117  0.00  0.00    +0.000 HD
BRANCH  13  16
ATOM     16  C   UNL     1       6.441   4.240  14.321  0.00  0.00    +0.000 A 
ATOM     17  C   UNL     1       5.895   3.385  13.350  0.00  0.00    +0.000 A 
ATOM     18  C   UNL     1       6.349   3.424  12.027  0.00  0.00    +0.000 A 
ATOM     19  C   UNL     1       7.350   4.320  11.658  0.00  0.00    +0.000 A 
ATOM     20  C   UNL     1       7.897   5.177  12.612  0.00  0.00    +0.000 A 
ATOM     21  C   UNL     1       7.444   5.131  13.931  0.00  0.00    +0.000 A 
ATOM     22  F   UNL     1       8.019   5.955  14.820  0.00  0.00    +0.000 F 
ENDBRANCH  13  16
ENDBRANCH  11  12
TORSDOF 2
ENDMDL
MODEL 7
REMARK VINA RESULT:      -6.2      3.630      6.199
REMARK  Name = 
REMARK  6 active torsions:
REMARK  status: ('A' for Active; 'I' for Inactive)
REMARK    1  A    between atoms: C_1  and  C_2
REMARK    2  A    between atoms: N_5  and  C_6
REMARK    3  A    between atoms: N_5  and  C_7
REMARK    4  A    between atoms: C_9  and  C_10
REMARK    5  A    between atoms: C_11  and  N_12
REMARK    6  A    between atoms: C_13  and  C_15
REMARK                            x       y       z     vdW  Elec       q    Type
REMARK                         _______ _______ _______ _____ _____    ______ ____
ROOT
ATOM      1  C   UNL     1       0.580  13.952  19.829  0.00  0.00    +0.000 C 
ATOM      2  C   UNL     1      -0.189  13.337  20.959  0.00  0.00    +0.000 A 
ATOM      3  N   UNL     1      -0.948  14.223  21.652  0.00  0.00    +0.000 NA
ATOM      4  C   UNL     1      -1.591  13.829  22.759  0.00  0.00    +0.000 A 
ATOM      5  N   UNL     1      -2.366  14.740  23.436  0.00  0.00    +0.000 N 
ATOM      6  C   UNL     1      -2.372  16.134  23.043  0.00  0.00    +0.000 C 
ATOM      7  C   UNL     1      -3.066  14.373  24.649  0.00  0.00    +0.000 C 
ATOM      8  N   UNL     1      -1.500  12.572  23.215  0.00  0.00    +0.000 NA
ATOM      9  C   UNL     1      -0.746  11.687  22.525  0.00  0.00    +0.000 A 
ATOM     10  C   UNL     1      -0.772  10.279  23.052  0.00  0.00    +0.000 C 
ATOM     11  C   UNL     1      -0.054  12.015  21.362  0.00  0.00    +0.000 A 
ENDROOT
BRANCH  11  12
ATOM     12  N   UNL     1       0.771  11.048  20.729  0.00  0.00    +0.000 N 
ATOM     13  C   UNL     1       0.336  10.218  19.709  0.00  0.00    +0.000 C 
ATOM     14  O   UNL     1      -0.768  10.289  19.181  0.00  0.00    +0.000 OA
ATOM     15  H   UNL     1       1.541  10.689  21.284  0.00  0.00    +0.000 HD
BRANCH  13  16
ATOM     16  C   UNL     1       1.253   9.109  19.300  0.00  0.00    +0.000 A 
ATOM     17  C   UNL     1       1.817   9.149  18.015  0.00  0.00    +0.000 A 
ATOM     18  C   UNL     1       2.658   8.123  17.572  0.00  0.00    +0.000 A 
ATOM     19  C   UNL     1       2.948   7.046  18.408  0.00  0.00    +0.000 A 
ATOM     20  C   UNL     1       2.397   6.997  19.687  0.00  0.00    +0.000 A 
ATOM     21  C   UNL     1       1.555   8.021  20.124  0.00  0.00    +0.000 A 
ATOM     22  F   UNL     1       1.026   7.918  21.353  0.00  0.00    +0.000 F 
ENDBRANCH  13  16
ENDBRANCH  11  12
TORSDOF 2
ENDMDL
MODEL 8
REMARK VINA RESULT:      -6.1      3.464      5.629
REMARK  Name = 
REMARK  6 active torsions:
REMARK  status: ('A' for Active; 'I' for Inactive)
REMARK    1  A    between atoms: C_1  and  C_2
REMARK    2  A    between atoms: N_5  and  C_6
REMARK    3  A    between atoms: N_5  and  C_7
REMARK    4  A    between atoms: C_9  and  C_10
REMARK    5  A    between atoms: C_11  and  N_12
REMARK    6  A    between atoms: C_13  and  C_15
REMARK                            x       y       z     vdW  Elec       q    Type
REMARK                         _______ _______ _______ _____ _____    ______ ____
ROOT
ATOM      1  C   UNL     1      -0.870   9.970  23.208  0.00  0.00    +0.000 C 
ATOM      2  C   UNL     1      -0.737  11.355  22.650  0.00  0.00    +0.000 A 
ATOM      3  N   UNL     1      -1.557  12.262  23.236  0.00  0.00    +0.000 NA
ATOM      4  C   UNL     1      -1.626  13.509  22.753  0.00  0.00    +0.000 A 
ATOM      5  N   UNL     1      -2.451  14.417  23.371  0.00  0.00    +0.000 N 
ATOM      6  C   UNL     1      -3.338  13.995  24.437  0.00  0.00    +0.000 C 
ATOM      7  C   UNL     1      -2.579  15.772  22.878  0.00  0.00    +0.000 C 
ATOM      8  N   UNL     1      -0.907  13.892  21.687  0.00  0.00    +0.000 NA
ATOM      9  C   UNL     1      -0.088  12.989  21.103  0.00  0.00    +0.000 A 
ATOM     10  C   UNL     1       0.749  13.523  19.973  0.00  0.00    +0.000 C 
ATOM     11  C   UNL     1       0.047  11.677  21.549  0.00  0.00    +0.000 A 
ENDROOT
BRANCH  11  12
ATOM     12  N   UNL     1       0.877  10.767  20.843  0.00  0.00    +0.000 N 
ATOM     13  C   UNL     1       0.430   9.968  19.804  0.00  0.00    +0.000 C 
ATOM     14  O   UNL     1      -0.695  10.024  19.320  0.00  0.00    +0.000 OA
ATOM     15  H   UNL     1       1.678  10.410  21.354  0.00  0.00    +0.000 HD
BRANCH  13  16
ATOM     16  C   UNL     1       1.365   8.908  19.313  0.00  0.00    +0.000 A 
ATOM     17  C   UNL     1       1.864   9.012  18.004  0.00  0.00    +0.000 A 
ATOM     18  C   UNL     1       2.719   8.034  17.486  0.00  0.00    +0.000 A 
ATOM     19  C   UNL     1       3.089   6.942  18.269  0.00  0.00    +0.000 A 
ATOM     20  C   UNL     1       2.603   6.829  19.571  0.00  0.00    +0.000 A 
ATOM     21  C   UNL     1       1.747   7.806  20.083  0.00  0.00    +0.000 A 
ATOM     22  F   UNL     1       1.283   7.642  21.331  0.00  0.00    +0.000 F 
ENDBRANCH  13  16
ENDBRANCH  11  12
TORSDOF 2
ENDMDL
MODEL 9
REMARK VINA RESULT:      -6.1      1.124      2.528
REMARK  Name = 
REMARK  6 active torsions:
REMARK  status: ('A' for Active; 'I' for Inactive)
REMARK    1  A    between atoms: C_1  and  C_2
REMARK    2  A    between atoms: N_5  and  C_6
REMARK    3  A    between atoms: N_5  and  C_7
REMARK    4  A    between atoms: C_9  and  C_10
REMARK    5  A    between atoms: C_11  and  N_12
REMARK    6  A    between atoms: C_13  and  C_15
REMARK                            x       y       z     vdW  Elec       q    Type
REMARK                         _______ _______ _______ _____ _____    ______ ____
ROOT
ATOM      1  C   UNL     1       2.292   9.239  17.419  0.00  0.00    +0.000 C 
ATOM      2  C   UNL     1       1.880   8.525  18.671  0.00  0.00    +0.000 A 
ATOM      3  N   UNL     1       1.281   9.326  19.586  0.00  0.00    +0.000 NA
ATOM      4  C   UNL     1       0.972   8.841  20.796  0.00  0.00    +0.000 A 
ATOM      5  N   UNL     1       0.351   9.666  21.703  0.00  0.00    +0.000 N 
ATOM      6  C   UNL     1       0.165  11.072  21.408  0.00  0.00    +0.000 C 
ATOM      7  C   UNL     1       0.013   9.200  23.031  0.00  0.00    +0.000 C 
ATOM      8  N   UNL     1       1.248   7.575  21.139  0.00  0.00    +0.000 NA
ATOM      9  C   UNL     1       1.844   6.774  20.226  0.00  0.00    +0.000 A 
ATOM     10  C   UNL     1       2.035   5.346  20.658  0.00  0.00    +0.000 C 
ATOM     11  C   UNL     1       2.189   7.198  18.946  0.00  0.00    +0.000 A 
ENDROOT
BRANCH  11  12
ATOM     12  N   UNL     1       2.873   6.319  18.065  0.00  0.00    +0.000 N 
ATOM     13  C   UNL     1       4.253   6.213  18.004  0.00  0.00    +0.000 C 
ATOM     14  O   UNL     1       5.026   6.790  18.761  0.00  0.00    +0.000 OA
ATOM     15  H   UNL     1       2.379   6.072  17.214  0.00  0.00    +0.000 HD
BRANCH  13  16
ATOM     16  C   UNL     1       4.822   5.411  16.877  0.00  0.00    +0.000 A 
ATOM     17  C   UNL     1       5.088   4.049  17.096  0.00  0.00    +0.000 A 
ATOM     18  C   UNL     1       5.647   3.260  16.085  0.00  0.00    +0.000 A 
ATOM     19  C   UNL     1       5.943   3.820  14.844  0.00  0.00    +0.000 A 
ATOM     20  C   UNL     1       5.680   5.169  14.614  0.00  0.00    +0.000 A 
ATOM     21  C   UNL     1       5.126   5.954  15.626  0.00  0.00    +0.000 A 
ATOM     22  F   UNL     1       4.915   7.254  15.368  0.00  0.00    +0.000 F 
ENDBRANCH  13  16
ENDBRANCH  11  12
TORSDOF 2
ENDMDL
