MODEL 1
REMARK VINA RESULT:      -8.1      0.000      0.000
REMARK  Name = 
REMARK  7 active torsions:
REMARK  status: ('A' for Active; 'I' for Inactive)
REMARK    1  A    between atoms: C_1  and  N_2
REMARK    2  A    between atoms: N_2  and  C_3
REMARK    3  A    between atoms: C_4  and  C_6
REMARK    4  A    between atoms: N_13  and  N_14
REMARK    5  A    between atoms: N_14  and  C_15
REMARK    6  A    between atoms: C_18  and  S_19
REMARK    7  A    between atoms: S_19  and  N_20
REMARK                            x       y       z     vdW  Elec       q    Type
REMARK                         _______ _______ _______ _____ _____    ______ ____
ROOT
ATOM      1  C   UNL     1       5.404   4.773  16.436  0.00  0.00    +0.000 A 
ATOM      2  C   UNL     1       5.136   3.387  16.607  0.00  0.00    +0.000 A 
ATOM      3  C   UNL     1       4.124   2.927  17.466  0.00  0.00    +0.000 A 
ATOM      4  C   UNL     1       3.415   3.878  18.168  0.00  0.00    +0.000 A 
ATOM      5  C   UNL     1       3.667   5.233  17.980  0.00  0.00    +0.000 A 
ATOM      6  C   UNL     1       4.609   5.712  17.092  0.00  0.00    +0.000 A 
ATOM      7  C   UNL     1       2.842   5.950  18.939  0.00  0.00    +0.000 C 
ATOM      8  N   UNL     1       2.906   7.224  19.152  0.00  0.00    +0.000 NA
ATOM      9  C   UNL     1       2.007   4.887  19.654  0.00  0.00    +0.000 C 
ATOM     10  O   UNL     1       1.179   5.103  20.513  0.00  0.00    +0.000 OA
ATOM     11  N   UNL     1       2.422   3.681  19.123  0.00  0.00    +0.000 N 
ATOM     12  H   UNL     1       2.055   2.789  19.425  0.00  0.00    +0.000 HD
ENDROOT
BRANCH   1  16
ATOM     13  C   UNL     1       7.699   5.151  13.400  0.00  0.00    +0.000 C 
ATOM     14  N   UNL     1       6.582   4.683  14.204  0.00  0.00    +0.000 N 
ATOM     15  C   UNL     1       5.523   3.969  13.500  0.00  0.00    +0.000 C 
ATOM     16  C   UNL     1       6.517   5.164  15.520  0.00  0.00    +0.000 C 
ATOM     17  O   UNL     1       7.355   5.947  15.967  0.00  0.00    +0.000 OA
ENDBRANCH   1  16
BRANCH   8  18
ATOM     18  N   UNL     1       2.139   7.715  20.151  0.00  0.00    +0.000 N 
ATOM     19  H   UNL     1       2.190   7.355  21.108  0.00  0.00    +0.000 HD
BRANCH  18  20
ATOM     20  C   UNL     1       1.204   8.724  19.876  0.00  0.00    +0.000 A 
ATOM     21  C   UNL     1       0.359   9.239  20.872  0.00  0.00    +0.000 A 
ATOM     22  C   UNL     1      -0.543  10.266  20.597  0.00  0.00    +0.000 A 
ATOM     23  C   UNL     1      -0.605  10.792  19.308  0.00  0.00    +0.000 A 
ATOM     24  C   UNL     1       0.194  10.272  18.288  0.00  0.00    +0.000 A 
ATOM     25  C   UNL     1       1.096   9.243  18.578  0.00  0.00    +0.000 A 
BRANCH  23  26
ATOM     26  S   UNL     1      -1.707  12.131  18.975  0.00  0.00    +0.000 S 
ATOM     27  O   UNL     1      -2.984  11.610  18.561  0.00  0.00    +0.000 OA
ATOM     28  O   UNL     1      -1.570  13.134  20.006  0.00  0.00    +0.000 OA
BRANCH  26  29
ATOM     29  N   UNL     1      -1.005  12.790  17.598  0.00  0.00    +0.000 NA
ATOM     30  H   UNL     1      -1.722  13.197  16.997  0.00  0.00    +0.000 HD
ATOM     31  H   UNL     1      -0.254  13.430  17.853  0.00  0.00    +0.000 HD
ENDBRANCH  26  29
ENDBRANCH  23  26
ENDBRANCH  18  20
ENDBRANCH   8  18
TORSDOF 5
ENDMDL
MODEL 2
REMARK VINA RESULT:      -8.1      2.273      3.099
REMARK  Name = 
REMARK  7 active torsions:
REMARK  status: ('A' for Active; 'I' for Inactive)
REMARK    1  A    between atoms: C_1  and  N_2
REMARK    2  A    between atoms: N_2  and  C_3
REMARK    3  A    between atoms: C_4  and  C_6
REMARK    4  A    between atoms: N_13  and  N_14
REMARK    5  A    between atoms: N_14  and  C_15
REMARK    6  A    between atoms: C_18  and  S_19
REMARK    7  A    between atoms: S_19  and  N_20
REMARK                            x       y       z     vdW  Elec       q    Type
REMARK                         _______ _______ _______ _____ _____    ______ ____
ROOT
ATOM      1  C   UNL     1       4.049   5.444  17.753  0.00  0.00    +0.000 A 
ATOM      2  C   UNL     1       3.987   4.601  18.897  0.00  0.00    +0.000 A 
ATOM      3  C   UNL     1       3.233   4.945  20.031  0.00  0.00    +0.000 A 
ATOM      4  C   UNL     1       2.574   6.155  20.005  0.00  0.00    +0.000 A 
ATOM      5  C   UNL     1       2.622   6.965  18.876  0.00  0.00    +0.000 A 
ATOM      6  C   UNL     1       3.299   6.619  17.724  0.00  0.00    +0.000 A 
ATOM      7  C   UNL     1       1.930   8.198  19.214  0.00  0.00    +0.000 C 
ATOM      8  N   UNL     1       1.885   9.245  18.455  0.00  0.00    +0.000 NA
ATOM      9  C   UNL     1       1.390   8.003  20.632  0.00  0.00    +0.000 C 
ATOM     10  O   UNL     1       0.735   8.813  21.252  0.00  0.00    +0.000 OA
ATOM     11  N   UNL     1       1.828   6.751  21.018  0.00  0.00    +0.000 N 
ATOM     12  H   UNL     1       1.638   6.356  21.928  0.00  0.00    +0.000 HD
ENDROOT
BRANCH   1  16
ATOM     13  C   UNL     1       6.898   5.055  15.230  0.00  0.00    +0.000 C 
ATOM     14  N   UNL     1       6.154   5.580  16.363  0.00  0.00    +0.000 N 
ATOM     15  C   UNL     1       6.879   6.464  17.269  0.00  0.00    +0.000 C 
ATOM     16  C   UNL     1       4.898   5.005  16.605  0.00  0.00    +0.000 C 
ATOM     17  O   UNL     1       4.453   4.099  15.900  0.00  0.00    +0.000 OA
ENDBRANCH   1  16
BRANCH   8  18
ATOM     18  N   UNL     1       1.285  10.343  18.966  0.00  0.00    +0.000 N 
ATOM     19  H   UNL     1       1.766  10.982  19.605  0.00  0.00    +0.000 HD
BRANCH  18  20
ATOM     20  C   UNL     1      -0.057  10.609  18.654  0.00  0.00    +0.000 A 
ATOM     21  C   UNL     1      -0.755   9.855  17.697  0.00  0.00    +0.000 A 
ATOM     22  C   UNL     1      -2.098  10.105  17.419  0.00  0.00    +0.000 A 
ATOM     23  C   UNL     1      -2.759  11.122  18.104  0.00  0.00    +0.000 A 
ATOM     24  C   UNL     1      -2.079  11.915  19.031  0.00  0.00    +0.000 A 
ATOM     25  C   UNL     1      -0.732  11.653  19.302  0.00  0.00    +0.000 A 
BRANCH  23  26
ATOM     26  S   UNL     1      -4.475  11.400  17.791  0.00  0.00    +0.000 S 
ATOM     27  O   UNL     1      -4.651  11.830  16.428  0.00  0.00    +0.000 OA
ATOM     28  O   UNL     1      -5.250  10.332  18.378  0.00  0.00    +0.000 OA
BRANCH  26  29
ATOM     29  N   UNL     1      -4.761  12.753  18.746  0.00  0.00    +0.000 NA
ATOM     30  H   UNL     1      -5.113  13.520  18.173  0.00  0.00    +0.000 HD
ATOM     31  H   UNL     1      -5.354  12.510  19.539  0.00  0.00    +0.000 HD
ENDBRANCH  26  29
ENDBRANCH  23  26
ENDBRANCH  18  20
ENDBRANCH   8  18
TORSDOF 5
ENDMDL
MODEL 3
REMARK VINA RESULT:      -7.7      0.986      1.524
REMARK  Name = 
REMARK  7 active torsions:
REMARK  status: ('A' for Active; 'I' for Inactive)
REMARK    1  A    between atoms: C_1  and  N_2
REMARK    2  A    between atoms: N_2  and  C_3
REMARK    3  A    between atoms: C_4  and  C_6
REMARK    4  A    between atoms: N_13  and  N_14
REMARK    5  A    between atoms: N_14  and  C_15
REMARK    6  A    between atoms: C_18  and  S_19
REMARK    7  A    between atoms: S_19  and  N_20
REMARK                            x       y       z     vdW  Elec       q    Type
REMARK                         _______ _______ _______ _____ _____    ______ ____
ROOT
ATOM      1  C   UNL     1       4.569   4.173  16.492  0.00  0.00    +0.000 A 
ATOM      2  C   UNL     1       4.297   2.833  16.884  0.00  0.00    +0.000 A 
ATOM      3  C   UNL     1       3.429   2.534  17.948  0.00  0.00    +0.000 A 
ATOM      4  C   UNL     1       2.870   3.598  18.623  0.00  0.00    +0.000 A 
ATOM      5  C   UNL     1       3.124   4.905  18.221  0.00  0.00    +0.000 A 
ATOM      6  C   UNL     1       3.918   5.224  17.138  0.00  0.00    +0.000 A 
ATOM      7  C   UNL     1       2.487   5.775  19.196  0.00  0.00    +0.000 C 
ATOM      8  N   UNL     1       2.619   7.061  19.226  0.00  0.00    +0.000 NA
ATOM      9  C   UNL     1       1.754   4.851  20.169  0.00  0.00    +0.000 C 
ATOM     10  O   UNL     1       1.086   5.213  21.114  0.00  0.00    +0.000 OA
ATOM     11  N   UNL     1       2.044   3.570  19.743  0.00  0.00    +0.000 N 
ATOM     12  H   UNL     1       1.708   2.742  20.214  0.00  0.00    +0.000 HD
ENDROOT
BRANCH   1  16
ATOM     13  C   UNL     1       7.708   4.889  14.427  0.00  0.00    +0.000 C 
ATOM     14  N   UNL     1       6.868   4.723  15.602  0.00  0.00    +0.000 N 
ATOM     15  C   UNL     1       7.548   4.674  16.891  0.00  0.00    +0.000 C 
ATOM     16  C   UNL     1       5.525   4.392  15.366  0.00  0.00    +0.000 C 
ATOM     17  O   UNL     1       5.085   4.241  14.226  0.00  0.00    +0.000 OA
ENDBRANCH   1  16
BRANCH   8  18
ATOM     18  N   UNL     1       2.041   7.710  20.262  0.00  0.00    +0.000 N 
ATOM     19  H   UNL     1       2.155   7.403  21.232  0.00  0.00    +0.000 HD
BRANCH  18  20
ATOM     20  C   UNL     1       1.218   8.819  20.014  0.00  0.00    +0.000 A 
ATOM     21  C   UNL     1       1.154   9.421  18.747  0.00  0.00    +0.000 A 
ATOM     22  C   UNL     1       0.307  10.501  18.501  0.00  0.00    +0.000 A 
ATOM     23  C   UNL     1      -0.490  10.991  19.533  0.00  0.00    +0.000 A 
ATOM     24  C   UNL     1      -0.417  10.439  20.813  0.00  0.00    +0.000 A 
ATOM     25  C   UNL     1       0.435   9.354  21.046  0.00  0.00    +0.000 A 
BRANCH  23  26
ATOM     26  S   UNL     1      -1.603  12.323  19.205  0.00  0.00    +0.000 S 
ATOM     27  O   UNL     1      -2.937  11.804  19.041  0.00  0.00    +0.000 OA
ATOM     28  O   UNL     1      -1.300  13.431  20.082  0.00  0.00    +0.000 OA
BRANCH  26  29
ATOM     29  N   UNL     1      -1.096  12.796  17.675  0.00  0.00    +0.000 NA
ATOM     30  H   UNL     1      -0.185  13.253  17.732  0.00  0.00    +0.000 HD
ATOM     31  H   UNL     1      -1.134  12.009  17.029  0.00  0.00    +0.000 HD
ENDBRANCH  26  29
ENDBRANCH  23  26
ENDBRANCH  18  20
ENDBRANCH   8  18
TORSDOF 5
ENDMDL
MODEL 4
REMARK VINA RESULT:      -7.7      2.166      3.057
REMARK  Name = 
REMARK  7 active torsions:
REMARK  status: ('A' for Active; 'I' for Inactive)
REMARK    1  A    between atoms: C_1  and  N_2
REMARK    2  A    between atoms: N_2  and  C_3
REMARK    3  A    between atoms: C_4  and  C_6
REMARK    4  A    between atoms: N_13  and  N_14
REMARK    5  A    between atoms: N_14  and  C_15
REMARK    6  A    between atoms: C_18  and  S_19
REMARK    7  A    between atoms: S_19  and  N_20
REMARK                            x       y       z     vdW  Elec       q    Type
REMARK                         _______ _______ _______ _____ _____    ______ ____
ROOT
ATOM      1  C   UNL     1       4.152   6.227  17.449  0.00  0.00    +0.000 A 
ATOM      2  C   UNL     1       4.216   5.275  18.503  0.00  0.00    +0.000 A 
ATOM      3  C   UNL     1       3.465   5.421  19.681  0.00  0.00    +0.000 A 
ATOM      4  C   UNL     1       2.680   6.548  19.791  0.00  0.00    +0.000 A 
ATOM      5  C   UNL     1       2.605   7.465  18.748  0.00  0.00    +0.000 A 
ATOM      6  C   UNL     1       3.279   7.311  17.554  0.00  0.00    +0.000 A 
ATOM      7  C   UNL     1       1.796   8.576  19.223  0.00  0.00    +0.000 C 
ATOM      8  N   UNL     1       1.616   9.680  18.575  0.00  0.00    +0.000 NA
ATOM      9  C   UNL     1       1.324   8.184  20.624  0.00  0.00    +0.000 C 
ATOM     10  O   UNL     1       0.606   8.853  21.337  0.00  0.00    +0.000 OA
ATOM     11  N   UNL     1       1.906   6.956  20.873  0.00  0.00    +0.000 N 
ATOM     12  H   UNL     1       1.787   6.455  21.743  0.00  0.00    +0.000 HD
ENDROOT
BRANCH   1  16
ATOM     13  C   UNL     1       6.196   4.609  14.651  0.00  0.00    +0.000 C 
ATOM     14  N   UNL     1       5.383   4.707  15.851  0.00  0.00    +0.000 N 
ATOM     15  C   UNL     1       4.840   3.459  16.378  0.00  0.00    +0.000 C 
ATOM     16  C   UNL     1       5.006   5.999  16.246  0.00  0.00    +0.000 C 
ATOM     17  O   UNL     1       5.340   6.995  15.604  0.00  0.00    +0.000 OA
ENDBRANCH   1  16
BRANCH   8  18
ATOM     18  N   UNL     1       0.918  10.651  19.206  0.00  0.00    +0.000 N 
ATOM     19  H   UNL     1       1.338  11.250  19.922  0.00  0.00    +0.000 HD
BRANCH  18  20
ATOM     20  C   UNL     1      -0.442  10.830  18.911  0.00  0.00    +0.000 A 
ATOM     21  C   UNL     1      -1.242  11.728  19.637  0.00  0.00    +0.000 A 
ATOM     22  C   UNL     1      -2.584  11.925  19.314  0.00  0.00    +0.000 A 
ATOM     23  C   UNL     1      -3.141  11.217  18.251  0.00  0.00    +0.000 A 
ATOM     24  C   UNL     1      -2.381  10.288  17.538  0.00  0.00    +0.000 A 
ATOM     25  C   UNL     1      -1.035  10.101  17.871  0.00  0.00    +0.000 A 
BRANCH  23  26
ATOM     26  S   UNL     1      -4.826  11.509  17.808  0.00  0.00    +0.000 S 
ATOM     27  O   UNL     1      -4.902  11.850  16.411  0.00  0.00    +0.000 OA
ATOM     28  O   UNL     1      -5.664  10.499  18.412  0.00  0.00    +0.000 OA
BRANCH  26  29
ATOM     29  N   UNL     1      -5.138  12.929  18.651  0.00  0.00    +0.000 NA
ATOM     30  H   UNL     1      -4.842  12.834  19.623  0.00  0.00    +0.000 HD
ATOM     31  H   UNL     1      -4.735  13.728  18.162  0.00  0.00    +0.000 HD
ENDBRANCH  26  29
ENDBRANCH  23  26
ENDBRANCH  18  20
ENDBRANCH   8  18
TORSDOF 5
ENDMDL
MODEL 5
REMARK VINA RESULT:      -7.7      0.741      1.319
REMARK  Name = 
REMARK  7 active torsions:
REMARK  status: ('A' for Active; 'I' for Inactive)
REMARK    1  A    between atoms: C_1  and  N_2
REMARK    2  A    between atoms: N_2  and  C_3
REMARK    3  A    between atoms: C_4  and  C_6
REMARK    4  A    between atoms: N_13  and  N_14
REMARK    5  A    between atoms: N_14  and  C_15
REMARK    6  A    between atoms: C_18  and  S_19
REMARK    7  A    between atoms: S_19  and  N_20
REMARK                            x       y       z     vdW  Elec       q    Type
REMARK                         _______ _______ _______ _____ _____    ______ ____
ROOT
ATOM      1  C   UNL     1       5.383   4.766  16.374  0.00  0.00    +0.000 A 
ATOM      2  C   UNL     1       5.141   3.372  16.520  0.00  0.00    +0.000 A 
ATOM      3  C   UNL     1       4.138   2.880  17.372  0.00  0.00    +0.000 A 
ATOM      4  C   UNL     1       3.412   3.805  18.090  0.00  0.00    +0.000 A 
ATOM      5  C   UNL     1       3.640   5.167  17.927  0.00  0.00    +0.000 A 
ATOM      6  C   UNL     1       4.572   5.679  17.047  0.00  0.00    +0.000 A 
ATOM      7  C   UNL     1       2.802   5.853  18.898  0.00  0.00    +0.000 C 
ATOM      8  N   UNL     1       2.844   7.124  19.133  0.00  0.00    +0.000 NA
ATOM      9  C   UNL     1       1.988   4.762  19.595  0.00  0.00    +0.000 C 
ATOM     10  O   UNL     1       1.157   4.949  20.458  0.00  0.00    +0.000 OA
ATOM     11  N   UNL     1       2.424   3.574  19.043  0.00  0.00    +0.000 N 
ATOM     12  H   UNL     1       2.073   2.670  19.329  0.00  0.00    +0.000 HD
ENDROOT
BRANCH   1  16
ATOM     13  C   UNL     1       7.695   5.201  13.358  0.00  0.00    +0.000 C 
ATOM     14  N   UNL     1       6.591   4.695  14.156  0.00  0.00    +0.000 N 
ATOM     15  C   UNL     1       5.574   3.923  13.452  0.00  0.00    +0.000 C 
ATOM     16  C   UNL     1       6.488   5.193  15.464  0.00  0.00    +0.000 C 
ATOM     17  O   UNL     1       7.285   6.020  15.907  0.00  0.00    +0.000 OA
ENDBRANCH   1  16
BRANCH   8  18
ATOM     18  N   UNL     1       2.069   7.583  20.141  0.00  0.00    +0.000 N 
ATOM     19  H   UNL     1       2.016   7.112  21.048  0.00  0.00    +0.000 HD
BRANCH  18  20
ATOM     20  C   UNL     1       1.271   8.720  19.940  0.00  0.00    +0.000 A 
ATOM     21  C   UNL     1       1.287   9.427  18.727  0.00  0.00    +0.000 A 
ATOM     22  C   UNL     1       0.465  10.535  18.525  0.00  0.00    +0.000 A 
ATOM     23  C   UNL     1      -0.388  10.946  19.547  0.00  0.00    +0.000 A 
ATOM     24  C   UNL     1      -0.396  10.288  20.777  0.00  0.00    +0.000 A 
ATOM     25  C   UNL     1       0.432   9.176  20.967  0.00  0.00    +0.000 A 
BRANCH  23  26
ATOM     26  S   UNL     1      -1.470  12.315  19.269  0.00  0.00    +0.000 S 
ATOM     27  O   UNL     1      -0.784  13.319  18.495  0.00  0.00    +0.000 OA
ATOM     28  O   UNL     1      -2.785  11.827  18.922  0.00  0.00    +0.000 OA
BRANCH  26  29
ATOM     29  N   UNL     1      -1.606  12.938  20.823  0.00  0.00    +0.000 NA
ATOM     30  H   UNL     1      -1.054  13.792  20.910  0.00  0.00    +0.000 HD
ATOM     31  H   UNL     1      -2.587  13.040  21.080  0.00  0.00    +0.000 HD
ENDBRANCH  26  29
ENDBRANCH  23  26
ENDBRANCH  18  20
ENDBRANCH   8  18
TORSDOF 5
ENDMDL
MODEL 6
REMARK VINA RESULT:      -7.6      2.488      2.931
REMARK  Name = 
REMARK  7 active torsions:
REMARK  status: ('A' for Active; 'I' for Inactive)
REMARK    1  A    between atoms: C_1  and  N_2
REMARK    2  A    between atoms: N_2  and  C_3
REMARK    3  A    between atoms: C_4  and  C_6
REMARK    4  A    between atoms: N_13  and  N_14
REMARK    5  A    between atoms: N_14  and  C_15
REMARK    6  A    between atoms: C_18  and  S_19
REMARK    7  A    between atoms: S_19  and  N_20
REMARK                            x       y       z     vdW  Elec       q    Type
REMARK                         _______ _______ _______ _____ _____    ______ ____
ROOT
ATOM      1  C   UNL     1       5.657   5.692  17.155  0.00  0.00    +0.000 A 
ATOM      2  C   UNL     1       5.881   4.799  18.238  0.00  0.00    +0.000 A 
ATOM      3  C   UNL     1       5.008   4.733  19.337  0.00  0.00    +0.000 A 
ATOM      4  C   UNL     1       3.934   5.597  19.340  0.00  0.00    +0.000 A 
ATOM      5  C   UNL     1       3.709   6.452  18.267  0.00  0.00    +0.000 A 
ATOM      6  C   UNL     1       4.512   6.488  17.145  0.00  0.00    +0.000 A 
ATOM      7  C   UNL     1       2.580   7.294  18.631  0.00  0.00    +0.000 C 
ATOM      8  N   UNL     1       2.164   8.302  17.936  0.00  0.00    +0.000 NA
ATOM      9  C   UNL     1       2.102   6.791  19.994  0.00  0.00    +0.000 C 
ATOM     10  O   UNL     1       1.161   7.234  20.616  0.00  0.00    +0.000 OA
ATOM     11  N   UNL     1       2.975   5.776  20.333  0.00  0.00    +0.000 N 
ATOM     12  H   UNL     1       2.916   5.265  21.203  0.00  0.00    +0.000 HD
ENDROOT
BRANCH   1  16
ATOM     13  C   UNL     1       7.526   5.008  13.888  0.00  0.00    +0.000 C 
ATOM     14  N   UNL     1       6.504   4.888  14.915  0.00  0.00    +0.000 N 
ATOM     15  C   UNL     1       5.313   4.122  14.566  0.00  0.00    +0.000 C 
ATOM     16  C   UNL     1       6.655   5.708  16.043  0.00  0.00    +0.000 C 
ATOM     17  O   UNL     1       7.596   6.493  16.153  0.00  0.00    +0.000 OA
ENDBRANCH   1  16
BRANCH   8  18
ATOM     18  N   UNL     1       1.166   9.041  18.469  0.00  0.00    +0.000 N 
ATOM     19  H   UNL     1       0.207   8.692  18.543  0.00  0.00    +0.000 HD
BRANCH  18  20
ATOM     20  C   UNL     1       1.427  10.349  18.903  0.00  0.00    +0.000 A 
ATOM     21  C   UNL     1       2.163  11.253  18.120  0.00  0.00    +0.000 A 
ATOM     22  C   UNL     1       2.388  12.562  18.545  0.00  0.00    +0.000 A 
ATOM     23  C   UNL     1       1.871  12.980  19.769  0.00  0.00    +0.000 A 
ATOM     24  C   UNL     1       1.170  12.092  20.587  0.00  0.00    +0.000 A 
ATOM     25  C   UNL     1       0.949  10.782  20.149  0.00  0.00    +0.000 A 
BRANCH  23  26
ATOM     26  S   UNL     1       2.108  14.654  20.280  0.00  0.00    +0.000 S 
ATOM     27  O   UNL     1       3.432  15.085  19.913  0.00  0.00    +0.000 OA
ATOM     28  O   UNL     1       0.924  15.423  19.971  0.00  0.00    +0.000 OA
BRANCH  26  29
ATOM     29  N   UNL     1       2.121  14.482  21.951  0.00  0.00    +0.000 NA
ATOM     30  H   UNL     1       2.913  14.986  22.351  0.00  0.00    +0.000 HD
ATOM     31  H   UNL     1       1.215  14.739  22.342  0.00  0.00    +0.000 HD
ENDBRANCH  26  29
ENDBRANCH  23  26
ENDBRANCH  18  20
ENDBRANCH   8  18
TORSDOF 5
ENDMDL
MODEL 7
REMARK VINA RESULT:      -7.5      2.346      3.404
REMARK  Name = 
REMARK  7 active torsions:
REMARK  status: ('A' for Active; 'I' for Inactive)
REMARK    1  A    between atoms: C_1  and  N_2
REMARK    2  A    between atoms: N_2  and  C_3
REMARK    3  A    between atoms: C_4  and  C_6
REMARK    4  A    between atoms: N_13  and  N_14
REMARK    5  A    between atoms: N_14  and  C_15
REMARK    6  A    between atoms: C_18  and  S_19
REMARK    7  A    between atoms: S_19  and  N_20
REMARK                            x       y       z     vdW  Elec       q    Type
REMARK                         _______ _______ _______ _____ _____    ______ ____
ROOT
ATOM      1  C   UNL     1       3.438   5.327  18.173  0.00  0.00    +0.000 A 
ATOM      2  C   UNL     1       3.445   4.713  19.456  0.00  0.00    +0.000 A 
ATOM      3  C   UNL     1       2.838   5.316  20.570  0.00  0.00    +0.000 A 
ATOM      4  C   UNL     1       2.256   6.551  20.378  0.00  0.00    +0.000 A 
ATOM      5  C   UNL     1       2.234   7.136  19.117  0.00  0.00    +0.000 A 
ATOM      6  C   UNL     1       2.763   6.535  17.993  0.00  0.00    +0.000 A 
ATOM      7  C   UNL     1       1.660   8.462  19.280  0.00  0.00    +0.000 C 
ATOM      8  N   UNL     1       1.600   9.354  18.346  0.00  0.00    +0.000 NA
ATOM      9  C   UNL     1       1.262   8.570  20.753  0.00  0.00    +0.000 C 
ATOM     10  O   UNL     1       0.727   9.529  21.268  0.00  0.00    +0.000 OA
ATOM     11  N   UNL     1       1.660   7.378  21.325  0.00  0.00    +0.000 N 
ATOM     12  H   UNL     1       1.543   7.171  22.307  0.00  0.00    +0.000 HD
ENDROOT
BRANCH   1  16
ATOM     13  C   UNL     1       5.934   4.313  15.459  0.00  0.00    +0.000 C 
ATOM     14  N   UNL     1       5.342   5.097  16.530  0.00  0.00    +0.000 N 
ATOM     15  C   UNL     1       6.174   6.145  17.111  0.00  0.00    +0.000 C 
ATOM     16  C   UNL     1       4.131   4.621  17.055  0.00  0.00    +0.000 C 
ATOM     17  O   UNL     1       3.604   3.590  16.637  0.00  0.00    +0.000 OA
ENDBRANCH   1  16
BRANCH   8  18
ATOM     18  N   UNL     1       1.126  10.572  18.694  0.00  0.00    +0.000 N 
ATOM     19  H   UNL     1       1.730  11.303  19.079  0.00  0.00    +0.000 HD
BRANCH  18  20
ATOM     20  C   UNL     1      -0.244  10.845  18.568  0.00  0.00    +0.000 A 
ATOM     21  C   UNL     1      -1.075  10.081  17.734  0.00  0.00    +0.000 A 
ATOM     22  C   UNL     1      -2.443  10.338  17.642  0.00  0.00    +0.000 A 
ATOM     23  C   UNL     1      -2.993  11.374  18.394  0.00  0.00    +0.000 A 
ATOM     24  C   UNL     1      -2.184  12.177  19.201  0.00  0.00    +0.000 A 
ATOM     25  C   UNL     1      -0.815  11.906  19.286  0.00  0.00    +0.000 A 
BRANCH  23  26
ATOM     26  S   UNL     1      -4.734  11.663  18.321  0.00  0.00    +0.000 S 
ATOM     27  O   UNL     1      -5.431  10.402  18.345  0.00  0.00    +0.000 OA
ATOM     28  O   UNL     1      -5.077  12.761  19.195  0.00  0.00    +0.000 OA
BRANCH  26  29
ATOM     29  N   UNL     1      -4.896  12.254  16.756  0.00  0.00    +0.000 NA
ATOM     30  H   UNL     1      -4.057  12.768  16.486  0.00  0.00    +0.000 HD
ATOM     31  H   UNL     1      -5.155  11.502  16.118  0.00  0.00    +0.000 HD
ENDBRANCH  26  29
ENDBRANCH  23  26
ENDBRANCH  18  20
ENDBRANCH   8  18
TORSDOF 5
ENDMDL
MODEL 8
REMARK VINA RESULT:      -7.5      2.312      3.434
REMARK  Name = 
REMARK  7 active torsions:
REMARK  status: ('A' for Active; 'I' for Inactive)
REMARK    1  A    between atoms: C_1  and  N_2
REMARK    2  A    between atoms: N_2  and  C_3
REMARK    3  A    between atoms: C_4  and  C_6
REMARK    4  A    between atoms: N_13  and  N_14
REMARK    5  A    between atoms: N_14  and  C_15
REMARK    6  A    between atoms: C_18  and  S_19
REMARK    7  A    between atoms: S_19  and  N_20
REMARK                            x       y       z     vdW  Elec       q    Type
REMARK                         _______ _______ _______ _____ _____    ______ ____
ROOT
ATOM      1  C   UNL     1       3.900   6.369  17.744  0.00  0.00    +0.000 A 
ATOM      2  C   UNL     1       3.928   5.488  18.859  0.00  0.00    +0.000 A 
ATOM      3  C   UNL     1       3.160   5.726  20.011  0.00  0.00    +0.000 A 
ATOM      4  C   UNL     1       2.395   6.873  20.032  0.00  0.00    +0.000 A 
ATOM      5  C   UNL     1       2.356   7.719  18.929  0.00  0.00    +0.000 A 
ATOM      6  C   UNL     1       3.047   7.473  17.760  0.00  0.00    +0.000 A 
ATOM      7  C   UNL     1       1.560   8.874  19.315  0.00  0.00    +0.000 C 
ATOM      8  N   UNL     1       1.413   9.936  18.591  0.00  0.00    +0.000 NA
ATOM      9  C   UNL     1       1.057   8.585  20.729  0.00  0.00    +0.000 C 
ATOM     10  O   UNL     1       0.340   9.312  21.383  0.00  0.00    +0.000 OA
ATOM     11  N   UNL     1       1.610   7.366  21.070  0.00  0.00    +0.000 N 
ATOM     12  H   UNL     1       1.467   6.927  21.969  0.00  0.00    +0.000 HD
ENDROOT
BRANCH   1  16
ATOM     13  C   UNL     1       5.830   4.532  14.999  0.00  0.00    +0.000 C 
ATOM     14  N   UNL     1       4.981   4.721  16.164  0.00  0.00    +0.000 N 
ATOM     15  C   UNL     1       4.246   3.553  16.635  0.00  0.00    +0.000 C 
ATOM     16  C   UNL     1       4.771   6.046  16.574  0.00  0.00    +0.000 C 
ATOM     17  O   UNL     1       5.270   6.998  15.973  0.00  0.00    +0.000 OA
ENDBRANCH   1  16
BRANCH   8  18
ATOM     18  N   UNL     1       0.723  10.959  19.143  0.00  0.00    +0.000 N 
ATOM     19  H   UNL     1       1.156  11.626  19.787  0.00  0.00    +0.000 HD
BRANCH  18  20
ATOM     20  C   UNL     1      -0.645  11.101  18.868  0.00  0.00    +0.000 A 
ATOM     21  C   UNL     1      -1.277  10.355  17.860  0.00  0.00    +0.000 A 
ATOM     22  C   UNL     1      -2.644  10.478  17.618  0.00  0.00    +0.000 A 
ATOM     23  C   UNL     1      -3.397  11.359  18.391  0.00  0.00    +0.000 A 
ATOM     24  C   UNL     1      -2.789  12.144  19.373  0.00  0.00    +0.000 A 
ATOM     25  C   UNL     1      -1.417  12.009  19.607  0.00  0.00    +0.000 A 
BRANCH  23  26
ATOM     26  S   UNL     1      -5.139  11.473  18.120  0.00  0.00    +0.000 S 
ATOM     27  O   UNL     1      -5.771  10.249  18.541  0.00  0.00    +0.000 OA
ATOM     28  O   UNL     1      -5.607  12.775  18.536  0.00  0.00    +0.000 OA
BRANCH  26  29
ATOM     29  N   UNL     1      -5.204  11.476  16.441  0.00  0.00    +0.000 NA
ATOM     30  H   UNL     1      -4.300  11.749  16.055  0.00  0.00    +0.000 HD
ATOM     31  H   UNL     1      -5.558  10.584  16.098  0.00  0.00    +0.000 HD
ENDBRANCH  26  29
ENDBRANCH  23  26
ENDBRANCH  18  20
ENDBRANCH   8  18
TORSDOF 5
ENDMDL
MODEL 9
REMARK VINA RESULT:      -7.5      1.134      1.289
REMARK  Name = 
REMARK  7 active torsions:
REMARK  status: ('A' for Active; 'I' for Inactive)
REMARK    1  A    between atoms: C_1  and  N_2
REMARK    2  A    between atoms: N_2  and  C_3
REMARK    3  A    between atoms: C_4  and  C_6
REMARK    4  A    between atoms: N_13  and  N_14
REMARK    5  A    between atoms: N_14  and  C_15
REMARK    6  A    between atoms: C_18  and  S_19
REMARK    7  A    between atoms: S_19  and  N_20
REMARK                            x       y       z     vdW  Elec       q    Type
REMARK                         _______ _______ _______ _____ _____    ______ ____
ROOT
ATOM      1  C   UNL     1       5.135   4.796  16.621  0.00  0.00    +0.000 A 
ATOM      2  C   UNL     1       4.880   3.397  16.590  0.00  0.00    +0.000 A 
ATOM      3  C   UNL     1       3.864   2.812  17.366  0.00  0.00    +0.000 A 
ATOM      4  C   UNL     1       3.140   3.648  18.187  0.00  0.00    +0.000 A 
ATOM      5  C   UNL     1       3.381   5.017  18.197  0.00  0.00    +0.000 A 
ATOM      6  C   UNL     1       4.325   5.626  17.395  0.00  0.00    +0.000 A 
ATOM      7  C   UNL     1       2.540   5.585  19.239  0.00  0.00    +0.000 C 
ATOM      8  N   UNL     1       2.590   6.816  19.631  0.00  0.00    +0.000 NA
ATOM      9  C   UNL     1       1.709   4.424  19.788  0.00  0.00    +0.000 C 
ATOM     10  O   UNL     1       0.872   4.509  20.660  0.00  0.00    +0.000 OA
ATOM     11  N   UNL     1       2.141   3.309  19.096  0.00  0.00    +0.000 N 
ATOM     12  H   UNL     1       1.779   2.380  19.264  0.00  0.00    +0.000 HD
ENDROOT
BRANCH   1  16
ATOM     13  C   UNL     1       7.602   5.421  13.766  0.00  0.00    +0.000 C 
ATOM     14  N   UNL     1       6.503   4.814  14.497  0.00  0.00    +0.000 N 
ATOM     15  C   UNL     1       5.627   3.924  13.743  0.00  0.00    +0.000 C 
ATOM     16  C   UNL     1       6.252   5.321  15.781  0.00  0.00    +0.000 C 
ATOM     17  O   UNL     1       6.922   6.237  16.257  0.00  0.00    +0.000 OA
ENDBRANCH   1  16
BRANCH   8  18
ATOM     18  N   UNL     1       1.809   7.154  20.682  0.00  0.00    +0.000 N 
ATOM     19  H   UNL     1       1.564   6.486  21.418  0.00  0.00    +0.000 HD
BRANCH  18  20
ATOM     20  C   UNL     1       1.273   8.448  20.760  0.00  0.00    +0.000 A 
ATOM     21  C   UNL     1       0.777   8.970  21.966  0.00  0.00    +0.000 A 
ATOM     22  C   UNL     1       0.279  10.269  22.041  0.00  0.00    +0.000 A 
ATOM     23  C   UNL     1       0.274  11.065  20.897  0.00  0.00    +0.000 A 
ATOM     24  C   UNL     1       0.723  10.560  19.676  0.00  0.00    +0.000 A 
ATOM     25  C   UNL     1       1.223   9.255  19.614  0.00  0.00    +0.000 A 
BRANCH  23  26
ATOM     26  S   UNL     1      -0.305  12.731  21.008  0.00  0.00    +0.000 S 
ATOM     27  O   UNL     1      -1.742  12.733  21.104  0.00  0.00    +0.000 OA
ATOM     28  O   UNL     1       0.539  13.474  21.914  0.00  0.00    +0.000 OA
BRANCH  26  29
ATOM     29  N   UNL     1       0.059  13.300  19.469  0.00  0.00    +0.000 NA
ATOM     30  H   UNL     1      -0.641  13.979  19.170  0.00  0.00    +0.000 HD
ATOM     31  H   UNL     1       1.020  13.639  19.434  0.00  0.00    +0.000 HD
ENDBRANCH  26  29
ENDBRANCH  23  26
ENDBRANCH  18  20
ENDBRANCH   8  18
TORSDOF 5
ENDMDL
