MODEL 1
REMARK VINA RESULT:      -8.0      0.000      0.000
REMARK  Name = 
REMARK  12 active torsions:
REMARK  status: ('A' for Active; 'I' for Inactive)
REMARK    1  A    between atoms: C_1  and  C_2
REMARK    2  A    between atoms: C_2  and  C_3
REMARK    3  A    between atoms: C_10  and  S_11
REMARK    4  A    between atoms: S_11  and  N_14
REMARK    5  A    between atoms: N_14  and  C_15
REMARK    6  A    between atoms: C_15  and  C_16
REMARK    7  A    between atoms: C_16  and  C_17
REMARK    8  A    between atoms: C_17  and  N_18
REMARK    9  A    between atoms: N_18  and  C_19
REMARK   10  A    between atoms: N_18  and  C_21
REMARK   11  A    between atoms: C_19  and  C_20
REMARK   12  A    between atoms: C_21  and  C_22
REMARK                            x       y       z     vdW  Elec       q    Type
REMARK                         _______ _______ _______ _____ _____    ______ ____
ROOT
ATOM      1  S   UNL     1       2.151   4.191  20.275  0.00  0.00    +0.000 S 
ATOM      2  O   UNL     1       0.880   4.014  19.615  0.00  0.00    +0.000 OA
ATOM      3  O   UNL     1       2.652   3.253  21.256  0.00  0.00    +0.000 OA
ENDROOT
BRANCH   1  11
ATOM      4  C   UNL     1       6.753   4.875  14.936  0.00  0.00    +0.000 C 
ATOM      5  O   UNL     1       7.816   5.294  14.463  0.00  0.00    +0.000 OA
ATOM      6  N   UNL     1       6.435   5.113  16.259  0.00  0.00    +0.000 N 
ATOM      7  C   UNL     1       7.330   5.968  17.054  0.00  0.00    +0.000 C 
ATOM      8  C   UNL     1       6.809   5.988  18.487  0.00  0.00    +0.000 C 
ATOM      9  C   UNL     1       5.501   5.279  18.344  0.00  0.00    +0.000 A 
ATOM     10  C   UNL     1       4.560   5.097  19.346  0.00  0.00    +0.000 A 
ATOM     11  C   UNL     1       3.409   4.372  19.034  0.00  0.00    +0.000 A 
ATOM     12  C   UNL     1       3.227   3.820  17.758  0.00  0.00    +0.000 A 
ATOM     13  C   UNL     1       4.198   4.008  16.765  0.00  0.00    +0.000 A 
ATOM     14  C   UNL     1       5.331   4.754  17.056  0.00  0.00    +0.000 A 
BRANCH   4  16
ATOM     15  C   UNL     1       6.371   3.734  12.716  0.00  0.00    +0.000 C 
ATOM     16  C   UNL     1       5.780   4.108  14.067  0.00  0.00    +0.000 C 
ENDBRANCH   4  16
ENDBRANCH   1  11
BRANCH   1  17
ATOM     17  N   UNL     1       2.155   5.706  21.009  0.00  0.00    +0.000 NA
ATOM     18  H   UNL     1       2.847   5.779  21.750  0.00  0.00    +0.000 HD
BRANCH  17  19
ATOM     19  C   UNL     1       1.880   6.891  20.184  0.00  0.00    +0.000 C 
BRANCH  19  20
ATOM     20  C   UNL     1       1.321   7.993  21.080  0.00  0.00    +0.000 C 
BRANCH  20  21
ATOM     21  C   UNL     1      -0.145   8.322  20.764  0.00  0.00    +0.000 C 
BRANCH  21  22
ATOM     22  N   UNL     1      -0.489   9.756  20.753  0.00  0.00    +0.000 NA
BRANCH  22  23
ATOM     23  C   UNL     1       0.110  10.517  21.867  0.00  0.00    +0.000 C 
ATOM     24  C   UNL     1      -0.615  10.444  23.211  0.00  0.00    +0.000 C 
ENDBRANCH  22  23
BRANCH  22  25
ATOM     25  C   UNL     1      -0.161  10.388  19.458  0.00  0.00    +0.000 C 
BRANCH  25  26
ATOM     26  C   UNL     1      -1.336  10.509  18.506  0.00  0.00    +0.000 A 
ATOM     27  C   UNL     1      -1.326   9.862  17.262  0.00  0.00    +0.000 A 
ATOM     28  C   UNL     1      -2.409   9.991  16.389  0.00  0.00    +0.000 A 
ATOM     29  C   UNL     1      -3.510  10.769  16.752  0.00  0.00    +0.000 A 
ATOM     30  C   UNL     1      -3.532  11.415  17.985  0.00  0.00    +0.000 A 
ATOM     31  C   UNL     1      -2.451  11.285  18.860  0.00  0.00    +0.000 A 
ENDBRANCH  25  26
ENDBRANCH  22  25
ENDBRANCH  21  22
ENDBRANCH  20  21
ENDBRANCH  19  20
ENDBRANCH  17  19
ENDBRANCH   1  17
TORSDOF 10
ENDMDL
MODEL 2
REMARK VINA RESULT:      -8.0      0.783      1.257
REMARK  Name = 
REMARK  12 active torsions:
REMARK  status: ('A' for Active; 'I' for Inactive)
REMARK    1  A    between atoms: C_1  and  C_2
REMARK    2  A    between atoms: C_2  and  C_3
REMARK    3  A    between atoms: C_10  and  S_11
REMARK    4  A    between atoms: S_11  and  N_14
REMARK    5  A    between atoms: N_14  and  C_15
REMARK    6  A    between atoms: C_15  and  C_16
REMARK    7  A    between atoms: C_16  and  C_17
REMARK    8  A    between atoms: C_17  and  N_18
REMARK    9  A    between atoms: N_18  and  C_19
REMARK   10  A    between atoms: N_18  and  C_21
REMARK   11  A    between atoms: C_19  and  C_20
REMARK   12  A    between atoms: C_21  and  C_22
REMARK                            x       y       z     vdW  Elec       q    Type
REMARK                         _______ _______ _______ _____ _____    ______ ____
ROOT
ATOM      1  S   UNL     1       1.878   4.411  20.520  0.00  0.00    +0.000 S 
ATOM      2  O   UNL     1       0.663   3.985  19.868  0.00  0.00    +0.000 OA
ATOM      3  O   UNL     1       2.424   3.720  21.668  0.00  0.00    +0.000 OA
ENDROOT
BRANCH   1  11
ATOM      4  C   UNL     1       6.610   4.819  15.267  0.00  0.00    +0.000 C 
ATOM      5  O   UNL     1       7.724   5.127  14.829  0.00  0.00    +0.000 OA
ATOM      6  N   UNL     1       6.304   5.017  16.600  0.00  0.00    +0.000 N 
ATOM      7  C   UNL     1       7.288   5.703  17.451  0.00  0.00    +0.000 C 
ATOM      8  C   UNL     1       6.752   5.705  18.880  0.00  0.00    +0.000 C 
ATOM      9  C   UNL     1       5.367   5.177  18.684  0.00  0.00    +0.000 A 
ATOM     10  C   UNL     1       4.395   5.057  19.665  0.00  0.00    +0.000 A 
ATOM     11  C   UNL     1       3.167   4.504  19.302  0.00  0.00    +0.000 A 
ATOM     12  C   UNL     1       2.936   4.055  17.994  0.00  0.00    +0.000 A 
ATOM     13  C   UNL     1       3.938   4.176  17.021  0.00  0.00    +0.000 A 
ATOM     14  C   UNL     1       5.151   4.755  17.365  0.00  0.00    +0.000 A 
BRANCH   4  16
ATOM     15  C   UNL     1       6.149   3.725  13.038  0.00  0.00    +0.000 C 
ATOM     16  C   UNL     1       5.561   4.234  14.346  0.00  0.00    +0.000 C 
ENDBRANCH   4  16
ENDBRANCH   1  11
BRANCH   1  17
ATOM     17  N   UNL     1       1.695   6.023  20.969  0.00  0.00    +0.000 NA
ATOM     18  H   UNL     1       1.877   6.177  21.958  0.00  0.00    +0.000 HD
BRANCH  17  19
ATOM     19  C   UNL     1       2.080   7.070  20.012  0.00  0.00    +0.000 C 
BRANCH  19  20
ATOM     20  C   UNL     1       1.552   8.412  20.514  0.00  0.00    +0.000 C 
BRANCH  20  21
ATOM     21  C   UNL     1       0.898   9.242  19.400  0.00  0.00    +0.000 C 
BRANCH  21  22
ATOM     22  N   UNL     1      -0.096  10.235  19.845  0.00  0.00    +0.000 NA
BRANCH  22  23
ATOM     23  C   UNL     1       0.274  10.924  21.097  0.00  0.00    +0.000 C 
ATOM     24  C   UNL     1       0.624  12.408  20.982  0.00  0.00    +0.000 C 
ENDBRANCH  22  23
BRANCH  22  25
ATOM     25  C   UNL     1      -0.401  11.217  18.783  0.00  0.00    +0.000 C 
BRANCH  25  26
ATOM     26  C   UNL     1      -1.753  11.023  18.122  0.00  0.00    +0.000 A 
ATOM     27  C   UNL     1      -2.886  11.708  18.582  0.00  0.00    +0.000 A 
ATOM     28  C   UNL     1      -4.127  11.510  17.973  0.00  0.00    +0.000 A 
ATOM     29  C   UNL     1      -4.246  10.627  16.898  0.00  0.00    +0.000 A 
ATOM     30  C   UNL     1      -3.127   9.943  16.431  0.00  0.00    +0.000 A 
ATOM     31  C   UNL     1      -1.885  10.140  17.038  0.00  0.00    +0.000 A 
ENDBRANCH  25  26
ENDBRANCH  22  25
ENDBRANCH  21  22
ENDBRANCH  20  21
ENDBRANCH  19  20
ENDBRANCH  17  19
ENDBRANCH   1  17
TORSDOF 10
ENDMDL
MODEL 3
REMARK VINA RESULT:      -7.8      0.951      1.020
REMARK  Name = 
REMARK  12 active torsions:
REMARK  status: ('A' for Active; 'I' for Inactive)
REMARK    1  A    between atoms: C_1  and  C_2
REMARK    2  A    between atoms: C_2  and  C_3
REMARK    3  A    between atoms: C_10  and  S_11
REMARK    4  A    between atoms: S_11  and  N_14
REMARK    5  A    between atoms: N_14  and  C_15
REMARK    6  A    between atoms: C_15  and  C_16
REMARK    7  A    between atoms: C_16  and  C_17
REMARK    8  A    between atoms: C_17  and  N_18
REMARK    9  A    between atoms: N_18  and  C_19
REMARK   10  A    between atoms: N_18  and  C_21
REMARK   11  A    between atoms: C_19  and  C_20
REMARK   12  A    between atoms: C_21  and  C_22
REMARK                            x       y       z     vdW  Elec       q    Type
REMARK                         _______ _______ _______ _____ _____    ______ ____
ROOT
ATOM      1  S   UNL     1       2.252   3.048  20.122  0.00  0.00    +0.000 S 
ATOM      2  O   UNL     1       1.406   2.013  19.579  0.00  0.00    +0.000 OA
ATOM      3  O   UNL     1       2.929   2.907  21.393  0.00  0.00    +0.000 OA
ENDROOT
BRANCH   1  11
ATOM      4  C   UNL     1       6.753   4.758  14.930  0.00  0.00    +0.000 C 
ATOM      5  O   UNL     1       7.828   5.220  14.531  0.00  0.00    +0.000 OA
ATOM      6  N   UNL     1       6.483   4.684  16.282  0.00  0.00    +0.000 N 
ATOM      7  C   UNL     1       7.450   5.268  17.224  0.00  0.00    +0.000 C 
ATOM      8  C   UNL     1       6.968   4.967  18.640  0.00  0.00    +0.000 C 
ATOM      9  C   UNL     1       5.615   4.387  18.381  0.00  0.00    +0.000 A 
ATOM     10  C   UNL     1       4.689   4.019  19.345  0.00  0.00    +0.000 A 
ATOM     11  C   UNL     1       3.487   3.456  18.913  0.00  0.00    +0.000 A 
ATOM     12  C   UNL     1       3.239   3.242  17.550  0.00  0.00    +0.000 A 
ATOM     13  C   UNL     1       4.195   3.613  16.594  0.00  0.00    +0.000 A 
ATOM     14  C   UNL     1       5.379   4.203  17.012  0.00  0.00    +0.000 A 
BRANCH   4  16
ATOM     15  C   UNL     1       6.325   3.567  12.744  0.00  0.00    +0.000 C 
ATOM     16  C   UNL     1       5.712   4.280  13.940  0.00  0.00    +0.000 C 
ENDBRANCH   4  16
ENDBRANCH   1  11
BRANCH   1  17
ATOM     17  N   UNL     1       1.354   4.469  20.208  0.00  0.00    +0.000 NA
ATOM     18  H   UNL     1       0.563   4.393  20.843  0.00  0.00    +0.000 HD
BRANCH  17  19
ATOM     19  C   UNL     1       2.058   5.756  20.111  0.00  0.00    +0.000 C 
BRANCH  19  20
ATOM     20  C   UNL     1       1.470   6.715  21.144  0.00  0.00    +0.000 C 
BRANCH  20  21
ATOM     21  C   UNL     1       1.509   8.177  20.678  0.00  0.00    +0.000 C 
BRANCH  21  22
ATOM     22  N   UNL     1       0.208   8.868  20.637  0.00  0.00    +0.000 NA
BRANCH  22  23
ATOM     23  C   UNL     1      -0.457   8.960  21.951  0.00  0.00    +0.000 C 
ATOM     24  C   UNL     1       0.331   9.644  23.069  0.00  0.00    +0.000 C 
ENDBRANCH  22  23
BRANCH  22  25
ATOM     25  C   UNL     1       0.317  10.206  20.016  0.00  0.00    +0.000 C 
BRANCH  25  26
ATOM     26  C   UNL     1      -0.852  10.579  19.124  0.00  0.00    +0.000 A 
ATOM     27  C   UNL     1      -0.961  10.063  17.825  0.00  0.00    +0.000 A 
ATOM     28  C   UNL     1      -2.035  10.424  17.009  0.00  0.00    +0.000 A 
ATOM     29  C   UNL     1      -3.009  11.303  17.483  0.00  0.00    +0.000 A 
ATOM     30  C   UNL     1      -2.913  11.821  18.773  0.00  0.00    +0.000 A 
ATOM     31  C   UNL     1      -1.841  11.460  19.591  0.00  0.00    +0.000 A 
ENDBRANCH  25  26
ENDBRANCH  22  25
ENDBRANCH  21  22
ENDBRANCH  20  21
ENDBRANCH  19  20
ENDBRANCH  17  19
ENDBRANCH   1  17
TORSDOF 10
ENDMDL
MODEL 4
REMARK VINA RESULT:      -7.7      5.148      8.462
REMARK  Name = 
REMARK  12 active torsions:
REMARK  status: ('A' for Active; 'I' for Inactive)
REMARK    1  A    between atoms: C_1  and  C_2
REMARK    2  A    between atoms: C_2  and  C_3
REMARK    3  A    between atoms: C_10  and  S_11
REMARK    4  A    between atoms: S_11  and  N_14
REMARK    5  A    between atoms: N_14  and  C_15
REMARK    6  A    between atoms: C_15  and  C_16
REMARK    7  A    between atoms: C_16  and  C_17
REMARK    8  A    between atoms: C_17  and  N_18
REMARK    9  A    between atoms: N_18  and  C_19
REMARK   10  A    between atoms: N_18  and  C_21
REMARK   11  A    between atoms: C_19  and  C_20
REMARK   12  A    between atoms: C_21  and  C_22
REMARK                            x       y       z     vdW  Elec       q    Type
REMARK                         _______ _______ _______ _____ _____    ______ ____
ROOT
ATOM      1  S   UNL     1       7.188   5.548  16.293  0.00  0.00    +0.000 S 
ATOM      2  O   UNL     1       8.024   4.520  16.864  0.00  0.00    +0.000 OA
ATOM      3  O   UNL     1       6.767   5.525  14.909  0.00  0.00    +0.000 OA
ENDROOT
BRANCH   1  11
ATOM      4  C   UNL     1       1.612   5.835  20.650  0.00  0.00    +0.000 C 
ATOM      5  O   UNL     1       0.588   6.385  21.071  0.00  0.00    +0.000 OA
ATOM      6  N   UNL     1       2.319   6.384  19.598  0.00  0.00    +0.000 N 
ATOM      7  C   UNL     1       1.889   7.687  19.068  0.00  0.00    +0.000 C 
ATOM      8  C   UNL     1       2.763   8.015  17.862  0.00  0.00    +0.000 C 
ATOM      9  C   UNL     1       3.787   6.927  17.926  0.00  0.00    +0.000 A 
ATOM     10  C   UNL     1       4.893   6.801  17.100  0.00  0.00    +0.000 A 
ATOM     11  C   UNL     1       5.721   5.693  17.285  0.00  0.00    +0.000 A 
ATOM     12  C   UNL     1       5.424   4.723  18.253  0.00  0.00    +0.000 A 
ATOM     13  C   UNL     1       4.293   4.867  19.068  0.00  0.00    +0.000 A 
ATOM     14  C   UNL     1       3.482   5.982  18.914  0.00  0.00    +0.000 A 
BRANCH   4  16
ATOM     15  C   UNL     1       1.300   3.341  20.894  0.00  0.00    +0.000 C 
ATOM     16  C   UNL     1       2.115   4.561  21.295  0.00  0.00    +0.000 C 
ENDBRANCH   4  16
ENDBRANCH   1  11
BRANCH   1  17
ATOM     17  N   UNL     1       7.936   7.034  16.546  0.00  0.00    +0.000 NA
ATOM     18  H   UNL     1       7.763   7.693  15.791  0.00  0.00    +0.000 HD
BRANCH  17  19
ATOM     19  C   UNL     1       8.038   7.549  17.919  0.00  0.00    +0.000 C 
BRANCH  19  20
ATOM     20  C   UNL     1       8.219   9.064  17.862  0.00  0.00    +0.000 C 
BRANCH  20  21
ATOM     21  C   UNL     1       9.086   9.597  19.012  0.00  0.00    +0.000 C 
BRANCH  21  22
ATOM     22  N   UNL     1       9.072  11.059  19.197  0.00  0.00    +0.000 NA
BRANCH  22  23
ATOM     23  C   UNL     1       9.876  11.519  20.346  0.00  0.00    +0.000 C 
ATOM     24  C   UNL     1      11.384  11.637  20.122  0.00  0.00    +0.000 C 
ENDBRANCH  22  23
BRANCH  22  25
ATOM     25  C   UNL     1       9.475  11.770  17.964  0.00  0.00    +0.000 C 
BRANCH  25  26
ATOM     26  C   UNL     1       9.011  13.213  17.895  0.00  0.00    +0.000 A 
ATOM     27  C   UNL     1       7.647  13.529  17.820  0.00  0.00    +0.000 A 
ATOM     28  C   UNL     1       7.233  14.861  17.744  0.00  0.00    +0.000 A 
ATOM     29  C   UNL     1       8.178  15.888  17.743  0.00  0.00    +0.000 A 
ATOM     30  C   UNL     1       9.535  15.586  17.819  0.00  0.00    +0.000 A 
ATOM     31  C   UNL     1       9.951  14.255  17.897  0.00  0.00    +0.000 A 
ENDBRANCH  25  26
ENDBRANCH  22  25
ENDBRANCH  21  22
ENDBRANCH  20  21
ENDBRANCH  19  20
ENDBRANCH  17  19
ENDBRANCH   1  17
TORSDOF 10
ENDMDL
MODEL 5
REMARK VINA RESULT:      -7.6      1.870      2.563
REMARK  Name = 
REMARK  12 active torsions:
REMARK  status: ('A' for Active; 'I' for Inactive)
REMARK    1  A    between atoms: C_1  and  C_2
REMARK    2  A    between atoms: C_2  and  C_3
REMARK    3  A    between atoms: C_10  and  S_11
REMARK    4  A    between atoms: S_11  and  N_14
REMARK    5  A    between atoms: N_14  and  C_15
REMARK    6  A    between atoms: C_15  and  C_16
REMARK    7  A    between atoms: C_16  and  C_17
REMARK    8  A    between atoms: C_17  and  N_18
REMARK    9  A    between atoms: N_18  and  C_19
REMARK   10  A    between atoms: N_18  and  C_21
REMARK   11  A    between atoms: C_19  and  C_20
REMARK   12  A    between atoms: C_21  and  C_22
REMARK                            x       y       z     vdW  Elec       q    Type
REMARK                         _______ _______ _______ _____ _____    ______ ____
ROOT
ATOM      1  S   UNL     1       2.434   3.057  20.538  0.00  0.00    +0.000 S 
ATOM      2  O   UNL     1       1.333   2.362  19.916  0.00  0.00    +0.000 OA
ATOM      3  O   UNL     1       3.194   2.485  21.628  0.00  0.00    +0.000 OA
ENDROOT
BRANCH   1  11
ATOM      4  C   UNL     1       6.622   4.906  15.135  0.00  0.00    +0.000 C 
ATOM      5  O   UNL     1       7.635   5.452  14.682  0.00  0.00    +0.000 OA
ATOM      6  N   UNL     1       6.390   4.885  16.497  0.00  0.00    +0.000 N 
ATOM      7  C   UNL     1       7.312   5.620  17.377  0.00  0.00    +0.000 C 
ATOM      8  C   UNL     1       6.893   5.356  18.820  0.00  0.00    +0.000 C 
ATOM      9  C   UNL     1       5.602   4.627  18.632  0.00  0.00    +0.000 A 
ATOM     10  C   UNL     1       4.740   4.224  19.641  0.00  0.00    +0.000 A 
ATOM     11  C   UNL     1       3.594   3.517  19.274  0.00  0.00    +0.000 A 
ATOM     12  C   UNL     1       3.340   3.198  17.933  0.00  0.00    +0.000 A 
ATOM     13  C   UNL     1       4.232   3.607  16.932  0.00  0.00    +0.000 A 
ATOM     14  C   UNL     1       5.358   4.338  17.283  0.00  0.00    +0.000 A 
BRANCH   4  16
ATOM     15  C   UNL     1       6.264   3.659  12.969  0.00  0.00    +0.000 C 
ATOM     16  C   UNL     1       5.615   4.267  14.203  0.00  0.00    +0.000 C 
ENDBRANCH   4  16
ENDBRANCH   1  11
BRANCH   1  17
ATOM     17  N   UNL     1       1.876   4.553  21.071  0.00  0.00    +0.000 NA
ATOM     18  H   UNL     1       2.261   4.814  21.976  0.00  0.00    +0.000 HD
BRANCH  17  19
ATOM     19  C   UNL     1       1.633   5.610  20.079  0.00  0.00    +0.000 C 
BRANCH  19  20
ATOM     20  C   UNL     1       2.142   6.936  20.639  0.00  0.00    +0.000 C 
BRANCH  20  21
ATOM     21  C   UNL     1       1.453   8.149  19.999  0.00  0.00    +0.000 C 
BRANCH  21  22
ATOM     22  N   UNL     1       0.480   8.854  20.852  0.00  0.00    +0.000 NA
BRANCH  22  23
ATOM     23  C   UNL     1       1.041   9.310  22.139  0.00  0.00    +0.000 C 
ATOM     24  C   UNL     1       0.049   9.501  23.287  0.00  0.00    +0.000 C 
ENDBRANCH  22  23
BRANCH  22  25
ATOM     25  C   UNL     1      -0.161   9.979  20.138  0.00  0.00    +0.000 C 
BRANCH  25  26
ATOM     26  C   UNL     1       0.771  11.137  19.832  0.00  0.00    +0.000 A 
ATOM     27  C   UNL     1       0.928  12.196  20.737  0.00  0.00    +0.000 A 
ATOM     28  C   UNL     1       1.779  13.262  20.438  0.00  0.00    +0.000 A 
ATOM     29  C   UNL     1       2.481  13.279  19.232  0.00  0.00    +0.000 A 
ATOM     30  C   UNL     1       2.335  12.231  18.325  0.00  0.00    +0.000 A 
ATOM     31  C   UNL     1       1.486  11.164  18.624  0.00  0.00    +0.000 A 
ENDBRANCH  25  26
ENDBRANCH  22  25
ENDBRANCH  21  22
ENDBRANCH  20  21
ENDBRANCH  19  20
ENDBRANCH  17  19
ENDBRANCH   1  17
TORSDOF 10
ENDMDL
MODEL 6
REMARK VINA RESULT:      -7.5      1.565      2.595
REMARK  Name = 
REMARK  12 active torsions:
REMARK  status: ('A' for Active; 'I' for Inactive)
REMARK    1  A    between atoms: C_1  and  C_2
REMARK    2  A    between atoms: C_2  and  C_3
REMARK    3  A    between atoms: C_10  and  S_11
REMARK    4  A    between atoms: S_11  and  N_14
REMARK    5  A    between atoms: N_14  and  C_15
REMARK    6  A    between atoms: C_15  and  C_16
REMARK    7  A    between atoms: C_16  and  C_17
REMARK    8  A    between atoms: C_17  and  N_18
REMARK    9  A    between atoms: N_18  and  C_19
REMARK   10  A    between atoms: N_18  and  C_21
REMARK   11  A    between atoms: C_19  and  C_20
REMARK   12  A    between atoms: C_21  and  C_22
REMARK                            x       y       z     vdW  Elec       q    Type
REMARK                         _______ _______ _______ _____ _____    ______ ____
ROOT
ATOM      1  S   UNL     1       2.450   3.535  20.511  0.00  0.00    +0.000 S 
ATOM      2  O   UNL     1       1.220   3.068  19.919  0.00  0.00    +0.000 OA
ATOM      3  O   UNL     1       3.152   2.786  21.530  0.00  0.00    +0.000 OA
ENDROOT
BRANCH   1  11
ATOM      4  C   UNL     1       6.641   4.838  14.953  0.00  0.00    +0.000 C 
ATOM      5  O   UNL     1       7.664   5.319  14.452  0.00  0.00    +0.000 OA
ATOM      6  N   UNL     1       6.420   4.931  16.314  0.00  0.00    +0.000 N 
ATOM      7  C   UNL     1       7.368   5.707  17.127  0.00  0.00    +0.000 C 
ATOM      8  C   UNL     1       6.955   5.569  18.589  0.00  0.00    +0.000 C 
ATOM      9  C   UNL     1       5.643   4.863  18.467  0.00  0.00    +0.000 A 
ATOM     10  C   UNL     1       4.779   4.564  19.510  0.00  0.00    +0.000 A 
ATOM     11  C   UNL     1       3.612   3.862  19.207  0.00  0.00    +0.000 A 
ATOM     12  C   UNL     1       3.338   3.446  17.897  0.00  0.00    +0.000 A 
ATOM     13  C   UNL     1       4.232   3.750  16.861  0.00  0.00    +0.000 A 
ATOM     14  C   UNL     1       5.380   4.476  17.146  0.00  0.00    +0.000 A 
BRANCH   4  16
ATOM     15  C   UNL     1       6.213   3.562  12.816  0.00  0.00    +0.000 C 
ATOM     16  C   UNL     1       5.610   4.156  14.080  0.00  0.00    +0.000 C 
ENDBRANCH   4  16
ENDBRANCH   1  11
BRANCH   1  17
ATOM     17  N   UNL     1       2.180   5.072  21.140  0.00  0.00    +0.000 NA
ATOM     18  H   UNL     1       3.005   5.461  21.591  0.00  0.00    +0.000 HD
BRANCH  17  19
ATOM     19  C   UNL     1       1.277   5.982  20.420  0.00  0.00    +0.000 C 
BRANCH  19  20
ATOM     20  C   UNL     1       1.533   7.408  20.900  0.00  0.00    +0.000 C 
BRANCH  20  21
ATOM     21  C   UNL     1       1.833   8.373  19.744  0.00  0.00    +0.000 C 
BRANCH  21  22
ATOM     22  N   UNL     1       1.106   9.655  19.779  0.00  0.00    +0.000 NA
BRANCH  22  23
ATOM     23  C   UNL     1       1.062  10.347  18.475  0.00  0.00    +0.000 C 
ATOM     24  C   UNL     1       2.221  11.294  18.165  0.00  0.00    +0.000 C 
ENDBRANCH  22  23
BRANCH  22  25
ATOM     25  C   UNL     1      -0.258   9.497  20.328  0.00  0.00    +0.000 C 
BRANCH  25  26
ATOM     26  C   UNL     1      -0.800  10.733  21.021  0.00  0.00    +0.000 A 
ATOM     27  C   UNL     1      -0.692  10.886  22.411  0.00  0.00    +0.000 A 
ATOM     28  C   UNL     1      -1.207  12.023  23.038  0.00  0.00    +0.000 A 
ATOM     29  C   UNL     1      -1.833  13.016  22.283  0.00  0.00    +0.000 A 
ATOM     30  C   UNL     1      -1.944  12.875  20.902  0.00  0.00    +0.000 A 
ATOM     31  C   UNL     1      -1.429  11.740  20.273  0.00  0.00    +0.000 A 
ENDBRANCH  25  26
ENDBRANCH  22  25
ENDBRANCH  21  22
ENDBRANCH  20  21
ENDBRANCH  19  20
ENDBRANCH  17  19
ENDBRANCH   1  17
TORSDOF 10
ENDMDL
MODEL 7
REMARK VINA RESULT:      -7.5      2.662      8.625
REMARK  Name = 
REMARK  12 active torsions:
REMARK  status: ('A' for Active; 'I' for Inactive)
REMARK    1  A    between atoms: C_1  and  C_2
REMARK    2  A    between atoms: C_2  and  C_3
REMARK    3  A    between atoms: C_10  and  S_11
REMARK    4  A    between atoms: S_11  and  N_14
REMARK    5  A    between atoms: N_14  and  C_15
REMARK    6  A    between atoms: C_15  and  C_16
REMARK    7  A    between atoms: C_16  and  C_17
REMARK    8  A    between atoms: C_17  and  N_18
REMARK    9  A    between atoms: N_18  and  C_19
REMARK   10  A    between atoms: N_18  and  C_21
REMARK   11  A    between atoms: C_19  and  C_20
REMARK   12  A    between atoms: C_21  and  C_22
REMARK                            x       y       z     vdW  Elec       q    Type
REMARK                         _______ _______ _______ _____ _____    ______ ____
ROOT
ATOM      1  S   UNL     1       2.293   4.556  20.380  0.00  0.00    +0.000 S 
ATOM      2  O   UNL     1       2.559   4.325  21.780  0.00  0.00    +0.000 OA
ATOM      3  O   UNL     1       1.327   3.777  19.637  0.00  0.00    +0.000 OA
ENDROOT
BRANCH   1  11
ATOM      4  C   UNL     1       0.615  11.429  20.082  0.00  0.00    +0.000 C 
ATOM      5  O   UNL     1       0.605  12.522  19.505  0.00  0.00    +0.000 OA
ATOM      6  N   UNL     1       1.166  10.320  19.470  0.00  0.00    +0.000 N 
ATOM      7  C   UNL     1       1.836  10.495  18.173  0.00  0.00    +0.000 C 
ATOM      8  C   UNL     1       2.262   9.117  17.676  0.00  0.00    +0.000 C 
ATOM      9  C   UNL     1       1.967   8.261  18.865  0.00  0.00    +0.000 A 
ATOM     10  C   UNL     1       2.255   6.911  18.988  0.00  0.00    +0.000 A 
ATOM     11  C   UNL     1       1.867   6.266  20.164  0.00  0.00    +0.000 A 
ATOM     12  C   UNL     1       1.181   6.957  21.173  0.00  0.00    +0.000 A 
ATOM     13  C   UNL     1       0.891   8.320  21.021  0.00  0.00    +0.000 A 
ATOM     14  C   UNL     1       1.301   8.976  19.870  0.00  0.00    +0.000 A 
BRANCH   4  16
ATOM     15  C   UNL     1      -0.355  12.637  22.077  0.00  0.00    +0.000 C 
ATOM     16  C   UNL     1       0.037  11.296  21.475  0.00  0.00    +0.000 C 
ENDBRANCH   4  16
ENDBRANCH   1  11
BRANCH   1  17
ATOM     17  N   UNL     1       3.750   4.443  19.545  0.00  0.00    +0.000 NA
ATOM     18  H   UNL     1       4.446   5.105  19.881  0.00  0.00    +0.000 HD
BRANCH  17  19
ATOM     19  C   UNL     1       4.201   3.121  19.086  0.00  0.00    +0.000 C 
BRANCH  19  20
ATOM     20  C   UNL     1       4.289   3.134  17.562  0.00  0.00    +0.000 C 
BRANCH  20  21
ATOM     21  C   UNL     1       3.858   4.479  16.959  0.00  0.00    +0.000 C 
BRANCH  21  22
ATOM     22  N   UNL     1       4.921   5.246  16.287  0.00  0.00    +0.000 NA
BRANCH  22  23
ATOM     23  C   UNL     1       5.350   6.445  17.034  0.00  0.00    +0.000 C 
ATOM     24  C   UNL     1       6.783   6.442  17.567  0.00  0.00    +0.000 C 
ENDBRANCH  22  23
BRANCH  22  25
ATOM     25  C   UNL     1       6.086   4.397  15.958  0.00  0.00    +0.000 C 
BRANCH  25  26
ATOM     26  C   UNL     1       6.435   4.357  14.482  0.00  0.00    +0.000 A 
ATOM     27  C   UNL     1       5.758   3.500  13.604  0.00  0.00    +0.000 A 
ATOM     28  C   UNL     1       6.097   3.464  12.249  0.00  0.00    +0.000 A 
ATOM     29  C   UNL     1       7.115   4.284  11.761  0.00  0.00    +0.000 A 
ATOM     30  C   UNL     1       7.793   5.141  12.624  0.00  0.00    +0.000 A 
ATOM     31  C   UNL     1       7.455   5.180  13.978  0.00  0.00    +0.000 A 
ENDBRANCH  25  26
ENDBRANCH  22  25
ENDBRANCH  21  22
ENDBRANCH  20  21
ENDBRANCH  19  20
ENDBRANCH  17  19
ENDBRANCH   1  17
TORSDOF 10
ENDMDL
MODEL 8
REMARK VINA RESULT:      -7.5      1.252      1.750
REMARK  Name = 
REMARK  12 active torsions:
REMARK  status: ('A' for Active; 'I' for Inactive)
REMARK    1  A    between atoms: C_1  and  C_2
REMARK    2  A    between atoms: C_2  and  C_3
REMARK    3  A    between atoms: C_10  and  S_11
REMARK    4  A    between atoms: S_11  and  N_14
REMARK    5  A    between atoms: N_14  and  C_15
REMARK    6  A    between atoms: C_15  and  C_16
REMARK    7  A    between atoms: C_16  and  C_17
REMARK    8  A    between atoms: C_17  and  N_18
REMARK    9  A    between atoms: N_18  and  C_19
REMARK   10  A    between atoms: N_18  and  C_21
REMARK   11  A    between atoms: C_19  and  C_20
REMARK   12  A    between atoms: C_21  and  C_22
REMARK                            x       y       z     vdW  Elec       q    Type
REMARK                         _______ _______ _______ _____ _____    ______ ____
ROOT
ATOM      1  S   UNL     1       1.898   3.189  19.955  0.00  0.00    +0.000 S 
ATOM      2  O   UNL     1       0.902   2.415  19.255  0.00  0.00    +0.000 OA
ATOM      3  O   UNL     1       2.529   2.721  21.170  0.00  0.00    +0.000 OA
ENDROOT
BRANCH   1  11
ATOM      4  C   UNL     1       6.674   4.876  15.006  0.00  0.00    +0.000 C 
ATOM      5  O   UNL     1       7.757   5.362  14.660  0.00  0.00    +0.000 OA
ATOM      6  N   UNL     1       6.318   4.839  16.340  0.00  0.00    +0.000 N 
ATOM      7  C   UNL     1       7.201   5.488  17.320  0.00  0.00    +0.000 C 
ATOM      8  C   UNL     1       6.637   5.219  18.712  0.00  0.00    +0.000 C 
ATOM      9  C   UNL     1       5.323   4.584  18.387  0.00  0.00    +0.000 A 
ATOM     10  C   UNL     1       4.348   4.217  19.302  0.00  0.00    +0.000 A 
ATOM     11  C   UNL     1       3.196   3.599  18.814  0.00  0.00    +0.000 A 
ATOM     12  C   UNL     1       3.045   3.330  17.447  0.00  0.00    +0.000 A 
ATOM     13  C   UNL     1       4.049   3.701  16.542  0.00  0.00    +0.000 A 
ATOM     14  C   UNL     1       5.184   4.345  17.014  0.00  0.00    +0.000 A 
BRANCH   4  16
ATOM     15  C   UNL     1       6.429   3.600  12.840  0.00  0.00    +0.000 C 
ATOM     16  C   UNL     1       5.716   4.330  13.968  0.00  0.00    +0.000 C 
ENDBRANCH   4  16
ENDBRANCH   1  11
BRANCH   1  17
ATOM     17  N   UNL     1       1.241   4.698  20.303  0.00  0.00    +0.000 NA
ATOM     18  H   UNL     1       0.239   4.658  20.475  0.00  0.00    +0.000 HD
BRANCH  17  19
ATOM     19  C   UNL     1       2.047   5.661  21.068  0.00  0.00    +0.000 C 
BRANCH  19  20
ATOM     20  C   UNL     1       1.733   7.069  20.570  0.00  0.00    +0.000 C 
BRANCH  20  21
ATOM     21  C   UNL     1       0.499   7.675  21.254  0.00  0.00    +0.000 C 
BRANCH  21  22
ATOM     22  N   UNL     1       0.231   9.091  20.947  0.00  0.00    +0.000 NA
BRANCH  22  23
ATOM     23  C   UNL     1       0.540  10.008  22.062  0.00  0.00    +0.000 C 
ATOM     24  C   UNL     1      -0.655  10.639  22.778  0.00  0.00    +0.000 C 
ENDBRANCH  22  23
BRANCH  22  25
ATOM     25  C   UNL     1       0.921   9.525  19.714  0.00  0.00    +0.000 C 
BRANCH  25  26
ATOM     26  C   UNL     1       0.474  10.876  19.189  0.00  0.00    +0.000 A 
ATOM     27  C   UNL     1       1.363  11.959  19.134  0.00  0.00    +0.000 A 
ATOM     28  C   UNL     1       0.935  13.202  18.661  0.00  0.00    +0.000 A 
ATOM     29  C   UNL     1      -0.384  13.373  18.239  0.00  0.00    +0.000 A 
ATOM     30  C   UNL     1      -1.276  12.304  18.288  0.00  0.00    +0.000 A 
ATOM     31  C   UNL     1      -0.849  11.061  18.758  0.00  0.00    +0.000 A 
ENDBRANCH  25  26
ENDBRANCH  22  25
ENDBRANCH  21  22
ENDBRANCH  20  21
ENDBRANCH  19  20
ENDBRANCH  17  19
ENDBRANCH   1  17
TORSDOF 10
ENDMDL
MODEL 9
REMARK VINA RESULT:      -7.5      2.006      3.008
REMARK  Name = 
REMARK  12 active torsions:
REMARK  status: ('A' for Active; 'I' for Inactive)
REMARK    1  A    between atoms: C_1  and  C_2
REMARK    2  A    between atoms: C_2  and  C_3
REMARK    3  A    between atoms: C_10  and  S_11
REMARK    4  A    between atoms: S_11  and  N_14
REMARK    5  A    between atoms: N_14  and  C_15
REMARK    6  A    between atoms: C_15  and  C_16
REMARK    7  A    between atoms: C_16  and  C_17
REMARK    8  A    between atoms: C_17  and  N_18
REMARK    9  A    between atoms: N_18  and  C_19
REMARK   10  A    between atoms: N_18  and  C_21
REMARK   11  A    between atoms: C_19  and  C_20
REMARK   12  A    between atoms: C_21  and  C_22
REMARK                            x       y       z     vdW  Elec       q    Type
REMARK                         _______ _______ _______ _____ _____    ______ ____
ROOT
ATOM      1  S   UNL     1       2.686   2.743  20.614  0.00  0.00    +0.000 S 
ATOM      2  O   UNL     1       1.537   2.124  19.996  0.00  0.00    +0.000 OA
ATOM      3  O   UNL     1       3.479   2.072  21.620  0.00  0.00    +0.000 OA
ENDROOT
BRANCH   1  11
ATOM      4  C   UNL     1       6.684   4.795  15.141  0.00  0.00    +0.000 C 
ATOM      5  O   UNL     1       7.638   5.421  14.666  0.00  0.00    +0.000 OA
ATOM      6  N   UNL     1       6.451   4.803  16.503  0.00  0.00    +0.000 N 
ATOM      7  C   UNL     1       7.292   5.659  17.353  0.00  0.00    +0.000 C 
ATOM      8  C   UNL     1       6.898   5.409  18.806  0.00  0.00    +0.000 C 
ATOM      9  C   UNL     1       5.686   4.548  18.646  0.00  0.00    +0.000 A 
ATOM     10  C   UNL     1       4.866   4.099  19.670  0.00  0.00    +0.000 A 
ATOM     11  C   UNL     1       3.798   3.268  19.332  0.00  0.00    +0.000 A 
ATOM     12  C   UNL     1       3.581   2.875  18.004  0.00  0.00    +0.000 A 
ATOM     13  C   UNL     1       4.430   3.333  16.987  0.00  0.00    +0.000 A 
ATOM     14  C   UNL     1       5.476   4.185  17.309  0.00  0.00    +0.000 A 
BRANCH   4  16
ATOM     15  C   UNL     1       6.359   3.738  12.871  0.00  0.00    +0.000 C 
ATOM     16  C   UNL     1       5.749   4.024  14.234  0.00  0.00    +0.000 C 
ENDBRANCH   4  16
ENDBRANCH   1  11
BRANCH   1  17
ATOM     17  N   UNL     1       2.196   4.207  21.282  0.00  0.00    +0.000 NA
ATOM     18  H   UNL     1       2.909   4.624  21.876  0.00  0.00    +0.000 HD
BRANCH  17  19
ATOM     19  C   UNL     1       1.338   5.096  20.485  0.00  0.00    +0.000 C 
BRANCH  19  20
ATOM     20  C   UNL     1       2.089   6.399  20.224  0.00  0.00    +0.000 C 
BRANCH  20  21
ATOM     21  C   UNL     1       2.093   6.790  18.740  0.00  0.00    +0.000 C 
BRANCH  21  22
ATOM     22  N   UNL     1       2.596   8.142  18.437  0.00  0.00    +0.000 NA
BRANCH  22  23
ATOM     23  C   UNL     1       3.867   8.148  17.687  0.00  0.00    +0.000 C 
ATOM     24  C   UNL     1       3.968   7.182  16.506  0.00  0.00    +0.000 C 
ENDBRANCH  22  23
BRANCH  22  25
ATOM     25  C   UNL     1       1.580   8.961  17.742  0.00  0.00    +0.000 C 
BRANCH  25  26
ATOM     26  C   UNL     1       1.092  10.158  18.536  0.00  0.00    +0.000 A 
ATOM     27  C   UNL     1       1.747  11.396  18.450  0.00  0.00    +0.000 A 
ATOM     28  C   UNL     1       1.296  12.487  19.196  0.00  0.00    +0.000 A 
ATOM     29  C   UNL     1       0.187  12.352  20.033  0.00  0.00    +0.000 A 
ATOM     30  C   UNL     1      -0.471  11.128  20.126  0.00  0.00    +0.000 A 
ATOM     31  C   UNL     1      -0.023  10.037  19.380  0.00  0.00    +0.000 A 
ENDBRANCH  25  26
ENDBRANCH  22  25
ENDBRANCH  21  22
ENDBRANCH  20  21
ENDBRANCH  19  20
ENDBRANCH  17  19
ENDBRANCH   1  17
TORSDOF 10
ENDMDL
