MODEL 1
REMARK VINA RESULT:      -8.4      0.000      0.000
REMARK  Name = 
REMARK  4 active torsions:
REMARK  status: ('A' for Active; 'I' for Inactive)
REMARK    1  A    between atoms: C_2  and  C_3
REMARK    2  A    between atoms: C_6  and  C_7
REMARK    3  A    between atoms: C_25  and  O_26
REMARK    4  A    between atoms: C_27  and  C_28
REMARK                            x       y       z     vdW  Elec       q    Type
REMARK                         _______ _______ _______ _____ _____    ______ ____
ROOT
ATOM      1  O   UNL     1      -0.634   9.898  20.608  0.00  0.00    +0.000 OA
ATOM      2  C   UNL     1       0.316  10.377  19.989  0.00  0.00    +0.000 C 
ATOM      3  N   UNL     1       0.587  11.739  20.038  0.00  0.00    +0.000 N 
ATOM      4  C   UNL     1       1.836  12.341  19.602  0.00  0.00    +0.000 C 
ATOM      5  C   UNL     1       1.845  13.664  20.295  0.00  0.00    +0.000 A 
ATOM      6  C   UNL     1       0.966  13.654  21.367  0.00  0.00    +0.000 A 
ATOM      7  N   UNL     1       0.832  14.686  22.224  0.00  0.00    +0.000 NA
ATOM      8  C   UNL     1       1.435  15.843  21.872  0.00  0.00    +0.000 A 
ATOM      9  C   UNL     1       1.540  16.902  22.762  0.00  0.00    +0.000 A 
ATOM     10  C   UNL     1       1.921  18.177  22.334  0.00  0.00    +0.000 A 
ATOM     11  C   UNL     1       2.176  18.415  20.989  0.00  0.00    +0.000 A 
ATOM     12  C   UNL     1       2.193  17.341  20.103  0.00  0.00    +0.000 A 
ATOM     13  C   UNL     1       1.920  16.029  20.561  0.00  0.00    +0.000 A 
ATOM     14  C   UNL     1       2.113  14.897  19.773  0.00  0.00    +0.000 A 
ATOM     15  C   UNL     1      -0.159  12.768  20.796  0.00  0.00    +0.000 C 
ENDROOT
BRANCH  15  16
ATOM     16  C   UNL     1      -1.511  12.512  21.384  0.00  0.00    +0.000 A 
ATOM     17  C   UNL     1      -1.519  12.140  22.768  0.00  0.00    +0.000 A 
ATOM     18  C   UNL     1      -2.665  12.221  23.540  0.00  0.00    +0.000 A 
ATOM     19  C   UNL     1      -3.785  12.652  22.880  0.00  0.00    +0.000 A 
ATOM     20  C   UNL     1      -3.857  12.759  21.490  0.00  0.00    +0.000 A 
ATOM     21  C   UNL     1      -2.717  12.723  20.712  0.00  0.00    +0.000 A 
ATOM     22  C   UNL     1      -5.242  13.178  21.171  0.00  0.00    +0.000 C 
ATOM     23  C   UNL     1      -5.371  14.063  22.404  0.00  0.00    +0.000 C 
ATOM     24  O   UNL     1      -4.867  13.246  23.501  0.00  0.00    +0.000 OA
ENDBRANCH  15  16
BRANCH   2  25
ATOM     25  C   UNL     1       1.183   9.507  19.176  0.00  0.00    +0.000 A 
ATOM     26  C   UNL     1       1.759   9.582  17.916  0.00  0.00    +0.000 A 
ATOM     27  C   UNL     1       2.524   8.410  17.716  0.00  0.00    +0.000 A 
ATOM     28  C   UNL     1       2.339   7.628  18.832  0.00  0.00    +0.000 A 
ATOM     29  O   UNL     1       1.540   8.291  19.721  0.00  0.00    +0.000 OA
BRANCH  28  30
ATOM     30  C   UNL     1       2.796   6.300  19.213  0.00  0.00    +0.000 A 
ATOM     31  C   UNL     1       2.140   5.532  20.178  0.00  0.00    +0.000 A 
ATOM     32  C   UNL     1       2.608   4.256  20.490  0.00  0.00    +0.000 A 
ATOM     33  C   UNL     1       3.726   3.781  19.825  0.00  0.00    +0.000 A 
ATOM     34  N   UNL     1       4.396   4.486  18.890  0.00  0.00    +0.000 NA
ATOM     35  C   UNL     1       3.914   5.723  18.609  0.00  0.00    +0.000 A 
ENDBRANCH  28  30
ENDBRANCH   2  25
BRANCH  14  36
ATOM     36  O   UNL     1       2.362  14.978  18.439  0.00  0.00    +0.000 OA
ATOM     37  H   UNL     1       1.650  14.471  18.001  0.00  0.00    +0.000 HD
ENDBRANCH  14  36
TORSDOF 4
ENDMDL
MODEL 2
REMARK VINA RESULT:      -7.9      1.776      2.151
REMARK  Name = 
REMARK  4 active torsions:
REMARK  status: ('A' for Active; 'I' for Inactive)
REMARK    1  A    between atoms: C_2  and  C_3
REMARK    2  A    between atoms: C_6  and  C_7
REMARK    3  A    between atoms: C_25  and  O_26
REMARK    4  A    between atoms: C_27  and  C_28
REMARK                            x       y       z     vdW  Elec       q    Type
REMARK                         _______ _______ _______ _____ _____    ______ ____
ROOT
ATOM      1  O   UNL     1      -0.801   9.443  19.245  0.00  0.00    +0.000 OA
ATOM      2  C   UNL     1       0.302   9.882  18.920  0.00  0.00    +0.000 C 
ATOM      3  N   UNL     1       0.527  11.251  18.824  0.00  0.00    +0.000 N 
ATOM      4  C   UNL     1       1.843  11.860  18.752  0.00  0.00    +0.000 C 
ATOM      5  C   UNL     1       1.596  13.274  19.166  0.00  0.00    +0.000 A 
ATOM      6  C   UNL     1       0.395  13.373  19.852  0.00  0.00    +0.000 A 
ATOM      7  N   UNL     1      -0.042  14.516  20.419  0.00  0.00    +0.000 NA
ATOM      8  C   UNL     1       0.637  15.641  20.104  0.00  0.00    +0.000 A 
ATOM      9  C   UNL     1       0.411  16.832  20.779  0.00  0.00    +0.000 A 
ATOM     10  C   UNL     1       0.907  18.047  20.296  0.00  0.00    +0.000 A 
ATOM     11  C   UNL     1       1.618  18.087  19.103  0.00  0.00    +0.000 A 
ATOM     12  C   UNL     1       1.956  16.890  18.477  0.00  0.00    +0.000 A 
ATOM     13  C   UNL     1       1.551  15.651  19.030  0.00  0.00    +0.000 A 
ATOM     14  C   UNL     1       2.020  14.425  18.565  0.00  0.00    +0.000 A 
ATOM     15  C   UNL     1      -0.448  12.333  19.089  0.00  0.00    +0.000 C 
ENDROOT
BRANCH  15  16
ATOM     16  C   UNL     1      -1.918  12.080  19.207  0.00  0.00    +0.000 A 
ATOM     17  C   UNL     1      -2.516  12.498  20.441  0.00  0.00    +0.000 A 
ATOM     18  C   UNL     1      -3.884  12.668  20.570  0.00  0.00    +0.000 A 
ATOM     19  C   UNL     1      -4.616  12.383  19.449  0.00  0.00    +0.000 A 
ATOM     20  C   UNL     1      -4.085  11.726  18.337  0.00  0.00    +0.000 A 
ATOM     21  C   UNL     1      -2.721  11.587  18.176  0.00  0.00    +0.000 A 
ATOM     22  C   UNL     1      -5.203  11.540  17.383  0.00  0.00    +0.000 C 
ATOM     23  C   UNL     1      -5.861  12.869  17.732  0.00  0.00    +0.000 C 
ATOM     24  O   UNL     1      -5.868  12.908  19.188  0.00  0.00    +0.000 OA
ENDBRANCH  15  16
BRANCH   2  25
ATOM     25  C   UNL     1       1.409   8.957  18.620  0.00  0.00    +0.000 A 
ATOM     26  C   UNL     1       2.477   8.945  17.735  0.00  0.00    +0.000 A 
ATOM     27  C   UNL     1       3.214   7.760  17.959  0.00  0.00    +0.000 A 
ATOM     28  C   UNL     1       2.537   7.055  18.926  0.00  0.00    +0.000 A 
ATOM     29  O   UNL     1       1.453   7.779  19.337  0.00  0.00    +0.000 OA
BRANCH  28  30
ATOM     30  C   UNL     1       2.740   5.754  19.547  0.00  0.00    +0.000 A 
ATOM     31  C   UNL     1       1.903   5.267  20.553  0.00  0.00    +0.000 A 
ATOM     32  C   UNL     1       2.129   4.004  21.098  0.00  0.00    +0.000 A 
ATOM     33  C   UNL     1       3.194   3.259  20.619  0.00  0.00    +0.000 A 
ATOM     34  N   UNL     1       4.032   3.687  19.653  0.00  0.00    +0.000 NA
ATOM     35  C   UNL     1       3.784   4.920  19.144  0.00  0.00    +0.000 A 
ENDBRANCH  28  30
ENDBRANCH   2  25
BRANCH  14  36
ATOM     36  O   UNL     1       2.722  14.311  17.406  0.00  0.00    +0.000 OA
ATOM     37  H   UNL     1       2.116  14.596  16.695  0.00  0.00    +0.000 HD
ENDBRANCH  14  36
TORSDOF 4
ENDMDL
MODEL 3
REMARK VINA RESULT:      -7.9      3.096      7.394
REMARK  Name = 
REMARK  4 active torsions:
REMARK  status: ('A' for Active; 'I' for Inactive)
REMARK    1  A    between atoms: C_2  and  C_3
REMARK    2  A    between atoms: C_6  and  C_7
REMARK    3  A    between atoms: C_25  and  O_26
REMARK    4  A    between atoms: C_27  and  C_28
REMARK                            x       y       z     vdW  Elec       q    Type
REMARK                         _______ _______ _______ _____ _____    ______ ____
ROOT
ATOM      1  O   UNL     1      -0.594   9.155  17.458  0.00  0.00    +0.000 OA
ATOM      2  C   UNL     1      -1.119  10.264  17.553  0.00  0.00    +0.000 C 
ATOM      3  N   UNL     1      -0.506  11.285  18.271  0.00  0.00    +0.000 N 
ATOM      4  C   UNL     1      -0.885  12.685  18.187  0.00  0.00    +0.000 C 
ATOM      5  C   UNL     1       0.320  13.403  18.701  0.00  0.00    +0.000 A 
ATOM      6  C   UNL     1       1.433  12.579  18.644  0.00  0.00    +0.000 A 
ATOM      7  N   UNL     1       2.677  12.992  18.963  0.00  0.00    +0.000 NA
ATOM      8  C   UNL     1       2.774  14.198  19.563  0.00  0.00    +0.000 A 
ATOM      9  C   UNL     1       4.004  14.814  19.750  0.00  0.00    +0.000 A 
ATOM     10  C   UNL     1       4.143  15.922  20.590  0.00  0.00    +0.000 A 
ATOM     11  C   UNL     1       3.044  16.415  21.284  0.00  0.00    +0.000 A 
ATOM     12  C   UNL     1       1.783  15.887  21.017  0.00  0.00    +0.000 A 
ATOM     13  C   UNL     1       1.629  14.839  20.077  0.00  0.00    +0.000 A 
ATOM     14  C   UNL     1       0.384  14.407  19.624  0.00  0.00    +0.000 A 
ATOM     15  C   UNL     1       0.791  11.219  18.981  0.00  0.00    +0.000 C 
ENDROOT
BRANCH  15  16
ATOM     16  C   UNL     1       1.484   9.925  19.273  0.00  0.00    +0.000 A 
ATOM     17  C   UNL     1       1.131   9.305  20.516  0.00  0.00    +0.000 A 
ATOM     18  C   UNL     1       1.393   7.969  20.766  0.00  0.00    +0.000 A 
ATOM     19  C   UNL     1       2.034   7.300  19.757  0.00  0.00    +0.000 A 
ATOM     20  C   UNL     1       2.618   7.945  18.665  0.00  0.00    +0.000 A 
ATOM     21  C   UNL     1       2.331   9.265  18.380  0.00  0.00    +0.000 A 
ATOM     22  C   UNL     1       3.268   6.890  17.852  0.00  0.00    +0.000 C 
ATOM     23  C   UNL     1       2.187   5.856  18.138  0.00  0.00    +0.000 C 
ATOM     24  O   UNL     1       1.973   5.931  19.577  0.00  0.00    +0.000 OA
ENDBRANCH  15  16
BRANCH   2  25
ATOM     25  C   UNL     1      -2.416  10.527  16.908  0.00  0.00    +0.000 A 
ATOM     26  C   UNL     1      -2.932  10.388  15.628  0.00  0.00    +0.000 A 
ATOM     27  C   UNL     1      -4.284  10.800  15.655  0.00  0.00    +0.000 A 
ATOM     28  C   UNL     1      -4.532  11.240  16.934  0.00  0.00    +0.000 A 
ATOM     29  O   UNL     1      -3.411  11.067  17.697  0.00  0.00    +0.000 OA
BRANCH  28  30
ATOM     30  C   UNL     1      -5.692  11.834  17.583  0.00  0.00    +0.000 A 
ATOM     31  C   UNL     1      -6.239  11.313  18.758  0.00  0.00    +0.000 A 
ATOM     32  C   UNL     1      -7.338  11.934  19.351  0.00  0.00    +0.000 A 
ATOM     33  C   UNL     1      -7.863  13.065  18.747  0.00  0.00    +0.000 A 
ATOM     34  N   UNL     1      -7.373  13.602  17.611  0.00  0.00    +0.000 NA
ATOM     35  C   UNL     1      -6.303  12.975  17.061  0.00  0.00    +0.000 A 
ENDBRANCH  28  30
ENDBRANCH   2  25
BRANCH  14  36
ATOM     36  O   UNL     1      -0.777  14.800  20.213  0.00  0.00    +0.000 OA
ATOM     37  H   UNL     1      -0.825  15.768  20.092  0.00  0.00    +0.000 HD
ENDBRANCH  14  36
TORSDOF 4
ENDMDL
MODEL 4
REMARK VINA RESULT:      -7.9      3.080      7.417
REMARK  Name = 
REMARK  4 active torsions:
REMARK  status: ('A' for Active; 'I' for Inactive)
REMARK    1  A    between atoms: C_2  and  C_3
REMARK    2  A    between atoms: C_6  and  C_7
REMARK    3  A    between atoms: C_25  and  O_26
REMARK    4  A    between atoms: C_27  and  C_28
REMARK                            x       y       z     vdW  Elec       q    Type
REMARK                         _______ _______ _______ _____ _____    ______ ____
ROOT
ATOM      1  O   UNL     1      -0.978   9.450  18.022  0.00  0.00    +0.000 OA
ATOM      2  C   UNL     1      -1.366  10.616  18.085  0.00  0.00    +0.000 C 
ATOM      3  N   UNL     1      -0.509  11.635  18.485  0.00  0.00    +0.000 N 
ATOM      4  C   UNL     1      -0.777  13.050  18.300  0.00  0.00    +0.000 C 
ATOM      5  C   UNL     1       0.574  13.678  18.403  0.00  0.00    +0.000 A 
ATOM      6  C   UNL     1       1.564  12.729  18.196  0.00  0.00    +0.000 A 
ATOM      7  N   UNL     1       2.878  13.029  18.146  0.00  0.00    +0.000 NA
ATOM      8  C   UNL     1       3.225  14.277  18.530  0.00  0.00    +0.000 A 
ATOM      9  C   UNL     1       4.509  14.762  18.328  0.00  0.00    +0.000 A 
ATOM     10  C   UNL     1       4.948  15.936  18.947  0.00  0.00    +0.000 A 
ATOM     11  C   UNL     1       4.107  16.629  19.809  0.00  0.00    +0.000 A 
ATOM     12  C   UNL     1       2.780  16.224  19.929  0.00  0.00    +0.000 A 
ATOM     13  C   UNL     1       2.305  15.101  19.210  0.00  0.00    +0.000 A 
ATOM     14  C   UNL     1       0.955  14.767  19.135  0.00  0.00    +0.000 A 
ATOM     15  C   UNL     1       0.916  11.500  18.864  0.00  0.00    +0.000 C 
ENDROOT
BRANCH  15  16
ATOM     16  C   UNL     1       1.549  10.177  19.158  0.00  0.00    +0.000 A 
ATOM     17  C   UNL     1       1.216   9.604  20.429  0.00  0.00    +0.000 A 
ATOM     18  C   UNL     1       1.415   8.262  20.701  0.00  0.00    +0.000 A 
ATOM     19  C   UNL     1       1.975   7.537  19.683  0.00  0.00    +0.000 A 
ATOM     20  C   UNL     1       2.546   8.124  18.552  0.00  0.00    +0.000 A 
ATOM     21  C   UNL     1       2.321   9.451  18.248  0.00  0.00    +0.000 A 
ATOM     22  C   UNL     1       3.103   7.018  17.739  0.00  0.00    +0.000 C 
ATOM     23  C   UNL     1       1.981   6.051  18.093  0.00  0.00    +0.000 C 
ATOM     24  O   UNL     1       1.832   6.170  19.538  0.00  0.00    +0.000 OA
ENDBRANCH  15  16
BRANCH   2  25
ATOM     25  C   UNL     1      -2.759  10.953  17.740  0.00  0.00    +0.000 A 
ATOM     26  C   UNL     1      -3.488  11.065  16.566  0.00  0.00    +0.000 A 
ATOM     27  C   UNL     1      -4.817  11.402  16.910  0.00  0.00    +0.000 A 
ATOM     28  C   UNL     1      -4.842  11.550  18.276  0.00  0.00    +0.000 A 
ATOM     29  O   UNL     1      -3.604  11.268  18.783  0.00  0.00    +0.000 OA
BRANCH  28  30
ATOM     30  C   UNL     1      -5.875  11.940  19.225  0.00  0.00    +0.000 A 
ATOM     31  C   UNL     1      -6.736  11.013  19.815  0.00  0.00    +0.000 A 
ATOM     32  C   UNL     1      -7.695  11.438  20.734  0.00  0.00    +0.000 A 
ATOM     33  C   UNL     1      -7.766  12.788  21.038  0.00  0.00    +0.000 A 
ATOM     34  N   UNL     1      -6.960  13.721  20.491  0.00  0.00    +0.000 NA
ATOM     35  C   UNL     1      -6.038  13.274  19.602  0.00  0.00    +0.000 A 
ENDBRANCH  28  30
ENDBRANCH   2  25
BRANCH  14  36
ATOM     36  O   UNL     1       0.018  15.356  19.924  0.00  0.00    +0.000 OA
ATOM     37  H   UNL     1       0.406  16.205  20.213  0.00  0.00    +0.000 HD
ENDBRANCH  14  36
TORSDOF 4
ENDMDL
MODEL 5
REMARK VINA RESULT:      -7.6      6.627     10.371
REMARK  Name = 
REMARK  4 active torsions:
REMARK  status: ('A' for Active; 'I' for Inactive)
REMARK    1  A    between atoms: C_2  and  C_3
REMARK    2  A    between atoms: C_6  and  C_7
REMARK    3  A    between atoms: C_25  and  O_26
REMARK    4  A    between atoms: C_27  and  C_28
REMARK                            x       y       z     vdW  Elec       q    Type
REMARK                         _______ _______ _______ _____ _____    ______ ____
ROOT
ATOM      1  O   UNL     1       7.905  14.500  19.261  0.00  0.00    +0.000 OA
ATOM      2  C   UNL     1       6.947  14.787  19.978  0.00  0.00    +0.000 C 
ATOM      3  N   UNL     1       6.968  14.518  21.342  0.00  0.00    +0.000 N 
ATOM      4  C   UNL     1       6.037  15.085  22.302  0.00  0.00    +0.000 C 
ATOM      5  C   UNL     1       6.743  14.925  23.608  0.00  0.00    +0.000 A 
ATOM      6  C   UNL     1       8.101  14.733  23.403  0.00  0.00    +0.000 A 
ATOM      7  N   UNL     1       8.996  14.645  24.407  0.00  0.00    +0.000 NA
ATOM      8  C   UNL     1       8.491  14.528  25.654  0.00  0.00    +0.000 A 
ATOM      9  C   UNL     1       9.304  14.636  26.774  0.00  0.00    +0.000 A 
ATOM     10  C   UNL     1       8.848  14.262  28.042  0.00  0.00    +0.000 A 
ATOM     11  C   UNL     1       7.570  13.741  28.200  0.00  0.00    +0.000 A 
ATOM     12  C   UNL     1       6.701  13.739  27.111  0.00  0.00    +0.000 A 
ATOM     13  C   UNL     1       7.128  14.226  25.852  0.00  0.00    +0.000 A 
ATOM     14  C   UNL     1       6.256  14.432  24.785  0.00  0.00    +0.000 A 
ATOM     15  C   UNL     1       8.070  13.896  22.109  0.00  0.00    +0.000 C 
ENDROOT
BRANCH  15  16
ATOM     16  C   UNL     1       9.212  13.189  21.448  0.00  0.00    +0.000 A 
ATOM     17  C   UNL     1       8.993  11.802  21.161  0.00  0.00    +0.000 A 
ATOM     18  C   UNL     1       9.777  11.111  20.253  0.00  0.00    +0.000 A 
ATOM     19  C   UNL     1      10.784  11.839  19.677  0.00  0.00    +0.000 A 
ATOM     20  C   UNL     1      11.175  13.098  20.138  0.00  0.00    +0.000 A 
ATOM     21  C   UNL     1      10.381  13.815  21.011  0.00  0.00    +0.000 A 
ATOM     22  C   UNL     1      12.332  13.510  19.308  0.00  0.00    +0.000 C 
ATOM     23  C   UNL     1      11.787  12.864  18.041  0.00  0.00    +0.000 C 
ATOM     24  O   UNL     1      11.358  11.535  18.457  0.00  0.00    +0.000 OA
ENDBRANCH  15  16
BRANCH   2  25
ATOM     25  C   UNL     1       5.751  15.422  19.396  0.00  0.00    +0.000 A 
ATOM     26  C   UNL     1       5.456  16.660  18.846  0.00  0.00    +0.000 A 
ATOM     27  C   UNL     1       4.104  16.642  18.435  0.00  0.00    +0.000 A 
ATOM     28  C   UNL     1       3.598  15.419  18.806  0.00  0.00    +0.000 A 
ATOM     29  O   UNL     1       4.592  14.674  19.377  0.00  0.00    +0.000 OA
BRANCH  28  30
ATOM     30  C   UNL     1       2.277  14.812  18.723  0.00  0.00    +0.000 A 
ATOM     31  C   UNL     1       2.096  13.439  18.542  0.00  0.00    +0.000 A 
ATOM     32  C   UNL     1       0.809  12.906  18.491  0.00  0.00    +0.000 A 
ATOM     33  C   UNL     1      -0.268  13.768  18.623  0.00  0.00    +0.000 A 
ATOM     34  N   UNL     1      -0.144  15.099  18.795  0.00  0.00    +0.000 NA
ATOM     35  C   UNL     1       1.122  15.585  18.841  0.00  0.00    +0.000 A 
ENDBRANCH  28  30
ENDBRANCH   2  25
BRANCH  14  36
ATOM     36  O   UNL     1       4.977  13.971  24.796  0.00  0.00    +0.000 OA
ATOM     37  H   UNL     1       4.634  14.152  25.693  0.00  0.00    +0.000 HD
ENDBRANCH  14  36
TORSDOF 4
ENDMDL
MODEL 6
REMARK VINA RESULT:      -7.5      2.417      3.115
REMARK  Name = 
REMARK  4 active torsions:
REMARK  status: ('A' for Active; 'I' for Inactive)
REMARK    1  A    between atoms: C_2  and  C_3
REMARK    2  A    between atoms: C_6  and  C_7
REMARK    3  A    between atoms: C_25  and  O_26
REMARK    4  A    between atoms: C_27  and  C_28
REMARK                            x       y       z     vdW  Elec       q    Type
REMARK                         _______ _______ _______ _____ _____    ______ ____
ROOT
ATOM      1  O   UNL     1      -1.445   9.671  19.581  0.00  0.00    +0.000 OA
ATOM      2  C   UNL     1      -0.237   9.900  19.533  0.00  0.00    +0.000 C 
ATOM      3  N   UNL     1       0.240  11.146  19.144  0.00  0.00    +0.000 N 
ATOM      4  C   UNL     1       1.605  11.600  19.347  0.00  0.00    +0.000 C 
ATOM      5  C   UNL     1       1.496  13.086  19.248  0.00  0.00    +0.000 A 
ATOM      6  C   UNL     1       0.183  13.488  19.441  0.00  0.00    +0.000 A 
ATOM      7  N   UNL     1      -0.195  14.782  19.492  0.00  0.00    +0.000 NA
ATOM      8  C   UNL     1       0.731  15.694  19.122  0.00  0.00    +0.000 A 
ATOM      9  C   UNL     1       0.527  17.051  19.327  0.00  0.00    +0.000 A 
ATOM     10  C   UNL     1       1.346  18.009  18.721  0.00  0.00    +0.000 A 
ATOM     11  C   UNL     1       2.371  17.614  17.870  0.00  0.00    +0.000 A 
ATOM     12  C   UNL     1       2.665  16.258  17.748  0.00  0.00    +0.000 A 
ATOM     13  C   UNL     1       1.906  15.294  18.455  0.00  0.00    +0.000 A 
ATOM     14  C   UNL     1       2.271  13.952  18.529  0.00  0.00    +0.000 A 
ATOM     15  C   UNL     1      -0.566  12.327  18.759  0.00  0.00    +0.000 C 
ENDROOT
BRANCH  15  16
ATOM     16  C   UNL     1      -2.027  12.237  18.448  0.00  0.00    +0.000 A 
ATOM     17  C   UNL     1      -2.351  11.636  17.187  0.00  0.00    +0.000 A 
ATOM     18  C   UNL     1      -3.620  11.158  16.911  0.00  0.00    +0.000 A 
ATOM     19  C   UNL     1      -4.539  11.326  17.912  0.00  0.00    +0.000 A 
ATOM     20  C   UNL     1      -4.315  12.138  19.025  0.00  0.00    +0.000 A 
ATOM     21  C   UNL     1      -3.047  12.587  19.335  0.00  0.00    +0.000 A 
ATOM     22  C   UNL     1      -5.564  12.115  19.822  0.00  0.00    +0.000 C 
ATOM     23  C   UNL     1      -5.866  10.657  19.501  0.00  0.00    +0.000 C 
ATOM     24  O   UNL     1      -5.671  10.547  18.062  0.00  0.00    +0.000 OA
ENDBRANCH  15  16
BRANCH   2  25
ATOM     25  C   UNL     1       0.730   8.846  19.886  0.00  0.00    +0.000 A 
ATOM     26  C   UNL     1       1.162   8.252  21.062  0.00  0.00    +0.000 A 
ATOM     27  C   UNL     1       2.112   7.261  20.726  0.00  0.00    +0.000 A 
ATOM     28  C   UNL     1       2.280   7.327  19.363  0.00  0.00    +0.000 A 
ATOM     29  O   UNL     1       1.439   8.274  18.850  0.00  0.00    +0.000 OA
BRANCH  28  30
ATOM     30  C   UNL     1       3.145   6.627  18.424  0.00  0.00    +0.000 A 
ATOM     31  C   UNL     1       3.914   7.301  17.473  0.00  0.00    +0.000 A 
ATOM     32  C   UNL     1       4.743   6.583  16.611  0.00  0.00    +0.000 A 
ATOM     33  C   UNL     1       4.777   5.203  16.724  0.00  0.00    +0.000 A 
ATOM     34  N   UNL     1       4.049   4.508  17.622  0.00  0.00    +0.000 NA
ATOM     35  C   UNL     1       3.255   5.236  18.446  0.00  0.00    +0.000 A 
ENDBRANCH  28  30
ENDBRANCH   2  25
BRANCH  14  36
ATOM     36  O   UNL     1       3.251  13.423  17.750  0.00  0.00    +0.000 OA
ATOM     37  H   UNL     1       3.376  12.505  18.060  0.00  0.00    +0.000 HD
ENDBRANCH  14  36
TORSDOF 4
ENDMDL
MODEL 7
REMARK VINA RESULT:      -7.5      6.175      9.823
REMARK  Name = 
REMARK  4 active torsions:
REMARK  status: ('A' for Active; 'I' for Inactive)
REMARK    1  A    between atoms: C_2  and  C_3
REMARK    2  A    between atoms: C_6  and  C_7
REMARK    3  A    between atoms: C_25  and  O_26
REMARK    4  A    between atoms: C_27  and  C_28
REMARK                            x       y       z     vdW  Elec       q    Type
REMARK                         _______ _______ _______ _____ _____    ______ ____
ROOT
ATOM      1  O   UNL     1       6.082  14.881  17.665  0.00  0.00    +0.000 OA
ATOM      2  C   UNL     1       5.440  14.957  18.712  0.00  0.00    +0.000 C 
ATOM      3  N   UNL     1       6.078  14.926  19.947  0.00  0.00    +0.000 N 
ATOM      4  C   UNL     1       5.454  15.311  21.201  0.00  0.00    +0.000 C 
ATOM      5  C   UNL     1       6.615  15.591  22.097  0.00  0.00    +0.000 A 
ATOM      6  C   UNL     1       7.761  15.811  21.347  0.00  0.00    +0.000 A 
ATOM      7  N   UNL     1       8.942  16.171  21.889  0.00  0.00    +0.000 NA
ATOM      8  C   UNL     1       9.034  16.097  23.235  0.00  0.00    +0.000 A 
ATOM      9  C   UNL     1      10.119  16.632  23.915  0.00  0.00    +0.000 A 
ATOM     10  C   UNL     1      10.352  16.336  25.261  0.00  0.00    +0.000 A 
ATOM     11  C   UNL     1       9.507  15.468  25.942  0.00  0.00    +0.000 A 
ATOM     12  C   UNL     1       8.349  15.019  25.313  0.00  0.00    +0.000 A 
ATOM     13  C   UNL     1       8.055  15.413  23.985  0.00  0.00    +0.000 A 
ATOM     14  C   UNL     1       6.829  15.160  23.375  0.00  0.00    +0.000 A 
ATOM     15  C   UNL     1       7.533  14.815  20.193  0.00  0.00    +0.000 C 
ENDROOT
BRANCH  15  16
ATOM     16  C   UNL     1       8.502  14.414  19.125  0.00  0.00    +0.000 A 
ATOM     17  C   UNL     1       9.228  15.490  18.517  0.00  0.00    +0.000 A 
ATOM     18  C   UNL     1      10.388  15.273  17.794  0.00  0.00    +0.000 A 
ATOM     19  C   UNL     1      10.769  13.963  17.682  0.00  0.00    +0.000 A 
ATOM     20  C   UNL     1       9.942  12.894  18.032  0.00  0.00    +0.000 A 
ATOM     21  C   UNL     1       8.804  13.093  18.789  0.00  0.00    +0.000 A 
ATOM     22  C   UNL     1      10.683  11.657  17.692  0.00  0.00    +0.000 C 
ATOM     23  C   UNL     1      12.039  12.239  18.073  0.00  0.00    +0.000 C 
ATOM     24  O   UNL     1      12.068  13.553  17.443  0.00  0.00    +0.000 OA
ENDBRANCH  15  16
BRANCH   2  25
ATOM     25  C   UNL     1       3.972  15.079  18.673  0.00  0.00    +0.000 A 
ATOM     26  C   UNL     1       3.065  16.128  18.678  0.00  0.00    +0.000 A 
ATOM     27  C   UNL     1       1.764  15.579  18.597  0.00  0.00    +0.000 A 
ATOM     28  C   UNL     1       1.915  14.213  18.611  0.00  0.00    +0.000 A 
ATOM     29  O   UNL     1       3.246  13.906  18.645  0.00  0.00    +0.000 OA
BRANCH  28  30
ATOM     30  C   UNL     1       0.976  13.100  18.612  0.00  0.00    +0.000 A 
ATOM     31  C   UNL     1       1.366  11.794  18.918  0.00  0.00    +0.000 A 
ATOM     32  C   UNL     1       0.421  10.769  18.925  0.00  0.00    +0.000 A 
ATOM     33  C   UNL     1      -0.894  11.079  18.622  0.00  0.00    +0.000 A 
ATOM     34  N   UNL     1      -1.317  12.323  18.315  0.00  0.00    +0.000 NA
ATOM     35  C   UNL     1      -0.374  13.297  18.319  0.00  0.00    +0.000 A 
ENDBRANCH  28  30
ENDBRANCH   2  25
BRANCH  14  36
ATOM     36  O   UNL     1       5.907  14.324  23.922  0.00  0.00    +0.000 OA
ATOM     37  H   UNL     1       5.801  13.588  23.288  0.00  0.00    +0.000 HD
ENDBRANCH  14  36
TORSDOF 4
ENDMDL
MODEL 8
REMARK VINA RESULT:      -7.4      2.995      6.068
REMARK  Name = 
REMARK  4 active torsions:
REMARK  status: ('A' for Active; 'I' for Inactive)
REMARK    1  A    between atoms: C_2  and  C_3
REMARK    2  A    between atoms: C_6  and  C_7
REMARK    3  A    between atoms: C_25  and  O_26
REMARK    4  A    between atoms: C_27  and  C_28
REMARK                            x       y       z     vdW  Elec       q    Type
REMARK                         _______ _______ _______ _____ _____    ______ ____
ROOT
ATOM      1  O   UNL     1      -0.413  13.345  23.512  0.00  0.00    +0.000 OA
ATOM      2  C   UNL     1      -1.128  12.616  22.824  0.00  0.00    +0.000 C 
ATOM      3  N   UNL     1      -2.332  13.079  22.305  0.00  0.00    +0.000 N 
ATOM      4  C   UNL     1      -3.078  12.413  21.251  0.00  0.00    +0.000 C 
ATOM      5  C   UNL     1      -3.959  13.492  20.712  0.00  0.00    +0.000 A 
ATOM      6  C   UNL     1      -3.465  14.739  21.065  0.00  0.00    +0.000 A 
ATOM      7  N   UNL     1      -4.010  15.897  20.642  0.00  0.00    +0.000 NA
ATOM      8  C   UNL     1      -5.210  15.808  20.028  0.00  0.00    +0.000 A 
ATOM      9  C   UNL     1      -5.768  16.898  19.373  0.00  0.00    +0.000 A 
ATOM     10  C   UNL     1      -7.105  16.895  18.966  0.00  0.00    +0.000 A 
ATOM     11  C   UNL     1      -7.917  15.801  19.240  0.00  0.00    +0.000 A 
ATOM     12  C   UNL     1      -7.345  14.655  19.786  0.00  0.00    +0.000 A 
ATOM     13  C   UNL     1      -5.963  14.618  20.092  0.00  0.00    +0.000 A 
ATOM     14  C   UNL     1      -5.299  13.448  20.452  0.00  0.00    +0.000 A 
ATOM     15  C   UNL     1      -2.910  14.431  22.470  0.00  0.00    +0.000 C 
ENDROOT
BRANCH  15  16
ATOM     16  C   UNL     1      -2.404  15.404  23.488  0.00  0.00    +0.000 A 
ATOM     17  C   UNL     1      -2.726  15.092  24.850  0.00  0.00    +0.000 A 
ATOM     18  C   UNL     1      -2.048  15.667  25.911  0.00  0.00    +0.000 A 
ATOM     19  C   UNL     1      -1.078  16.569  25.564  0.00  0.00    +0.000 A 
ATOM     20  C   UNL     1      -0.936  17.079  24.273  0.00  0.00    +0.000 A 
ATOM     21  C   UNL     1      -1.573  16.489  23.200  0.00  0.00    +0.000 A 
ATOM     22  C   UNL     1       0.164  18.070  24.329  0.00  0.00    +0.000 C 
ATOM     23  C   UNL     1       0.969  17.275  25.349  0.00  0.00    +0.000 C 
ATOM     24  O   UNL     1       0.000  16.891  26.367  0.00  0.00    +0.000 OA
ENDBRANCH  15  16
BRANCH   2  25
ATOM     25  C   UNL     1      -0.718  11.229  22.542  0.00  0.00    +0.000 A 
ATOM     26  C   UNL     1      -0.818  10.014  23.203  0.00  0.00    +0.000 A 
ATOM     27  C   UNL     1      -0.240   9.021  22.378  0.00  0.00    +0.000 A 
ATOM     28  C   UNL     1       0.252   9.672  21.271  0.00  0.00    +0.000 A 
ATOM     29  O   UNL     1      -0.044  11.003  21.360  0.00  0.00    +0.000 OA
BRANCH  28  30
ATOM     30  C   UNL     1       0.998   9.234  20.099  0.00  0.00    +0.000 A 
ATOM     31  C   UNL     1       1.084  10.005  18.938  0.00  0.00    +0.000 A 
ATOM     32  C   UNL     1       1.830   9.548  17.852  0.00  0.00    +0.000 A 
ATOM     33  C   UNL     1       2.471   8.326  17.958  0.00  0.00    +0.000 A 
ATOM     34  N   UNL     1       2.414   7.544  19.056  0.00  0.00    +0.000 NA
ATOM     35  C   UNL     1       1.681   8.018  20.094  0.00  0.00    +0.000 A 
ENDBRANCH  28  30
ENDBRANCH   2  25
BRANCH  14  36
ATOM     36  O   UNL     1      -5.964  12.302  20.757  0.00  0.00    +0.000 OA
ATOM     37  H   UNL     1      -6.836  12.374  20.320  0.00  0.00    +0.000 HD
ENDBRANCH  14  36
TORSDOF 4
ENDMDL
MODEL 9
REMARK VINA RESULT:      -7.3      2.380      5.570
REMARK  Name = 
REMARK  4 active torsions:
REMARK  status: ('A' for Active; 'I' for Inactive)
REMARK    1  A    between atoms: C_2  and  C_3
REMARK    2  A    between atoms: C_6  and  C_7
REMARK    3  A    between atoms: C_25  and  O_26
REMARK    4  A    between atoms: C_27  and  C_28
REMARK                            x       y       z     vdW  Elec       q    Type
REMARK                         _______ _______ _______ _____ _____    ______ ____
ROOT
ATOM      1  O   UNL     1       2.293  10.709  17.875  0.00  0.00    +0.000 OA
ATOM      2  C   UNL     1       1.849  10.017  18.791  0.00  0.00    +0.000 C 
ATOM      3  N   UNL     1       1.021  10.565  19.764  0.00  0.00    +0.000 N 
ATOM      4  C   UNL     1       0.215   9.784  20.687  0.00  0.00    +0.000 C 
ATOM      5  C   UNL     1      -0.824  10.752  21.147  0.00  0.00    +0.000 A 
ATOM      6  C   UNL     1      -0.919  11.816  20.263  0.00  0.00    +0.000 A 
ATOM      7  N   UNL     1      -1.835  12.798  20.381  0.00  0.00    +0.000 NA
ATOM      8  C   UNL     1      -2.533  12.833  21.538  0.00  0.00    +0.000 A 
ATOM      9  C   UNL     1      -3.635  13.663  21.691  0.00  0.00    +0.000 A 
ATOM     10  C   UNL     1      -4.198  13.900  22.948  0.00  0.00    +0.000 A 
ATOM     11  C   UNL     1      -3.640  13.325  24.083  0.00  0.00    +0.000 A 
ATOM     12  C   UNL     1      -2.612  12.397  23.936  0.00  0.00    +0.000 A 
ATOM     13  C   UNL     1      -2.119  12.070  22.649  0.00  0.00    +0.000 A 
ATOM     14  C   UNL     1      -1.238  11.016  22.422  0.00  0.00    +0.000 A 
ATOM     15  C   UNL     1       0.559  11.968  19.852  0.00  0.00    +0.000 C 
ENDROOT
BRANCH  15  16
ATOM     16  C   UNL     1       1.178  13.071  19.052  0.00  0.00    +0.000 A 
ATOM     17  C   UNL     1       0.296  14.145  18.699  0.00  0.00    +0.000 A 
ATOM     18  C   UNL     1       0.774  15.377  18.289  0.00  0.00    +0.000 A 
ATOM     19  C   UNL     1       2.137  15.482  18.220  0.00  0.00    +0.000 A 
ATOM     20  C   UNL     1       2.992  14.382  18.299  0.00  0.00    +0.000 A 
ATOM     21  C   UNL     1       2.538  13.157  18.746  0.00  0.00    +0.000 A 
ATOM     22  C   UNL     1       4.367  14.901  18.106  0.00  0.00    +0.000 C 
ATOM     23  C   UNL     1       4.092  16.203  18.847  0.00  0.00    +0.000 C 
ATOM     24  O   UNL     1       2.826  16.678  18.305  0.00  0.00    +0.000 OA
ENDBRANCH  15  16
BRANCH   2  25
ATOM     25  C   UNL     1       2.193   8.587  18.873  0.00  0.00    +0.000 A 
ATOM     26  C   UNL     1       1.909   7.548  19.747  0.00  0.00    +0.000 A 
ATOM     27  C   UNL     1       2.528   6.379  19.250  0.00  0.00    +0.000 A 
ATOM     28  C   UNL     1       3.224   6.753  18.125  0.00  0.00    +0.000 A 
ATOM     29  O   UNL     1       3.015   8.082  17.886  0.00  0.00    +0.000 OA
BRANCH  28  30
ATOM     30  C   UNL     1       4.100   6.043  17.204  0.00  0.00    +0.000 A 
ATOM     31  C   UNL     1       4.133   4.648  17.130  0.00  0.00    +0.000 A 
ATOM     32  C   UNL     1       4.975   4.018  16.215  0.00  0.00    +0.000 A 
ATOM     33  C   UNL     1       5.768   4.806  15.396  0.00  0.00    +0.000 A 
ATOM     34  N   UNL     1       5.775   6.154  15.433  0.00  0.00    +0.000 NA
ATOM     35  C   UNL     1       4.943   6.735  16.334  0.00  0.00    +0.000 A 
ENDBRANCH  28  30
ENDBRANCH   2  25
BRANCH  14  36
ATOM     36  O   UNL     1      -0.611  10.365  23.438  0.00  0.00    +0.000 OA
ATOM     37  H   UNL     1      -1.314   9.910  23.940  0.00  0.00    +0.000 HD
ENDBRANCH  14  36
TORSDOF 4
ENDMDL
