MODEL 1
REMARK VINA RESULT:      -8.2      0.000      0.000
REMARK  Name = 
REMARK  7 active torsions:
REMARK  status: ('A' for Active; 'I' for Inactive)
REMARK    1  A    between atoms: C_1  and  C_2
REMARK    2  A    between atoms: C_2  and  N_3
REMARK    3  A    between atoms: C_2  and  C_26
REMARK    4  A    between atoms: N_3  and  C_4
REMARK    5  A    between atoms: C_5  and  C_6
REMARK    6  A    between atoms: N_8  and  C_9
REMARK    7  A    between atoms: C_9  and  C_10
REMARK                            x       y       z     vdW  Elec       q    Type
REMARK                         _______ _______ _______ _____ _____    ______ ____
ROOT
ATOM      1  C   UNL     1      -0.811  10.506  18.910  0.00  0.00    +0.000 A 
ATOM      2  C   UNL     1       0.289   9.745  19.305  0.00  0.00    +0.000 A 
ATOM      3  N   UNL     1       0.578   9.432  20.601  0.00  0.00    +0.000 NA
ATOM      4  C   UNL     1      -0.109  10.058  21.566  0.00  0.00    +0.000 A 
ATOM      5 BR   UNL     1       0.279   9.493  23.348  0.00  0.00    +0.000 Br
ATOM      6  C   UNL     1      -1.001  11.091  21.297  0.00  0.00    +0.000 A 
ATOM      7  C   UNL     1      -1.517  11.973  22.276  0.00  0.00    +0.000 A 
ATOM      8  C   UNL     1      -2.283  13.067  21.906  0.00  0.00    +0.000 A 
ATOM      9  C   UNL     1      -2.590  13.189  20.566  0.00  0.00    +0.000 A 
ATOM     10  N   UNL     1      -2.211  12.309  19.611  0.00  0.00    +0.000 NA
ATOM     11  C   UNL     1      -1.367  11.303  19.942  0.00  0.00    +0.000 A 
ENDROOT
BRANCH   2  12
ATOM     12  C   UNL     1       1.374   9.297  18.372  0.00  0.00    +0.000 C 
ATOM     13  O   UNL     1       1.599   9.944  17.345  0.00  0.00    +0.000 OA
ATOM     14  N   UNL     1       2.114   8.144  18.562  0.00  0.00    +0.000 N 
ATOM     15  H   UNL     1       2.853   8.094  17.874  0.00  0.00    +0.000 HD
BRANCH  14  16
ATOM     16  C   UNL     1       2.245   7.216  19.684  0.00  0.00    +0.000 C 
BRANCH  16  17
ATOM     17  C   UNL     1       1.901   5.780  19.429  0.00  0.00    +0.000 A 
ATOM     18  C   UNL     1       2.050   5.232  18.153  0.00  0.00    +0.000 A 
ATOM     19  C   UNL     1       1.693   3.910  17.919  0.00  0.00    +0.000 A 
ATOM     20  C   UNL     1       1.214   3.127  18.964  0.00  0.00    +0.000 A 
ATOM     21  F   UNL     1       0.872   1.856  18.727  0.00  0.00    +0.000 F 
ATOM     22  C   UNL     1       1.059   3.647  20.241  0.00  0.00    +0.000 A 
ATOM     23  C   UNL     1       1.399   4.977  20.473  0.00  0.00    +0.000 A 
ENDBRANCH  16  17
ENDBRANCH  14  16
ENDBRANCH   2  12
BRANCH   1  24
ATOM     24  N   UNL     1      -1.272  10.690  17.569  0.00  0.00    +0.000 N 
ATOM     25  H   UNL     1      -1.372  11.696  17.409  0.00  0.00    +0.000 HD
BRANCH  24  27
ATOM     26  C   UNL     1      -2.227   9.684  15.490  0.00  0.00    +0.000 C 
ATOM     27  C   UNL     1      -2.374   9.881  17.010  0.00  0.00    +0.000 C 
BRANCH  27  28
ATOM     28  C   UNL     1      -3.700  10.485  17.359  0.00  0.00    +0.000 A 
ATOM     29  C   UNL     1      -4.152  11.619  16.658  0.00  0.00    +0.000 A 
ATOM     30  C   UNL     1      -5.391  12.164  16.948  0.00  0.00    +0.000 A 
ATOM     31  C   UNL     1      -6.186  11.592  17.928  0.00  0.00    +0.000 A 
ATOM     32  C   UNL     1      -5.740  10.463  18.634  0.00  0.00    +0.000 A 
ATOM     33  C   UNL     1      -4.506   9.909  18.346  0.00  0.00    +0.000 A 
ENDBRANCH  27  28
ENDBRANCH  24  27
ENDBRANCH   1  24
TORSDOF 6
ENDMDL
MODEL 2
REMARK VINA RESULT:      -8.1      0.064      1.232
REMARK  Name = 
REMARK  7 active torsions:
REMARK  status: ('A' for Active; 'I' for Inactive)
REMARK    1  A    between atoms: C_1  and  C_2
REMARK    2  A    between atoms: C_2  and  N_3
REMARK    3  A    between atoms: C_2  and  C_26
REMARK    4  A    between atoms: N_3  and  C_4
REMARK    5  A    between atoms: C_5  and  C_6
REMARK    6  A    between atoms: N_8  and  C_9
REMARK    7  A    between atoms: C_9  and  C_10
REMARK                            x       y       z     vdW  Elec       q    Type
REMARK                         _______ _______ _______ _____ _____    ______ ____
ROOT
ATOM      1  C   UNL     1      -0.870  10.535  18.922  0.00  0.00    +0.000 A 
ATOM      2  C   UNL     1       0.234   9.781  19.315  0.00  0.00    +0.000 A 
ATOM      3  N   UNL     1       0.528   9.469  20.611  0.00  0.00    +0.000 NA
ATOM      4  C   UNL     1      -0.161  10.092  21.577  0.00  0.00    +0.000 A 
ATOM      5 BR   UNL     1       0.233   9.529  23.358  0.00  0.00    +0.000 Br
ATOM      6  C   UNL     1      -1.059  11.119  21.309  0.00  0.00    +0.000 A 
ATOM      7  C   UNL     1      -1.579  11.998  22.290  0.00  0.00    +0.000 A 
ATOM      8  C   UNL     1      -2.351  13.088  21.921  0.00  0.00    +0.000 A 
ATOM      9  C   UNL     1      -2.661  13.208  20.582  0.00  0.00    +0.000 A 
ATOM     10  N   UNL     1      -2.279  12.330  19.626  0.00  0.00    +0.000 NA
ATOM     11  C   UNL     1      -1.429  11.329  19.955  0.00  0.00    +0.000 A 
ENDROOT
BRANCH   2  12
ATOM     12  C   UNL     1       1.320   9.339  18.380  0.00  0.00    +0.000 C 
ATOM     13  O   UNL     1       1.543   9.991  17.356  0.00  0.00    +0.000 OA
ATOM     14  N   UNL     1       2.063   8.188  18.566  0.00  0.00    +0.000 N 
ATOM     15  H   UNL     1       2.803   8.142  17.877  0.00  0.00    +0.000 HD
BRANCH  14  16
ATOM     16  C   UNL     1       2.197   7.255  19.684  0.00  0.00    +0.000 C 
BRANCH  16  17
ATOM     17  C   UNL     1       1.843   5.823  19.428  0.00  0.00    +0.000 A 
ATOM     18  C   UNL     1       1.410   5.002  20.471  0.00  0.00    +0.000 A 
ATOM     19  C   UNL     1       1.118   3.665  20.229  0.00  0.00    +0.000 A 
ATOM     20  C   UNL     1       1.232   3.155  18.941  0.00  0.00    +0.000 A 
ATOM     21  F   UNL     1       0.951   1.866  18.720  0.00  0.00    +0.000 F 
ATOM     22  C   UNL     1       1.657   3.950  17.886  0.00  0.00    +0.000 A 
ATOM     23  C   UNL     1       1.967   5.284  18.131  0.00  0.00    +0.000 A 
ENDBRANCH  16  17
ENDBRANCH  14  16
ENDBRANCH   2  12
BRANCH   1  24
ATOM     24  N   UNL     1      -1.335  10.717  17.583  0.00  0.00    +0.000 N 
ATOM     25  H   UNL     1      -1.459  11.722  17.429  0.00  0.00    +0.000 HD
BRANCH  24  27
ATOM     26  C   UNL     1      -2.230   9.652  15.506  0.00  0.00    +0.000 C 
ATOM     27  C   UNL     1      -2.416   9.886  17.017  0.00  0.00    +0.000 C 
BRANCH  27  28
ATOM     28  C   UNL     1      -3.755  10.487  17.318  0.00  0.00    +0.000 A 
ATOM     29  C   UNL     1      -4.552   9.931  18.337  0.00  0.00    +0.000 A 
ATOM     30  C   UNL     1      -5.774  10.500  18.649  0.00  0.00    +0.000 A 
ATOM     31  C   UNL     1      -6.213  11.617  17.957  0.00  0.00    +0.000 A 
ATOM     32  C   UNL     1      -5.426  12.175  16.938  0.00  0.00    +0.000 A 
ATOM     33  C   UNL     1      -4.201  11.616  16.624  0.00  0.00    +0.000 A 
ENDBRANCH  27  28
ENDBRANCH  24  27
ENDBRANCH   1  24
TORSDOF 6
ENDMDL
MODEL 3
REMARK VINA RESULT:      -8.1      4.137      7.686
REMARK  Name = 
REMARK  7 active torsions:
REMARK  status: ('A' for Active; 'I' for Inactive)
REMARK    1  A    between atoms: C_1  and  C_2
REMARK    2  A    between atoms: C_2  and  N_3
REMARK    3  A    between atoms: C_2  and  C_26
REMARK    4  A    between atoms: N_3  and  C_4
REMARK    5  A    between atoms: C_5  and  C_6
REMARK    6  A    between atoms: N_8  and  C_9
REMARK    7  A    between atoms: C_9  and  C_10
REMARK                            x       y       z     vdW  Elec       q    Type
REMARK                         _______ _______ _______ _____ _____    ______ ____
ROOT
ATOM      1  C   UNL     1      -1.505  11.456  19.383  0.00  0.00    +0.000 A 
ATOM      2  C   UNL     1      -2.047  12.415  20.236  0.00  0.00    +0.000 A 
ATOM      3  N   UNL     1      -3.375  12.726  20.295  0.00  0.00    +0.000 NA
ATOM      4  C   UNL     1      -4.176  12.237  19.339  0.00  0.00    +0.000 A 
ATOM      5 BR   UNL     1      -6.033  12.630  19.546  0.00  0.00    +0.000 Br
ATOM      6  C   UNL     1      -3.687  11.541  18.239  0.00  0.00    +0.000 A 
ATOM      7  C   UNL     1      -4.438  11.268  17.070  0.00  0.00    +0.000 A 
ATOM      8  C   UNL     1      -3.834  10.701  15.961  0.00  0.00    +0.000 A 
ATOM      9  C   UNL     1      -2.510  10.333  16.091  0.00  0.00    +0.000 A 
ATOM     10  N   UNL     1      -1.784  10.473  17.224  0.00  0.00    +0.000 NA
ATOM     11  C   UNL     1      -2.328  11.131  18.275  0.00  0.00    +0.000 A 
ENDROOT
BRANCH   2  12
ATOM     12  C   UNL     1      -1.225  13.329  21.095  0.00  0.00    +0.000 C 
ATOM     13  O   UNL     1      -1.141  13.113  22.306  0.00  0.00    +0.000 OA
ATOM     14  N   UNL     1      -0.592  14.461  20.613  0.00  0.00    +0.000 N 
ATOM     15  H   UNL     1      -0.014  14.865  21.338  0.00  0.00    +0.000 HD
BRANCH  14  16
ATOM     16  C   UNL     1      -0.340  14.967  19.264  0.00  0.00    +0.000 C 
BRANCH  16  17
ATOM     17  C   UNL     1       1.084  15.013  18.804  0.00  0.00    +0.000 A 
ATOM     18  C   UNL     1       1.697  16.235  18.517  0.00  0.00    +0.000 A 
ATOM     19  C   UNL     1       3.008  16.263  18.056  0.00  0.00    +0.000 A 
ATOM     20  C   UNL     1       3.715  15.076  17.909  0.00  0.00    +0.000 A 
ATOM     21  F   UNL     1       4.976  15.115  17.462  0.00  0.00    +0.000 F 
ATOM     22  C   UNL     1       3.130  13.849  18.189  0.00  0.00    +0.000 A 
ATOM     23  C   UNL     1       1.812  13.817  18.633  0.00  0.00    +0.000 A 
ENDBRANCH  16  17
ENDBRANCH  14  16
ENDBRANCH   2  12
BRANCH   1  24
ATOM     24  N   UNL     1      -0.169  10.948  19.422  0.00  0.00    +0.000 N 
ATOM     25  H   UNL     1       0.170  10.886  18.459  0.00  0.00    +0.000 HD
BRANCH  24  27
ATOM     26  C   UNL     1       0.738  10.226  21.637  0.00  0.00    +0.000 C 
ATOM     27  C   UNL     1       0.197   9.790  20.263  0.00  0.00    +0.000 C 
BRANCH  27  28
ATOM     28  C   UNL     1       1.170   8.906  19.545  0.00  0.00    +0.000 A 
ATOM     29  C   UNL     1       1.673   7.760  20.190  0.00  0.00    +0.000 A 
ATOM     30  C   UNL     1       2.545   6.916  19.524  0.00  0.00    +0.000 A 
ATOM     31  C   UNL     1       2.922   7.200  18.222  0.00  0.00    +0.000 A 
ATOM     32  C   UNL     1       2.428   8.342  17.573  0.00  0.00    +0.000 A 
ATOM     33  C   UNL     1       1.552   9.188  18.230  0.00  0.00    +0.000 A 
ENDBRANCH  27  28
ENDBRANCH  24  27
ENDBRANCH   1  24
TORSDOF 6
ENDMDL
MODEL 4
REMARK VINA RESULT:      -7.9      4.102      5.312
REMARK  Name = 
REMARK  7 active torsions:
REMARK  status: ('A' for Active; 'I' for Inactive)
REMARK    1  A    between atoms: C_1  and  C_2
REMARK    2  A    between atoms: C_2  and  N_3
REMARK    3  A    between atoms: C_2  and  C_26
REMARK    4  A    between atoms: N_3  and  C_4
REMARK    5  A    between atoms: C_5  and  C_6
REMARK    6  A    between atoms: N_8  and  C_9
REMARK    7  A    between atoms: C_9  and  C_10
REMARK                            x       y       z     vdW  Elec       q    Type
REMARK                         _______ _______ _______ _____ _____    ______ ____
ROOT
ATOM      1  C   UNL     1      -2.020  11.624  19.512  0.00  0.00    +0.000 A 
ATOM      2  C   UNL     1      -1.022  10.655  19.433  0.00  0.00    +0.000 A 
ATOM      3  N   UNL     1      -0.454  10.049  20.517  0.00  0.00    +0.000 NA
ATOM      4  C   UNL     1      -0.716  10.559  21.728  0.00  0.00    +0.000 A 
ATOM      5 BR   UNL     1       0.029   9.598  23.201  0.00  0.00    +0.000 Br
ATOM      6  C   UNL     1      -1.432  11.738  21.903  0.00  0.00    +0.000 A 
ATOM      7  C   UNL     1      -1.481  12.469  23.115  0.00  0.00    +0.000 A 
ATOM      8  C   UNL     1      -2.093  13.710  23.165  0.00  0.00    +0.000 A 
ATOM      9  C   UNL     1      -2.726  14.140  22.017  0.00  0.00    +0.000 A 
ATOM     10  N   UNL     1      -2.801  13.427  20.870  0.00  0.00    +0.000 NA
ATOM     11  C   UNL     1      -2.108  12.267  20.772  0.00  0.00    +0.000 A 
ENDROOT
BRANCH   2  12
ATOM     12  C   UNL     1      -0.341  10.257  18.158  0.00  0.00    +0.000 C 
ATOM     13  O   UNL     1      -0.950   9.570  17.333  0.00  0.00    +0.000 OA
ATOM     14  N   UNL     1       0.975  10.567  17.868  0.00  0.00    +0.000 N 
ATOM     15  H   UNL     1       1.191  10.293  16.918  0.00  0.00    +0.000 HD
BRANCH  14  16
ATOM     16  C   UNL     1       1.954  11.453  18.497  0.00  0.00    +0.000 C 
BRANCH  16  17
ATOM     17  C   UNL     1       1.433  12.694  19.153  0.00  0.00    +0.000 A 
ATOM     18  C   UNL     1       0.673  13.614  18.427  0.00  0.00    +0.000 A 
ATOM     19  C   UNL     1       0.225  14.779  19.036  0.00  0.00    +0.000 A 
ATOM     20  C   UNL     1       0.511  15.014  20.376  0.00  0.00    +0.000 A 
ATOM     21  F   UNL     1       0.077  16.140  20.952  0.00  0.00    +0.000 F 
ATOM     22  C   UNL     1       1.261  14.114  21.120  0.00  0.00    +0.000 A 
ATOM     23  C   UNL     1       1.726  12.955  20.507  0.00  0.00    +0.000 A 
ENDBRANCH  16  17
ENDBRANCH  14  16
ENDBRANCH   2  12
BRANCH   1  24
ATOM     24  N   UNL     1      -2.787  12.137  18.420  0.00  0.00    +0.000 N 
ATOM     25  H   UNL     1      -3.033  13.106  18.639  0.00  0.00    +0.000 HD
BRANCH  24  27
ATOM     26  C   UNL     1      -3.712  11.216  16.288  0.00  0.00    +0.000 C 
ATOM     27  C   UNL     1      -3.885  11.361  17.811  0.00  0.00    +0.000 C 
BRANCH  27  28
ATOM     28  C   UNL     1      -5.211  11.967  18.157  0.00  0.00    +0.000 A 
ATOM     29  C   UNL     1      -5.940  12.653  17.166  0.00  0.00    +0.000 A 
ATOM     30  C   UNL     1      -7.182  13.185  17.465  0.00  0.00    +0.000 A 
ATOM     31  C   UNL     1      -7.708  13.043  18.738  0.00  0.00    +0.000 A 
ATOM     32  C   UNL     1      -6.986  12.364  19.732  0.00  0.00    +0.000 A 
ATOM     33  C   UNL     1      -5.747  11.824  19.441  0.00  0.00    +0.000 A 
ENDBRANCH  27  28
ENDBRANCH  24  27
ENDBRANCH   1  24
TORSDOF 6
ENDMDL
MODEL 5
REMARK VINA RESULT:      -7.9      3.936      6.887
REMARK  Name = 
REMARK  7 active torsions:
REMARK  status: ('A' for Active; 'I' for Inactive)
REMARK    1  A    between atoms: C_1  and  C_2
REMARK    2  A    between atoms: C_2  and  N_3
REMARK    3  A    between atoms: C_2  and  C_26
REMARK    4  A    between atoms: N_3  and  C_4
REMARK    5  A    between atoms: C_5  and  C_6
REMARK    6  A    between atoms: N_8  and  C_9
REMARK    7  A    between atoms: C_9  and  C_10
REMARK                            x       y       z     vdW  Elec       q    Type
REMARK                         _______ _______ _______ _____ _____    ______ ____
ROOT
ATOM      1  C   UNL     1       0.729  12.120  19.230  0.00  0.00    +0.000 A 
ATOM      2  C   UNL     1      -0.328  12.295  20.122  0.00  0.00    +0.000 A 
ATOM      3  N   UNL     1      -0.618  11.439  21.144  0.00  0.00    +0.000 NA
ATOM      4  C   UNL     1       0.014  10.258  21.171  0.00  0.00    +0.000 A 
ATOM      5 BR   UNL     1      -0.366   9.158  22.685  0.00  0.00    +0.000 Br
ATOM      6  C   UNL     1       0.846   9.832  20.141  0.00  0.00    +0.000 A 
ATOM      7  C   UNL     1       1.292   8.499  19.975  0.00  0.00    +0.000 A 
ATOM      8  C   UNL     1       1.995   8.127  18.842  0.00  0.00    +0.000 A 
ATOM      9  C   UNL     1       2.315   9.129  17.949  0.00  0.00    +0.000 A 
ATOM     10  N   UNL     1       2.006  10.435  18.120  0.00  0.00    +0.000 NA
ATOM     11  C   UNL     1       1.219  10.792  19.163  0.00  0.00    +0.000 A 
ENDROOT
BRANCH   2  12
ATOM     12  C   UNL     1      -1.369  13.366  19.985  0.00  0.00    +0.000 C 
ATOM     13  O   UNL     1      -1.042  14.550  20.101  0.00  0.00    +0.000 OA
ATOM     14  N   UNL     1      -2.713  13.101  19.792  0.00  0.00    +0.000 N 
ATOM     15  H   UNL     1      -3.212  13.965  19.624  0.00  0.00    +0.000 HD
BRANCH  14  16
ATOM     16  C   UNL     1      -3.455  11.883  19.471  0.00  0.00    +0.000 C 
BRANCH  16  17
ATOM     17  C   UNL     1      -3.247  11.292  18.110  0.00  0.00    +0.000 A 
ATOM     18  C   UNL     1      -4.093  11.633  17.053  0.00  0.00    +0.000 A 
ATOM     19  C   UNL     1      -3.914  11.052  15.804  0.00  0.00    +0.000 A 
ATOM     20  C   UNL     1      -2.873  10.153  15.602  0.00  0.00    +0.000 A 
ATOM     21  F   UNL     1      -2.711   9.598  14.396  0.00  0.00    +0.000 F 
ATOM     22  C   UNL     1      -2.017   9.799  16.636  0.00  0.00    +0.000 A 
ATOM     23  C   UNL     1      -2.207  10.367  17.892  0.00  0.00    +0.000 A 
ENDBRANCH  16  17
ENDBRANCH  14  16
ENDBRANCH   2  12
BRANCH   1  24
ATOM     24  N   UNL     1       1.199  13.079  18.280  0.00  0.00    +0.000 N 
ATOM     25  H   UNL     1       1.174  12.640  17.356  0.00  0.00    +0.000 HD
BRANCH  24  27
ATOM     26  C   UNL     1       2.828  13.857  20.010  0.00  0.00    +0.000 C 
ATOM     27  C   UNL     1       2.409  13.888  18.528  0.00  0.00    +0.000 C 
BRANCH  27  28
ATOM     28  C   UNL     1       2.211  15.292  18.043  0.00  0.00    +0.000 A 
ATOM     29  C   UNL     1       1.111  16.038  18.508  0.00  0.00    +0.000 A 
ATOM     30  C   UNL     1       0.938  17.348  18.095  0.00  0.00    +0.000 A 
ATOM     31  C   UNL     1       1.848  17.924  17.224  0.00  0.00    +0.000 A 
ATOM     32  C   UNL     1       2.945  17.186  16.754  0.00  0.00    +0.000 A 
ATOM     33  C   UNL     1       3.128  15.879  17.166  0.00  0.00    +0.000 A 
ENDBRANCH  27  28
ENDBRANCH  24  27
ENDBRANCH   1  24
TORSDOF 6
ENDMDL
MODEL 6
REMARK VINA RESULT:      -7.8      1.888      2.754
REMARK  Name = 
REMARK  7 active torsions:
REMARK  status: ('A' for Active; 'I' for Inactive)
REMARK    1  A    between atoms: C_1  and  C_2
REMARK    2  A    between atoms: C_2  and  N_3
REMARK    3  A    between atoms: C_2  and  C_26
REMARK    4  A    between atoms: N_3  and  C_4
REMARK    5  A    between atoms: C_5  and  C_6
REMARK    6  A    between atoms: N_8  and  C_9
REMARK    7  A    between atoms: C_9  and  C_10
REMARK                            x       y       z     vdW  Elec       q    Type
REMARK                         _______ _______ _______ _____ _____    ______ ____
ROOT
ATOM      1  C   UNL     1      -2.237  11.637  19.441  0.00  0.00    +0.000 A 
ATOM      2  C   UNL     1      -1.347  10.592  19.200  0.00  0.00    +0.000 A 
ATOM      3  N   UNL     1      -0.635   9.952  20.173  0.00  0.00    +0.000 NA
ATOM      4  C   UNL     1      -0.628  10.489  21.400  0.00  0.00    +0.000 A 
ATOM      5 BR   UNL     1       0.305   9.484  22.729  0.00  0.00    +0.000 Br
ATOM      6  C   UNL     1      -1.208  11.721  21.679  0.00  0.00    +0.000 A 
ATOM      7  C   UNL     1      -0.975  12.462  22.863  0.00  0.00    +0.000 A 
ATOM      8  C   UNL     1      -1.472  13.748  22.999  0.00  0.00    +0.000 A 
ATOM      9  C   UNL     1      -2.274  14.218  21.979  0.00  0.00    +0.000 A 
ATOM     10  N   UNL     1      -2.614  13.504  20.881  0.00  0.00    +0.000 NA
ATOM     11  C   UNL     1      -2.041  12.293  20.682  0.00  0.00    +0.000 A 
ENDROOT
BRANCH   2  12
ATOM     12  C   UNL     1      -0.949  10.133  17.829  0.00  0.00    +0.000 C 
ATOM     13  O   UNL     1      -1.793  10.098  16.930  0.00  0.00    +0.000 OA
ATOM     14  N   UNL     1       0.320   9.679  17.517  0.00  0.00    +0.000 N 
ATOM     15  H   UNL     1       0.393   9.522  16.521  0.00  0.00    +0.000 HD
BRANCH  14  16
ATOM     16  C   UNL     1       1.593   9.697  18.238  0.00  0.00    +0.000 C 
BRANCH  16  17
ATOM     17  C   UNL     1       2.247   8.376  18.505  0.00  0.00    +0.000 A 
ATOM     18  C   UNL     1       3.155   7.837  17.591  0.00  0.00    +0.000 A 
ATOM     19  C   UNL     1       3.728   6.595  17.831  0.00  0.00    +0.000 A 
ATOM     20  C   UNL     1       3.417   5.903  18.997  0.00  0.00    +0.000 A 
ATOM     21  F   UNL     1       3.973   4.706  19.217  0.00  0.00    +0.000 F 
ATOM     22  C   UNL     1       2.520   6.418  19.922  0.00  0.00    +0.000 A 
ATOM     23  C   UNL     1       1.931   7.654  19.674  0.00  0.00    +0.000 A 
ENDBRANCH  16  17
ENDBRANCH  14  16
ENDBRANCH   2  12
BRANCH   1  24
ATOM     24  N   UNL     1      -3.154  12.200  18.499  0.00  0.00    +0.000 N 
ATOM     25  H   UNL     1      -3.278  13.187  18.737  0.00  0.00    +0.000 HD
BRANCH  24  27
ATOM     26  C   UNL     1      -4.784  11.761  16.655  0.00  0.00    +0.000 C 
ATOM     27  C   UNL     1      -4.405  11.510  18.127  0.00  0.00    +0.000 C 
BRANCH  27  28
ATOM     28  C   UNL     1      -5.516  11.900  19.053  0.00  0.00    +0.000 A 
ATOM     29  C   UNL     1      -6.422  10.920  19.502  0.00  0.00    +0.000 A 
ATOM     30  C   UNL     1      -7.430  11.261  20.387  0.00  0.00    +0.000 A 
ATOM     31  C   UNL     1      -7.548  12.568  20.830  0.00  0.00    +0.000 A 
ATOM     32  C   UNL     1      -6.652  13.552  20.384  0.00  0.00    +0.000 A 
ATOM     33  C   UNL     1      -5.638  13.218  19.504  0.00  0.00    +0.000 A 
ENDBRANCH  27  28
ENDBRANCH  24  27
ENDBRANCH   1  24
TORSDOF 6
ENDMDL
MODEL 7
REMARK VINA RESULT:      -7.8      3.738      8.073
REMARK  Name = 
REMARK  7 active torsions:
REMARK  status: ('A' for Active; 'I' for Inactive)
REMARK    1  A    between atoms: C_1  and  C_2
REMARK    2  A    between atoms: C_2  and  N_3
REMARK    3  A    between atoms: C_2  and  C_26
REMARK    4  A    between atoms: N_3  and  C_4
REMARK    5  A    between atoms: C_5  and  C_6
REMARK    6  A    between atoms: N_8  and  C_9
REMARK    7  A    between atoms: C_9  and  C_10
REMARK                            x       y       z     vdW  Elec       q    Type
REMARK                         _______ _______ _______ _____ _____    ______ ____
ROOT
ATOM      1  C   UNL     1      -1.166  11.266  19.229  0.00  0.00    +0.000 A 
ATOM      2  C   UNL     1      -1.570  12.340  20.020  0.00  0.00    +0.000 A 
ATOM      3  N   UNL     1      -2.863  12.764  20.136  0.00  0.00    +0.000 NA
ATOM      4  C   UNL     1      -3.766  12.258  19.285  0.00  0.00    +0.000 A 
ATOM      5 BR   UNL     1      -5.569  12.819  19.574  0.00  0.00    +0.000 Br
ATOM      6  C   UNL     1      -3.413  11.427  18.228  0.00  0.00    +0.000 A 
ATOM      7  C   UNL     1      -4.266  11.113  17.142  0.00  0.00    +0.000 A 
ATOM      8  C   UNL     1      -3.788  10.400  16.055  0.00  0.00    +0.000 A 
ATOM      9  C   UNL     1      -2.491   9.938  16.133  0.00  0.00    +0.000 A 
ATOM     10  N   UNL     1      -1.676  10.119  17.198  0.00  0.00    +0.000 NA
ATOM     11  C   UNL     1      -2.090  10.912  18.214  0.00  0.00    +0.000 A 
ENDROOT
BRANCH   2  12
ATOM     12  C   UNL     1      -0.621  13.258  20.731  0.00  0.00    +0.000 C 
ATOM     13  O   UNL     1       0.147  13.966  20.075  0.00  0.00    +0.000 OA
ATOM     14  N   UNL     1      -0.508  13.318  22.108  0.00  0.00    +0.000 N 
ATOM     15  H   UNL     1       0.112  14.074  22.369  0.00  0.00    +0.000 HD
BRANCH  14  16
ATOM     16  C   UNL     1      -1.308  12.766  23.201  0.00  0.00    +0.000 C 
BRANCH  16  17
ATOM     17  C   UNL     1      -2.675  13.341  23.408  0.00  0.00    +0.000 A 
ATOM     18  C   UNL     1      -2.880  14.721  23.348  0.00  0.00    +0.000 A 
ATOM     19  C   UNL     1      -4.146  15.246  23.577  0.00  0.00    +0.000 A 
ATOM     20  C   UNL     1      -5.212  14.393  23.839  0.00  0.00    +0.000 A 
ATOM     21  F   UNL     1      -6.426  14.910  24.060  0.00  0.00    +0.000 F 
ATOM     22  C   UNL     1      -5.035  13.018  23.902  0.00  0.00    +0.000 A 
ATOM     23  C   UNL     1      -3.765  12.492  23.691  0.00  0.00    +0.000 A 
ENDBRANCH  16  17
ENDBRANCH  14  16
ENDBRANCH   2  12
BRANCH   1  24
ATOM     24  N   UNL     1       0.127  10.656  19.230  0.00  0.00    +0.000 N 
ATOM     25  H   UNL     1       0.407  10.518  18.255  0.00  0.00    +0.000 HD
BRANCH  24  27
ATOM     26  C   UNL     1       0.944   9.984  21.494  0.00  0.00    +0.000 C 
ATOM     27  C   UNL     1       0.447   9.518  20.114  0.00  0.00    +0.000 C 
BRANCH  27  28
ATOM     28  C   UNL     1       1.434   8.602  19.455  0.00  0.00    +0.000 A 
ATOM     29  C   UNL     1       1.851   7.436  20.124  0.00  0.00    +0.000 A 
ATOM     30  C   UNL     1       2.735   6.565  19.511  0.00  0.00    +0.000 A 
ATOM     31  C   UNL     1       3.208   6.841  18.238  0.00  0.00    +0.000 A 
ATOM     32  C   UNL     1       2.799   8.004  17.567  0.00  0.00    +0.000 A 
ATOM     33  C   UNL     1       1.912   8.877  18.170  0.00  0.00    +0.000 A 
ENDBRANCH  27  28
ENDBRANCH  24  27
ENDBRANCH   1  24
TORSDOF 6
ENDMDL
MODEL 8
REMARK VINA RESULT:      -7.7      0.940      1.069
REMARK  Name = 
REMARK  7 active torsions:
REMARK  status: ('A' for Active; 'I' for Inactive)
REMARK    1  A    between atoms: C_1  and  C_2
REMARK    2  A    between atoms: C_2  and  N_3
REMARK    3  A    between atoms: C_2  and  C_26
REMARK    4  A    between atoms: N_3  and  C_4
REMARK    5  A    between atoms: C_5  and  C_6
REMARK    6  A    between atoms: N_8  and  C_9
REMARK    7  A    between atoms: C_9  and  C_10
REMARK                            x       y       z     vdW  Elec       q    Type
REMARK                         _______ _______ _______ _____ _____    ______ ____
ROOT
ATOM      1  C   UNL     1      -0.758  10.490  18.835  0.00  0.00    +0.000 A 
ATOM      2  C   UNL     1       0.367   9.759  19.211  0.00  0.00    +0.000 A 
ATOM      3  N   UNL     1       0.681   9.443  20.501  0.00  0.00    +0.000 NA
ATOM      4  C   UNL     1      -0.012  10.042  21.479  0.00  0.00    +0.000 A 
ATOM      5 BR   UNL     1       0.414   9.475  23.252  0.00  0.00    +0.000 Br
ATOM      6  C   UNL     1      -0.936  11.051  21.229  0.00  0.00    +0.000 A 
ATOM      7  C   UNL     1      -1.466  11.910  22.221  0.00  0.00    +0.000 A 
ATOM      8  C   UNL     1      -2.267  12.983  21.869  0.00  0.00    +0.000 A 
ATOM      9  C   UNL     1      -2.594  13.107  20.534  0.00  0.00    +0.000 A 
ATOM     10  N   UNL     1      -2.202  12.246  19.567  0.00  0.00    +0.000 NA
ATOM     11  C   UNL     1      -1.325  11.262  19.880  0.00  0.00    +0.000 A 
ENDROOT
BRANCH   2  12
ATOM     12  C   UNL     1       1.453   9.350  18.261  0.00  0.00    +0.000 C 
ATOM     13  O   UNL     1       1.757  10.096  17.326  0.00  0.00    +0.000 OA
ATOM     14  N   UNL     1       2.109   8.134  18.332  0.00  0.00    +0.000 N 
ATOM     15  H   UNL     1       2.868   8.114  17.664  0.00  0.00    +0.000 HD
BRANCH  14  16
ATOM     16  C   UNL     1       2.139   7.072  19.338  0.00  0.00    +0.000 C 
BRANCH  16  17
ATOM     17  C   UNL     1       2.601   5.719  18.892  0.00  0.00    +0.000 A 
ATOM     18  C   UNL     1       1.869   4.996  17.948  0.00  0.00    +0.000 A 
ATOM     19  C   UNL     1       2.287   3.726  17.568  0.00  0.00    +0.000 A 
ATOM     20  C   UNL     1       3.450   3.191  18.110  0.00  0.00    +0.000 A 
ATOM     21  F   UNL     1       3.843   1.966  17.739  0.00  0.00    +0.000 F 
ATOM     22  C   UNL     1       4.197   3.890  19.048  0.00  0.00    +0.000 A 
ATOM     23  C   UNL     1       3.769   5.154  19.442  0.00  0.00    +0.000 A 
ENDBRANCH  16  17
ENDBRANCH  14  16
ENDBRANCH   2  12
BRANCH   1  24
ATOM     24  N   UNL     1      -1.241  10.671  17.502  0.00  0.00    +0.000 N 
ATOM     25  H   UNL     1      -1.343  11.677  17.341  0.00  0.00    +0.000 HD
BRANCH  24  27
ATOM     26  C   UNL     1      -2.234   9.669  15.438  0.00  0.00    +0.000 C 
ATOM     27  C   UNL     1      -2.351   9.861  16.962  0.00  0.00    +0.000 C 
BRANCH  27  28
ATOM     28  C   UNL     1      -3.672  10.460  17.339  0.00  0.00    +0.000 A 
ATOM     29  C   UNL     1      -4.135  11.603  16.659  0.00  0.00    +0.000 A 
ATOM     30  C   UNL     1      -5.370  12.143  16.974  0.00  0.00    +0.000 A 
ATOM     31  C   UNL     1      -6.149  11.560  17.960  0.00  0.00    +0.000 A 
ATOM     32  C   UNL     1      -5.692  10.423  18.645  0.00  0.00    +0.000 A 
ATOM     33  C   UNL     1      -4.462   9.873  18.332  0.00  0.00    +0.000 A 
ENDBRANCH  27  28
ENDBRANCH  24  27
ENDBRANCH   1  24
TORSDOF 6
ENDMDL
MODEL 9
REMARK VINA RESULT:      -7.7      1.926      2.941
REMARK  Name = 
REMARK  7 active torsions:
REMARK  status: ('A' for Active; 'I' for Inactive)
REMARK    1  A    between atoms: C_1  and  C_2
REMARK    2  A    between atoms: C_2  and  N_3
REMARK    3  A    between atoms: C_2  and  C_26
REMARK    4  A    between atoms: N_3  and  C_4
REMARK    5  A    between atoms: C_5  and  C_6
REMARK    6  A    between atoms: N_8  and  C_9
REMARK    7  A    between atoms: C_9  and  C_10
REMARK                            x       y       z     vdW  Elec       q    Type
REMARK                         _______ _______ _______ _____ _____    ______ ____
ROOT
ATOM      1  C   UNL     1      -2.204  11.668  19.447  0.00  0.00    +0.000 A 
ATOM      2  C   UNL     1      -1.327  10.612  19.210  0.00  0.00    +0.000 A 
ATOM      3  N   UNL     1      -0.626   9.964  20.185  0.00  0.00    +0.000 NA
ATOM      4  C   UNL     1      -0.615  10.502  21.412  0.00  0.00    +0.000 A 
ATOM      5 BR   UNL     1       0.301   9.487  22.745  0.00  0.00    +0.000 Br
ATOM      6  C   UNL     1      -1.181  11.743  21.688  0.00  0.00    +0.000 A 
ATOM      7  C   UNL     1      -0.942  12.482  22.871  0.00  0.00    +0.000 A 
ATOM      8  C   UNL     1      -1.423  13.774  23.005  0.00  0.00    +0.000 A 
ATOM      9  C   UNL     1      -2.216  14.253  21.982  0.00  0.00    +0.000 A 
ATOM     10  N   UNL     1      -2.562  13.542  20.884  0.00  0.00    +0.000 NA
ATOM     11  C   UNL     1      -2.003  12.324  20.687  0.00  0.00    +0.000 A 
ENDROOT
BRANCH   2  12
ATOM     12  C   UNL     1      -0.930  10.147  17.841  0.00  0.00    +0.000 C 
ATOM     13  O   UNL     1      -1.771  10.126  16.938  0.00  0.00    +0.000 OA
ATOM     14  N   UNL     1       0.332   9.671  17.534  0.00  0.00    +0.000 N 
ATOM     15  H   UNL     1       0.406   9.513  16.538  0.00  0.00    +0.000 HD
BRANCH  14  16
ATOM     16  C   UNL     1       1.602   9.668  18.260  0.00  0.00    +0.000 C 
BRANCH  16  17
ATOM     17  C   UNL     1       2.243   8.338  18.512  0.00  0.00    +0.000 A 
ATOM     18  C   UNL     1       1.962   7.626  19.680  0.00  0.00    +0.000 A 
ATOM     19  C   UNL     1       2.590   6.411  19.921  0.00  0.00    +0.000 A 
ATOM     20  C   UNL     1       3.476   5.892  18.984  0.00  0.00    +0.000 A 
ATOM     21  F   UNL     1       4.077   4.721  19.227  0.00  0.00    +0.000 F 
ATOM     22  C   UNL     1       3.770   6.578  17.814  0.00  0.00    +0.000 A 
ATOM     23  C   UNL     1       3.156   7.804  17.580  0.00  0.00    +0.000 A 
ENDBRANCH  16  17
ENDBRANCH  14  16
ENDBRANCH   2  12
BRANCH   1  24
ATOM     24  N   UNL     1      -3.111  12.242  18.502  0.00  0.00    +0.000 N 
ATOM     25  H   UNL     1      -3.144  13.250  18.674  0.00  0.00    +0.000 HD
BRANCH  24  27
ATOM     26  C   UNL     1      -4.737  11.595  16.716  0.00  0.00    +0.000 C 
ATOM     27  C   UNL     1      -4.429  11.637  18.225  0.00  0.00    +0.000 C 
BRANCH  27  28
ATOM     28  C   UNL     1      -5.506  12.350  18.985  0.00  0.00    +0.000 A 
ATOM     29  C   UNL     1      -5.697  12.064  20.350  0.00  0.00    +0.000 A 
ATOM     30  C   UNL     1      -6.664  12.742  21.071  0.00  0.00    +0.000 A 
ATOM     31  C   UNL     1      -7.444  13.703  20.448  0.00  0.00    +0.000 A 
ATOM     32  C   UNL     1      -7.262  13.991  19.086  0.00  0.00    +0.000 A 
ATOM     33  C   UNL     1      -6.294  13.321  18.360  0.00  0.00    +0.000 A 
ENDBRANCH  27  28
ENDBRANCH  24  27
ENDBRANCH   1  24
TORSDOF 6
ENDMDL
