MODEL 1
REMARK VINA RESULT:      -7.8      0.000      0.000
REMARK  Name = 
REMARK  6 active torsions:
REMARK  status: ('A' for Active; 'I' for Inactive)
REMARK    1  A    between atoms: C_1  and  C_2
REMARK    2  A    between atoms: C_2  and  C_3
REMARK    3  A    between atoms: C_3  and  N_4
REMARK    4  A    between atoms: C_8  and  C_9
REMARK    5  A    between atoms: C_15  and  O_16
REMARK    6  A    between atoms: O_16  and  C_17
REMARK                            x       y       z     vdW  Elec       q    Type
REMARK                         _______ _______ _______ _____ _____    ______ ____
ROOT
ATOM      1  C   UNL     1       3.938   3.266  17.879  0.00  0.00    +0.000 A 
ATOM      2  C   UNL     1       3.591   1.945  17.713  0.00  0.00    +0.000 A 
ATOM      3  N   UNL     1       2.500   1.699  18.501  0.00  0.00    +0.000 N 
ATOM      4  C   UNL     1       2.131   2.843  19.177  0.00  0.00    +0.000 A 
ATOM      5  C   UNL     1       1.089   3.063  20.085  0.00  0.00    +0.000 A 
ATOM      6  C   UNL     1       0.949   4.351  20.619  0.00  0.00    +0.000 A 
ATOM      7  C   UNL     1       1.817   5.382  20.260  0.00  0.00    +0.000 A 
ATOM      8  C   UNL     1       2.856   5.135  19.353  0.00  0.00    +0.000 A 
ATOM      9  C   UNL     1       3.020   3.850  18.799  0.00  0.00    +0.000 A 
ATOM     10  H   UNL     1       2.027   0.810  18.580  0.00  0.00    +0.000 HD
ENDROOT
BRANCH   1  15
ATOM     11  N   UNL     1       7.143   5.272  17.581  0.00  0.00    +0.000 NA
ATOM     12  C   UNL     1       6.967   5.649  16.167  0.00  0.00    +0.000 C 
ATOM     13  C   UNL     1       6.480   4.468  15.310  0.00  0.00    +0.000 C 
ATOM     14  C   UNL     1       5.324   3.747  15.933  0.00  0.00    +0.000 C 
ATOM     15  C   UNL     1       5.042   3.900  17.236  0.00  0.00    +0.000 C 
ATOM     16  C   UNL     1       5.867   4.780  18.154  0.00  0.00    +0.000 C 
BRANCH  11  17
ATOM     17  C   UNL     1       7.671   6.418  18.344  0.00  0.00    +0.000 C 
BRANCH  17  19
ATOM     18  C   UNL     1       8.427   8.826  18.276  0.00  0.00    +0.000 C 
ATOM     19  C   UNL     1       7.594   7.753  17.591  0.00  0.00    +0.000 C 
ENDBRANCH  17  19
ENDBRANCH  11  17
ENDBRANCH   1  15
BRANCH   7  20
ATOM     20  O   UNL     1       1.765   6.672  20.716  0.00  0.00    +0.000 OA
ATOM     21  C   UNL     1       1.991   7.702  19.763  0.00  0.00    +0.000 C 
ENDBRANCH   7  20
TORSDOF 4
ENDMDL
MODEL 2
REMARK VINA RESULT:      -7.7      3.004      6.145
REMARK  Name = 
REMARK  6 active torsions:
REMARK  status: ('A' for Active; 'I' for Inactive)
REMARK    1  A    between atoms: C_1  and  C_2
REMARK    2  A    between atoms: C_2  and  C_3
REMARK    3  A    between atoms: C_3  and  N_4
REMARK    4  A    between atoms: C_8  and  C_9
REMARK    5  A    between atoms: C_15  and  O_16
REMARK    6  A    between atoms: O_16  and  C_17
REMARK                            x       y       z     vdW  Elec       q    Type
REMARK                         _______ _______ _______ _____ _____    ______ ____
ROOT
ATOM      1  C   UNL     1       2.863   6.085  17.955  0.00  0.00    +0.000 A 
ATOM      2  C   UNL     1       2.119   4.929  17.886  0.00  0.00    +0.000 A 
ATOM      3  N   UNL     1       2.913   3.954  17.347  0.00  0.00    +0.000 N 
ATOM      4  C   UNL     1       4.164   4.459  17.065  0.00  0.00    +0.000 A 
ATOM      5  C   UNL     1       5.288   3.837  16.509  0.00  0.00    +0.000 A 
ATOM      6  C   UNL     1       6.445   4.609  16.339  0.00  0.00    +0.000 A 
ATOM      7  C   UNL     1       6.480   5.953  16.710  0.00  0.00    +0.000 A 
ATOM      8  C   UNL     1       5.340   6.554  17.260  0.00  0.00    +0.000 A 
ATOM      9  C   UNL     1       4.162   5.802  17.443  0.00  0.00    +0.000 A 
ATOM     10  H   UNL     1       2.629   3.000  17.178  0.00  0.00    +0.000 HD
ENDROOT
BRANCH   1  15
ATOM     11  N   UNL     1       1.805   8.673  20.517  0.00  0.00    +0.000 NA
ATOM     12  C   UNL     1       0.965   9.470  19.605  0.00  0.00    +0.000 C 
ATOM     13  C   UNL     1       1.634   9.679  18.236  0.00  0.00    +0.000 C 
ATOM     14  C   UNL     1       2.178   8.405  17.664  0.00  0.00    +0.000 C 
ATOM     15  C   UNL     1       2.378   7.333  18.445  0.00  0.00    +0.000 C 
ATOM     16  C   UNL     1       2.092   7.341  19.934  0.00  0.00    +0.000 C 
BRANCH  11  17
ATOM     17  C   UNL     1       1.149   8.557  21.832  0.00  0.00    +0.000 C 
BRANCH  17  19
ATOM     18  C   UNL     1      -0.596   9.907  23.059  0.00  0.00    +0.000 C 
ATOM     19  C   UNL     1      -0.308   9.040  21.843  0.00  0.00    +0.000 C 
ENDBRANCH  17  19
ENDBRANCH  11  17
ENDBRANCH   1  15
BRANCH   7  20
ATOM     20  O   UNL     1       7.556   6.792  16.594  0.00  0.00    +0.000 OA
ATOM     21  C   UNL     1       7.616   7.891  17.492  0.00  0.00    +0.000 C 
ENDBRANCH   7  20
TORSDOF 4
ENDMDL
MODEL 3
REMARK VINA RESULT:      -7.6      1.257      2.816
REMARK  Name = 
REMARK  6 active torsions:
REMARK  status: ('A' for Active; 'I' for Inactive)
REMARK    1  A    between atoms: C_1  and  C_2
REMARK    2  A    between atoms: C_2  and  C_3
REMARK    3  A    between atoms: C_3  and  N_4
REMARK    4  A    between atoms: C_8  and  C_9
REMARK    5  A    between atoms: C_15  and  O_16
REMARK    6  A    between atoms: O_16  and  C_17
REMARK                            x       y       z     vdW  Elec       q    Type
REMARK                         _______ _______ _______ _____ _____    ______ ____
ROOT
ATOM      1  C   UNL     1       3.985   3.356  18.027  0.00  0.00    +0.000 A 
ATOM      2  C   UNL     1       3.646   2.063  17.701  0.00  0.00    +0.000 A 
ATOM      3  N   UNL     1       2.470   1.768  18.336  0.00  0.00    +0.000 N 
ATOM      4  C   UNL     1       2.039   2.853  19.070  0.00  0.00    +0.000 A 
ATOM      5  C   UNL     1       0.903   3.010  19.872  0.00  0.00    +0.000 A 
ATOM      6  C   UNL     1       0.715   4.246  20.504  0.00  0.00    +0.000 A 
ATOM      7  C   UNL     1       1.628   5.288  20.342  0.00  0.00    +0.000 A 
ATOM      8  C   UNL     1       2.760   5.105  19.537  0.00  0.00    +0.000 A 
ATOM      9  C   UNL     1       2.974   3.872  18.889  0.00  0.00    +0.000 A 
ATOM     10  H   UNL     1       1.983   0.885  18.279  0.00  0.00    +0.000 HD
ENDROOT
BRANCH   1  15
ATOM     11  N   UNL     1       6.359   4.989  15.561  0.00  0.00    +0.000 NA
ATOM     12  C   UNL     1       7.573   4.839  16.382  0.00  0.00    +0.000 C 
ATOM     13  C   UNL     1       7.321   5.187  17.859  0.00  0.00    +0.000 C 
ATOM     14  C   UNL     1       6.091   4.524  18.400  0.00  0.00    +0.000 C 
ATOM     15  C   UNL     1       5.160   4.024  17.573  0.00  0.00    +0.000 C 
ATOM     16  C   UNL     1       5.276   4.111  16.064  0.00  0.00    +0.000 C 
BRANCH  11  17
ATOM     17  C   UNL     1       6.670   4.708  14.147  0.00  0.00    +0.000 C 
BRANCH  17  19
ATOM     18  C   UNL     1       6.198   3.306  12.101  0.00  0.00    +0.000 C 
ATOM     19  C   UNL     1       5.731   3.681  13.499  0.00  0.00    +0.000 C 
ENDBRANCH  17  19
ENDBRANCH  11  17
ENDBRANCH   1  15
BRANCH   7  20
ATOM     20  O   UNL     1       1.537   6.532  20.906  0.00  0.00    +0.000 OA
ATOM     21  C   UNL     1       1.919   7.637  20.098  0.00  0.00    +0.000 C 
ENDBRANCH   7  20
TORSDOF 4
ENDMDL
MODEL 4
REMARK VINA RESULT:      -7.4      3.288      6.691
REMARK  Name = 
REMARK  6 active torsions:
REMARK  status: ('A' for Active; 'I' for Inactive)
REMARK    1  A    between atoms: C_1  and  C_2
REMARK    2  A    between atoms: C_2  and  C_3
REMARK    3  A    between atoms: C_3  and  N_4
REMARK    4  A    between atoms: C_8  and  C_9
REMARK    5  A    between atoms: C_15  and  O_16
REMARK    6  A    between atoms: O_16  and  C_17
REMARK                            x       y       z     vdW  Elec       q    Type
REMARK                         _______ _______ _______ _____ _____    ______ ____
ROOT
ATOM      1  C   UNL     1       5.690   4.863  15.841  0.00  0.00    +0.000 A 
ATOM      2  C   UNL     1       6.755   5.639  16.238  0.00  0.00    +0.000 A 
ATOM      3  N   UNL     1       7.638   5.699  15.195  0.00  0.00    +0.000 N 
ATOM      4  C   UNL     1       7.162   4.973  14.124  0.00  0.00    +0.000 A 
ATOM      5  C   UNL     1       7.722   4.750  12.860  0.00  0.00    +0.000 A 
ATOM      6  C   UNL     1       6.998   3.962  11.955  0.00  0.00    +0.000 A 
ATOM      7  C   UNL     1       5.762   3.415  12.299  0.00  0.00    +0.000 A 
ATOM      8  C   UNL     1       5.226   3.648  13.572  0.00  0.00    +0.000 A 
ATOM      9  C   UNL     1       5.931   4.438  14.503  0.00  0.00    +0.000 A 
ATOM     10  H   UNL     1       8.515   6.201  15.202  0.00  0.00    +0.000 HD
ENDROOT
BRANCH   1  15
ATOM     11  N   UNL     1       2.636   5.499  17.998  0.00  0.00    +0.000 NA
ATOM     12  C   UNL     1       2.661   4.203  18.699  0.00  0.00    +0.000 C 
ATOM     13  C   UNL     1       2.945   3.032  17.743  0.00  0.00    +0.000 C 
ATOM     14  C   UNL     1       4.112   3.300  16.842  0.00  0.00    +0.000 C 
ATOM     15  C   UNL     1       4.567   4.549  16.660  0.00  0.00    +0.000 C 
ATOM     16  C   UNL     1       3.933   5.754  17.326  0.00  0.00    +0.000 C 
BRANCH  11  17
ATOM     17  C   UNL     1       2.298   6.577  18.946  0.00  0.00    +0.000 C 
BRANCH  17  19
ATOM     18  C   UNL     1       1.573   8.684  17.759  0.00  0.00    +0.000 C 
ATOM     19  C   UNL     1       2.716   7.975  18.469  0.00  0.00    +0.000 C 
ENDBRANCH  17  19
ENDBRANCH  11  17
ENDBRANCH   1  15
BRANCH   7  20
ATOM     20  O   UNL     1       4.973   2.639  11.492  0.00  0.00    +0.000 OA
ATOM     21  C   UNL     1       3.750   3.208  11.047  0.00  0.00    +0.000 C 
ENDBRANCH   7  20
TORSDOF 4
ENDMDL
MODEL 5
REMARK VINA RESULT:      -7.2      3.183      7.089
REMARK  Name = 
REMARK  6 active torsions:
REMARK  status: ('A' for Active; 'I' for Inactive)
REMARK    1  A    between atoms: C_1  and  C_2
REMARK    2  A    between atoms: C_2  and  C_3
REMARK    3  A    between atoms: C_3  and  N_4
REMARK    4  A    between atoms: C_8  and  C_9
REMARK    5  A    between atoms: C_15  and  O_16
REMARK    6  A    between atoms: O_16  and  C_17
REMARK                            x       y       z     vdW  Elec       q    Type
REMARK                         _______ _______ _______ _____ _____    ______ ____
ROOT
ATOM      1  C   UNL     1       5.704   5.173  15.818  0.00  0.00    +0.000 A 
ATOM      2  C   UNL     1       6.906   5.765  16.133  0.00  0.00    +0.000 A 
ATOM      3  N   UNL     1       7.752   5.578  15.074  0.00  0.00    +0.000 N 
ATOM      4  C   UNL     1       7.116   4.874  14.073  0.00  0.00    +0.000 A 
ATOM      5  C   UNL     1       7.584   4.455  12.823  0.00  0.00    +0.000 A 
ATOM      6  C   UNL     1       6.699   3.750  11.997  0.00  0.00    +0.000 A 
ATOM      7  C   UNL     1       5.395   3.471  12.404  0.00  0.00    +0.000 A 
ATOM      8  C   UNL     1       4.951   3.897  13.664  0.00  0.00    +0.000 A 
ATOM      9  C   UNL     1       5.820   4.610  14.515  0.00  0.00    +0.000 A 
ATOM     10  H   UNL     1       8.706   5.907  15.026  0.00  0.00    +0.000 HD
ENDROOT
BRANCH   1  15
ATOM     11  N   UNL     1       3.026   3.652  18.031  0.00  0.00    +0.000 NA
ATOM     12  C   UNL     1       2.077   4.774  17.931  0.00  0.00    +0.000 C 
ATOM     13  C   UNL     1       2.777   6.138  18.056  0.00  0.00    +0.000 C 
ATOM     14  C   UNL     1       3.990   6.240  17.183  0.00  0.00    +0.000 C 
ATOM     15  C   UNL     1       4.568   5.139  16.679  0.00  0.00    +0.000 C 
ATOM     16  C   UNL     1       4.056   3.742  16.969  0.00  0.00    +0.000 C 
BRANCH  11  17
ATOM     17  C   UNL     1       2.298   2.370  17.970  0.00  0.00    +0.000 C 
BRANCH  17  19
ATOM     18  C   UNL     1       1.384   2.379  20.323  0.00  0.00    +0.000 C 
ATOM     19  C   UNL     1       1.036   2.332  18.843  0.00  0.00    +0.000 C 
ENDBRANCH  17  19
ENDBRANCH  11  17
ENDBRANCH   1  15
BRANCH   7  20
ATOM     20  O   UNL     1       4.451   2.797  11.676  0.00  0.00    +0.000 OA
ATOM     21  C   UNL     1       3.680   3.559  10.757  0.00  0.00    +0.000 C 
ENDBRANCH   7  20
TORSDOF 4
ENDMDL
MODEL 6
REMARK VINA RESULT:      -7.1      2.136      3.435
REMARK  Name = 
REMARK  6 active torsions:
REMARK  status: ('A' for Active; 'I' for Inactive)
REMARK    1  A    between atoms: C_1  and  C_2
REMARK    2  A    between atoms: C_2  and  C_3
REMARK    3  A    between atoms: C_3  and  N_4
REMARK    4  A    between atoms: C_8  and  C_9
REMARK    5  A    between atoms: C_15  and  O_16
REMARK    6  A    between atoms: O_16  and  C_17
REMARK                            x       y       z     vdW  Elec       q    Type
REMARK                         _______ _______ _______ _____ _____    ______ ____
ROOT
ATOM      1  C   UNL     1       3.004   5.680  19.361  0.00  0.00    +0.000 A 
ATOM      2  C   UNL     1       2.557   5.102  20.527  0.00  0.00    +0.000 A 
ATOM      3  N   UNL     1       1.754   6.010  21.160  0.00  0.00    +0.000 N 
ATOM      4  C   UNL     1       1.670   7.171  20.422  0.00  0.00    +0.000 A 
ATOM      5  C   UNL     1       0.974   8.358  20.676  0.00  0.00    +0.000 A 
ATOM      6  C   UNL     1       1.070   9.387  19.729  0.00  0.00    +0.000 A 
ATOM      7  C   UNL     1       1.833   9.237  18.572  0.00  0.00    +0.000 A 
ATOM      8  C   UNL     1       2.526   8.041  18.343  0.00  0.00    +0.000 A 
ATOM      9  C   UNL     1       2.447   6.988  19.277  0.00  0.00    +0.000 A 
ATOM     10  H   UNL     1       1.286   5.858  22.043  0.00  0.00    +0.000 HD
ENDROOT
BRANCH   1  15
ATOM     11  N   UNL     1       6.289   4.443  17.925  0.00  0.00    +0.000 NA
ATOM     12  C   UNL     1       5.833   4.359  16.526  0.00  0.00    +0.000 C 
ATOM     13  C   UNL     1       4.431   3.737  16.411  0.00  0.00    +0.000 C 
ATOM     14  C   UNL     1       3.455   4.346  17.372  0.00  0.00    +0.000 C 
ATOM     15  C   UNL     1       3.883   5.052  18.430  0.00  0.00    +0.000 C 
ATOM     16  C   UNL     1       5.353   5.262  18.732  0.00  0.00    +0.000 C 
BRANCH  11  17
ATOM     17  C   UNL     1       7.660   4.985  17.975  0.00  0.00    +0.000 C 
BRANCH  17  19
ATOM     18  C   UNL     1       7.706   7.480  17.597  0.00  0.00    +0.000 C 
ATOM     19  C   UNL     1       7.757   6.368  18.633  0.00  0.00    +0.000 C 
ENDBRANCH  17  19
ENDBRANCH  11  17
ENDBRANCH   1  15
BRANCH   7  20
ATOM     20  O   UNL     1       1.989  10.173  17.584  0.00  0.00    +0.000 OA
ATOM     21  C   UNL     1       2.274  11.503  17.995  0.00  0.00    +0.000 C 
ENDBRANCH   7  20
TORSDOF 4
ENDMDL
MODEL 7
REMARK VINA RESULT:      -7.1      2.950      5.969
REMARK  Name = 
REMARK  6 active torsions:
REMARK  status: ('A' for Active; 'I' for Inactive)
REMARK    1  A    between atoms: C_1  and  C_2
REMARK    2  A    between atoms: C_2  and  C_3
REMARK    3  A    between atoms: C_3  and  N_4
REMARK    4  A    between atoms: C_8  and  C_9
REMARK    5  A    between atoms: C_15  and  O_16
REMARK    6  A    between atoms: O_16  and  C_17
REMARK                            x       y       z     vdW  Elec       q    Type
REMARK                         _______ _______ _______ _____ _____    ______ ____
ROOT
ATOM      1  C   UNL     1       3.099   6.871  18.031  0.00  0.00    +0.000 A 
ATOM      2  C   UNL     1       4.186   6.991  17.197  0.00  0.00    +0.000 A 
ATOM      3  N   UNL     1       4.669   5.733  16.959  0.00  0.00    +0.000 N 
ATOM      4  C   UNL     1       3.909   4.796  17.626  0.00  0.00    +0.000 A 
ATOM      5  C   UNL     1       4.030   3.402  17.678  0.00  0.00    +0.000 A 
ATOM      6  C   UNL     1       3.096   2.694  18.445  0.00  0.00    +0.000 A 
ATOM      7  C   UNL     1       2.078   3.352  19.137  0.00  0.00    +0.000 A 
ATOM      8  C   UNL     1       1.982   4.748  19.073  0.00  0.00    +0.000 A 
ATOM      9  C   UNL     1       2.907   5.487  18.308  0.00  0.00    +0.000 A 
ATOM     10  H   UNL     1       5.466   5.515  16.379  0.00  0.00    +0.000 HD
ENDROOT
BRANCH   1  15
ATOM     11  N   UNL     1       1.151   8.941  20.543  0.00  0.00    +0.000 NA
ATOM     12  C   UNL     1       0.391   9.723  19.553  0.00  0.00    +0.000 C 
ATOM     13  C   UNL     1       1.274  10.196  18.386  0.00  0.00    +0.000 C 
ATOM     14  C   UNL     1       2.118   9.092  17.825  0.00  0.00    +0.000 C 
ATOM     15  C   UNL     1       2.331   7.967  18.524  0.00  0.00    +0.000 C 
ATOM     16  C   UNL     1       1.759   7.746  19.910  0.00  0.00    +0.000 C 
BRANCH  11  17
ATOM     17  C   UNL     1       0.276   8.568  21.670  0.00  0.00    +0.000 C 
BRANCH  17  19
ATOM     18  C   UNL     1      -0.830  10.339  23.088  0.00  0.00    +0.000 C 
ATOM     19  C   UNL     1       0.414   9.486  22.892  0.00  0.00    +0.000 C 
ENDBRANCH  17  19
ENDBRANCH  11  17
ENDBRANCH   1  15
BRANCH   7  20
ATOM     20  O   UNL     1       1.115   2.758  19.907  0.00  0.00    +0.000 OA
ATOM     21  C   UNL     1       1.360   2.686  21.304  0.00  0.00    +0.000 C 
ENDBRANCH   7  20
TORSDOF 4
ENDMDL
MODEL 8
REMARK VINA RESULT:      -7.0      1.649      3.259
REMARK  Name = 
REMARK  6 active torsions:
REMARK  status: ('A' for Active; 'I' for Inactive)
REMARK    1  A    between atoms: C_1  and  C_2
REMARK    2  A    between atoms: C_2  and  C_3
REMARK    3  A    between atoms: C_3  and  N_4
REMARK    4  A    between atoms: C_8  and  C_9
REMARK    5  A    between atoms: C_15  and  O_16
REMARK    6  A    between atoms: O_16  and  C_17
REMARK                            x       y       z     vdW  Elec       q    Type
REMARK                         _______ _______ _______ _____ _____    ______ ____
ROOT
ATOM      1  C   UNL     1       4.143   3.940  18.036  0.00  0.00    +0.000 A 
ATOM      2  C   UNL     1       3.854   2.602  18.180  0.00  0.00    +0.000 A 
ATOM      3  N   UNL     1       2.825   2.493  19.076  0.00  0.00    +0.000 N 
ATOM      4  C   UNL     1       2.441   3.742  19.516  0.00  0.00    +0.000 A 
ATOM      5  C   UNL     1       1.445   4.115  20.426  0.00  0.00    +0.000 A 
ATOM      6  C   UNL     1       1.272   5.482  20.681  0.00  0.00    +0.000 A 
ATOM      7  C   UNL     1       2.064   6.442  20.052  0.00  0.00    +0.000 A 
ATOM      8  C   UNL     1       3.058   6.043  19.148  0.00  0.00    +0.000 A 
ATOM      9  C   UNL     1       3.254   4.675  18.872  0.00  0.00    +0.000 A 
ATOM     10  H   UNL     1       2.403   1.626  19.375  0.00  0.00    +0.000 HD
ENDROOT
BRANCH   1  15
ATOM     11  N   UNL     1       6.047   4.612  14.825  0.00  0.00    +0.000 NA
ATOM     12  C   UNL     1       7.339   4.916  15.464  0.00  0.00    +0.000 C 
ATOM     13  C   UNL     1       7.177   5.816  16.700  0.00  0.00    +0.000 C 
ATOM     14  C   UNL     1       6.100   5.333  17.623  0.00  0.00    +0.000 C 
ATOM     15  C   UNL     1       5.173   4.460  17.198  0.00  0.00    +0.000 C 
ATOM     16  C   UNL     1       5.140   3.929  15.779  0.00  0.00    +0.000 C 
BRANCH  11  17
ATOM     17  C   UNL     1       6.263   3.802  13.612  0.00  0.00    +0.000 C 
BRANCH  17  19
ATOM     18  C   UNL     1       5.227   2.655  11.616  0.00  0.00    +0.000 C 
ATOM     19  C   UNL     1       5.025   3.690  12.712  0.00  0.00    +0.000 C 
ENDBRANCH  17  19
ENDBRANCH  11  17
ENDBRANCH   1  15
BRANCH   7  20
ATOM     20  O   UNL     1       1.974   7.797  20.224  0.00  0.00    +0.000 OA
ATOM     21  C   UNL     1       1.190   8.258  21.316  0.00  0.00    +0.000 C 
ENDBRANCH   7  20
TORSDOF 4
ENDMDL
MODEL 9
REMARK VINA RESULT:      -6.9      1.805      3.158
REMARK  Name = 
REMARK  6 active torsions:
REMARK  status: ('A' for Active; 'I' for Inactive)
REMARK    1  A    between atoms: C_1  and  C_2
REMARK    2  A    between atoms: C_2  and  C_3
REMARK    3  A    between atoms: C_3  and  N_4
REMARK    4  A    between atoms: C_8  and  C_9
REMARK    5  A    between atoms: C_15  and  O_16
REMARK    6  A    between atoms: O_16  and  C_17
REMARK                            x       y       z     vdW  Elec       q    Type
REMARK                         _______ _______ _______ _____ _____    ______ ____
ROOT
ATOM      1  C   UNL     1       3.658   3.409  17.663  0.00  0.00    +0.000 A 
ATOM      2  C   UNL     1       3.660   2.037  17.558  0.00  0.00    +0.000 A 
ATOM      3  N   UNL     1       2.889   1.541  18.574  0.00  0.00    +0.000 N 
ATOM      4  C   UNL     1       2.385   2.572  19.337  0.00  0.00    +0.000 A 
ATOM      5  C   UNL     1       1.559   2.543  20.467  0.00  0.00    +0.000 A 
ATOM      6  C   UNL     1       1.195   3.767  21.042  0.00  0.00    +0.000 A 
ATOM      7  C   UNL     1       1.639   4.978  20.510  0.00  0.00    +0.000 A 
ATOM      8  C   UNL     1       2.470   4.981  19.381  0.00  0.00    +0.000 A 
ATOM      9  C   UNL     1       2.851   3.764  18.781  0.00  0.00    +0.000 A 
ATOM     10  H   UNL     1       2.711   0.562  18.745  0.00  0.00    +0.000 HD
ENDROOT
BRANCH   1  15
ATOM     11  N   UNL     1       5.629   4.480  14.604  0.00  0.00    +0.000 NA
ATOM     12  C   UNL     1       6.227   5.683  15.210  0.00  0.00    +0.000 C 
ATOM     13  C   UNL     1       5.206   6.485  16.034  0.00  0.00    +0.000 C 
ATOM     14  C   UNL     1       4.416   5.618  16.967  0.00  0.00    +0.000 C 
ATOM     15  C   UNL     1       4.367   4.289  16.792  0.00  0.00    +0.000 C 
ATOM     16  C   UNL     1       5.076   3.588  15.651  0.00  0.00    +0.000 C 
BRANCH  11  17
ATOM     17  C   UNL     1       6.631   3.784  13.775  0.00  0.00    +0.000 C 
BRANCH  17  19
ATOM     18  C   UNL     1       5.470   2.658  11.837  0.00  0.00    +0.000 C 
ATOM     19  C   UNL     1       6.332   3.833  12.270  0.00  0.00    +0.000 C 
ENDBRANCH  17  19
ENDBRANCH  11  17
ENDBRANCH   1  15
BRANCH   7  20
ATOM     20  O   UNL     1       1.339   6.225  20.989  0.00  0.00    +0.000 OA
ATOM     21  C   UNL     1       1.942   7.331  20.330  0.00  0.00    +0.000 C 
ENDBRANCH   7  20
TORSDOF 4
ENDMDL
