MODEL 1
REMARK VINA RESULT:      -7.5      0.000      0.000
REMARK  Name = 
REMARK  9 active torsions:
REMARK  status: ('A' for Active; 'I' for Inactive)
REMARK    1  A    between atoms: C_1  and  C_2
REMARK    2  A    between atoms: C_2  and  C_3
REMARK    3  A    between atoms: C_3  and  C_4
REMARK    4  A    between atoms: C_4  and  N_5
REMARK    5  A    between atoms: C_4  and  C_18
REMARK    6  A    between atoms: C_6  and  C_8
REMARK    7  A    between atoms: C_8  and  C_9
REMARK    8  A    between atoms: C_12  and  C_13
REMARK    9  A    between atoms: C_13  and  O_15
REMARK                            x       y       z     vdW  Elec       q    Type
REMARK                         _______ _______ _______ _____ _____    ______ ____
ROOT
ATOM      1  N   UNL     1       4.308   5.772  18.874  0.00  0.00    +0.000 N 
ATOM      2  C   UNL     1       5.269   4.795  19.003  0.00  0.00    +0.000 C 
ATOM      3  O   UNL     1       5.130   3.788  19.692  0.00  0.00    +0.000 OA
ATOM      4  H   UNL     1       4.502   6.588  18.312  0.00  0.00    +0.000 HD
ENDROOT
BRANCH   1   5
ATOM      5  C   UNL     1       3.035   5.717  19.577  0.00  0.00    +0.000 C 
BRANCH   5   6
ATOM      6  C   UNL     1       2.338   7.068  19.475  0.00  0.00    +0.000 A 
ATOM      7  C   UNL     1       2.340   7.772  18.262  0.00  0.00    +0.000 A 
ATOM      8  C   UNL     1       1.725   9.021  18.161  0.00  0.00    +0.000 A 
ATOM      9  C   UNL     1       1.090   9.583  19.267  0.00  0.00    +0.000 A 
ATOM     10  C   UNL     1       1.066   8.891  20.475  0.00  0.00    +0.000 A 
ATOM     11  C   UNL     1       1.681   7.643  20.578  0.00  0.00    +0.000 A 
ENDBRANCH   5   6
BRANCH   5  12
ATOM     12  C   UNL     1       2.137   4.590  19.024  0.00  0.00    +0.000 C 
BRANCH  12  14
ATOM     13  C   UNL     1       1.854   3.592  21.316  0.00  0.00    +0.000 C 
ATOM     14  C   UNL     1       1.138   4.049  20.052  0.00  0.00    +0.000 C 
ENDBRANCH  12  14
ENDBRANCH   5  12
ENDBRANCH   1   5
BRANCH   2  15
ATOM     15  C   UNL     1       6.524   5.043  18.182  0.00  0.00    +0.000 C 
BRANCH  15  16
ATOM     16  C   UNL     1       6.354   4.689  16.723  0.00  0.00    +0.000 A 
ATOM     17  C   UNL     1       7.229   5.207  15.760  0.00  0.00    +0.000 A 
ATOM     18  C   UNL     1       7.090   4.855  14.414  0.00  0.00    +0.000 A 
ATOM     19  C   UNL     1       6.074   3.980  14.011  0.00  0.00    +0.000 A 
ATOM     20  C   UNL     1       5.210   3.439  14.970  0.00  0.00    +0.000 A 
ATOM     21  C   UNL     1       5.348   3.799  16.315  0.00  0.00    +0.000 A 
BRANCH  19  22
ATOM     22  C   UNL     1       6.002   3.620  12.571  0.00  0.00    +0.000 C 
ATOM     23  O   UNL     1       6.995   3.489  11.874  0.00  0.00    +0.000 OA
BRANCH  22  24
ATOM     24  O   UNL     1       4.748   3.493  12.087  0.00  0.00    +0.000 OA
ATOM     25  H   UNL     1       4.075   4.044  12.525  0.00  0.00    +0.000 HD
ENDBRANCH  22  24
ENDBRANCH  19  22
ENDBRANCH  15  16
ENDBRANCH   2  15
TORSDOF 8
ENDMDL
MODEL 2
REMARK VINA RESULT:      -7.3      0.586      1.707
REMARK  Name = 
REMARK  9 active torsions:
REMARK  status: ('A' for Active; 'I' for Inactive)
REMARK    1  A    between atoms: C_1  and  C_2
REMARK    2  A    between atoms: C_2  and  C_3
REMARK    3  A    between atoms: C_3  and  C_4
REMARK    4  A    between atoms: C_4  and  N_5
REMARK    5  A    between atoms: C_4  and  C_18
REMARK    6  A    between atoms: C_6  and  C_8
REMARK    7  A    between atoms: C_8  and  C_9
REMARK    8  A    between atoms: C_12  and  C_13
REMARK    9  A    between atoms: C_13  and  O_15
REMARK                            x       y       z     vdW  Elec       q    Type
REMARK                         _______ _______ _______ _____ _____    ______ ____
ROOT
ATOM      1  N   UNL     1       4.272   6.130  18.420  0.00  0.00    +0.000 N 
ATOM      2  C   UNL     1       5.342   5.287  18.621  0.00  0.00    +0.000 C 
ATOM      3  O   UNL     1       5.340   4.364  19.432  0.00  0.00    +0.000 OA
ATOM      4  H   UNL     1       4.355   6.886  17.756  0.00  0.00    +0.000 HD
ENDROOT
BRANCH   1   5
ATOM      5  C   UNL     1       3.037   6.025  19.182  0.00  0.00    +0.000 C 
BRANCH   5   6
ATOM      6  C   UNL     1       2.309   7.364  19.158  0.00  0.00    +0.000 A 
ATOM      7  C   UNL     1       1.737   7.875  20.332  0.00  0.00    +0.000 A 
ATOM      8  C   UNL     1       1.048   9.089  20.320  0.00  0.00    +0.000 A 
ATOM      9  C   UNL     1       0.925   9.815  19.136  0.00  0.00    +0.000 A 
ATOM     10  C   UNL     1       1.499   9.328  17.965  0.00  0.00    +0.000 A 
ATOM     11  C   UNL     1       2.188   8.115  17.975  0.00  0.00    +0.000 A 
ENDBRANCH   5   6
BRANCH   5  12
ATOM     12  C   UNL     1       2.136   4.898  18.638  0.00  0.00    +0.000 C 
BRANCH  12  14
ATOM     13  C   UNL     1       0.950   2.745  19.173  0.00  0.00    +0.000 C 
ATOM     14  C   UNL     1       1.486   4.053  19.738  0.00  0.00    +0.000 C 
ENDBRANCH  12  14
ENDBRANCH   5  12
ENDBRANCH   1   5
BRANCH   2  15
ATOM     15  C   UNL     1       6.534   5.565  17.720  0.00  0.00    +0.000 C 
BRANCH  15  16
ATOM     16  C   UNL     1       6.381   4.968  16.340  0.00  0.00    +0.000 A 
ATOM     17  C   UNL     1       5.279   4.160  16.033  0.00  0.00    +0.000 A 
ATOM     18  C   UNL     1       5.123   3.633  14.748  0.00  0.00    +0.000 A 
ATOM     19  C   UNL     1       6.066   3.904  13.750  0.00  0.00    +0.000 A 
ATOM     20  C   UNL     1       7.158   4.730  14.041  0.00  0.00    +0.000 A 
ATOM     21  C   UNL     1       7.316   5.250  15.331  0.00  0.00    +0.000 A 
BRANCH  19  22
ATOM     22  C   UNL     1       5.823   3.341  12.396  0.00  0.00    +0.000 C 
ATOM     23  O   UNL     1       4.743   3.419  11.834  0.00  0.00    +0.000 OA
BRANCH  22  24
ATOM     24  O   UNL     1       6.881   2.698  11.859  0.00  0.00    +0.000 OA
ATOM     25  H   UNL     1       6.874   2.620  10.889  0.00  0.00    +0.000 HD
ENDBRANCH  22  24
ENDBRANCH  19  22
ENDBRANCH  15  16
ENDBRANCH   2  15
TORSDOF 8
ENDMDL
MODEL 3
REMARK VINA RESULT:      -7.3      2.459      7.709
REMARK  Name = 
REMARK  9 active torsions:
REMARK  status: ('A' for Active; 'I' for Inactive)
REMARK    1  A    between atoms: C_1  and  C_2
REMARK    2  A    between atoms: C_2  and  C_3
REMARK    3  A    between atoms: C_3  and  C_4
REMARK    4  A    between atoms: C_4  and  N_5
REMARK    5  A    between atoms: C_4  and  C_18
REMARK    6  A    between atoms: C_6  and  C_8
REMARK    7  A    between atoms: C_8  and  C_9
REMARK    8  A    between atoms: C_12  and  C_13
REMARK    9  A    between atoms: C_13  and  O_15
REMARK                            x       y       z     vdW  Elec       q    Type
REMARK                         _______ _______ _______ _____ _____    ______ ____
ROOT
ATOM      1  N   UNL     1       4.873   4.531  16.423  0.00  0.00    +0.000 N 
ATOM      2  C   UNL     1       4.208   4.003  17.507  0.00  0.00    +0.000 C 
ATOM      3  O   UNL     1       4.756   3.354  18.393  0.00  0.00    +0.000 OA
ATOM      4  H   UNL     1       4.352   5.030  15.717  0.00  0.00    +0.000 HD
ENDROOT
BRANCH   1   5
ATOM      5  C   UNL     1       6.299   4.338  16.208  0.00  0.00    +0.000 C 
BRANCH   5   6
ATOM      6  C   UNL     1       6.597   4.360  14.714  0.00  0.00    +0.000 A 
ATOM      7  C   UNL     1       5.882   3.528  13.841  0.00  0.00    +0.000 A 
ATOM      8  C   UNL     1       6.160   3.521  12.473  0.00  0.00    +0.000 A 
ATOM      9  C   UNL     1       7.151   4.353  11.954  0.00  0.00    +0.000 A 
ATOM     10  C   UNL     1       7.861   5.196  12.804  0.00  0.00    +0.000 A 
ATOM     11  C   UNL     1       7.585   5.203  14.172  0.00  0.00    +0.000 A 
ENDBRANCH   5   6
BRANCH   5  12
ATOM     12  C   UNL     1       7.127   5.407  16.951  0.00  0.00    +0.000 C 
BRANCH  12  14
ATOM     13  C   UNL     1       7.361   7.848  17.510  0.00  0.00    +0.000 C 
ATOM     14  C   UNL     1       6.393   6.741  17.115  0.00  0.00    +0.000 C 
ENDBRANCH  12  14
ENDBRANCH   5  12
ENDBRANCH   1   5
BRANCH   2  15
ATOM     15  C   UNL     1       2.722   4.323  17.543  0.00  0.00    +0.000 C 
BRANCH  15  16
ATOM     16  C   UNL     1       2.378   5.412  18.533  0.00  0.00    +0.000 A 
ATOM     17  C   UNL     1       2.500   6.761  18.176  0.00  0.00    +0.000 A 
ATOM     18  C   UNL     1       2.152   7.768  19.081  0.00  0.00    +0.000 A 
ATOM     19  C   UNL     1       1.678   7.442  20.357  0.00  0.00    +0.000 A 
ATOM     20  C   UNL     1       1.530   6.097  20.714  0.00  0.00    +0.000 A 
ATOM     21  C   UNL     1       1.886   5.091  19.808  0.00  0.00    +0.000 A 
BRANCH  19  22
ATOM     22  C   UNL     1       1.293   8.559  21.259  0.00  0.00    +0.000 C 
ATOM     23  O   UNL     1       0.293   9.235  21.082  0.00  0.00    +0.000 OA
BRANCH  22  24
ATOM     24  O   UNL     1       2.165   8.793  22.263  0.00  0.00    +0.000 OA
ATOM     25  H   UNL     1       3.084   8.961  21.987  0.00  0.00    +0.000 HD
ENDBRANCH  22  24
ENDBRANCH  19  22
ENDBRANCH  15  16
ENDBRANCH   2  15
TORSDOF 8
ENDMDL
MODEL 4
REMARK VINA RESULT:      -7.3      3.124      5.448
REMARK  Name = 
REMARK  9 active torsions:
REMARK  status: ('A' for Active; 'I' for Inactive)
REMARK    1  A    between atoms: C_1  and  C_2
REMARK    2  A    between atoms: C_2  and  C_3
REMARK    3  A    between atoms: C_3  and  C_4
REMARK    4  A    between atoms: C_4  and  N_5
REMARK    5  A    between atoms: C_4  and  C_18
REMARK    6  A    between atoms: C_6  and  C_8
REMARK    7  A    between atoms: C_8  and  C_9
REMARK    8  A    between atoms: C_12  and  C_13
REMARK    9  A    between atoms: C_13  and  O_15
REMARK                            x       y       z     vdW  Elec       q    Type
REMARK                         _______ _______ _______ _____ _____    ______ ____
ROOT
ATOM      1  N   UNL     1       4.356   5.551  18.142  0.00  0.00    +0.000 N 
ATOM      2  C   UNL     1       4.989   4.784  17.190  0.00  0.00    +0.000 C 
ATOM      3  O   UNL     1       4.412   4.265  16.238  0.00  0.00    +0.000 OA
ATOM      4  H   UNL     1       4.890   5.923  18.914  0.00  0.00    +0.000 HD
ENDROOT
BRANCH   1   5
ATOM      5  C   UNL     1       2.921   5.792  18.128  0.00  0.00    +0.000 C 
BRANCH   5   6
ATOM      6  C   UNL     1       2.214   4.706  18.929  0.00  0.00    +0.000 A 
ATOM      7  C   UNL     1       1.521   3.681  18.268  0.00  0.00    +0.000 A 
ATOM      8  C   UNL     1       0.850   2.693  18.990  0.00  0.00    +0.000 A 
ATOM      9  C   UNL     1       0.866   2.708  20.384  0.00  0.00    +0.000 A 
ATOM     10  C   UNL     1       1.560   3.710  21.056  0.00  0.00    +0.000 A 
ATOM     11  C   UNL     1       2.232   4.699  20.336  0.00  0.00    +0.000 A 
ENDBRANCH   5   6
BRANCH   5  12
ATOM     12  C   UNL     1       2.582   7.193  18.678  0.00  0.00    +0.000 C 
BRANCH  12  14
ATOM     13  C   UNL     1       1.526   9.385  18.043  0.00  0.00    +0.000 C 
ATOM     14  C   UNL     1       2.442   8.258  17.587  0.00  0.00    +0.000 C 
ENDBRANCH  12  14
ENDBRANCH   5  12
ENDBRANCH   1   5
BRANCH   2  15
ATOM     15  C   UNL     1       6.491   4.659  17.387  0.00  0.00    +0.000 C 
BRANCH  15  16
ATOM     16  C   UNL     1       7.152   5.974  17.729  0.00  0.00    +0.000 A 
ATOM     17  C   UNL     1       6.937   7.106  16.933  0.00  0.00    +0.000 A 
ATOM     18  C   UNL     1       7.524   8.330  17.267  0.00  0.00    +0.000 A 
ATOM     19  C   UNL     1       8.336   8.441  18.403  0.00  0.00    +0.000 A 
ATOM     20  C   UNL     1       8.537   7.321  19.217  0.00  0.00    +0.000 A 
ATOM     21  C   UNL     1       7.954   6.095  18.875  0.00  0.00    +0.000 A 
BRANCH  19  22
ATOM     22  C   UNL     1       8.902   9.778  18.720  0.00  0.00    +0.000 C 
ATOM     23  O   UNL     1       9.020  10.659  17.885  0.00  0.00    +0.000 OA
BRANCH  22  24
ATOM     24  O   UNL     1       9.314   9.922  19.998  0.00  0.00    +0.000 OA
ATOM     25  H   UNL     1       9.620  10.814  20.239  0.00  0.00    +0.000 HD
ENDBRANCH  22  24
ENDBRANCH  19  22
ENDBRANCH  15  16
ENDBRANCH   2  15
TORSDOF 8
ENDMDL
MODEL 5
REMARK VINA RESULT:      -7.3      2.451      7.657
REMARK  Name = 
REMARK  9 active torsions:
REMARK  status: ('A' for Active; 'I' for Inactive)
REMARK    1  A    between atoms: C_1  and  C_2
REMARK    2  A    between atoms: C_2  and  C_3
REMARK    3  A    between atoms: C_3  and  C_4
REMARK    4  A    between atoms: C_4  and  N_5
REMARK    5  A    between atoms: C_4  and  C_18
REMARK    6  A    between atoms: C_6  and  C_8
REMARK    7  A    between atoms: C_8  and  C_9
REMARK    8  A    between atoms: C_12  and  C_13
REMARK    9  A    between atoms: C_13  and  O_15
REMARK                            x       y       z     vdW  Elec       q    Type
REMARK                         _______ _______ _______ _____ _____    ______ ____
ROOT
ATOM      1  N   UNL     1       4.838   4.558  16.547  0.00  0.00    +0.000 N 
ATOM      2  C   UNL     1       4.125   3.936  17.547  0.00  0.00    +0.000 C 
ATOM      3  O   UNL     1       4.623   3.161  18.359  0.00  0.00    +0.000 OA
ATOM      4  H   UNL     1       4.356   5.161  15.896  0.00  0.00    +0.000 HD
ENDROOT
BRANCH   1   5
ATOM      5  C   UNL     1       6.259   4.328  16.338  0.00  0.00    +0.000 C 
BRANCH   5   6
ATOM      6  C   UNL     1       6.559   4.316  14.844  0.00  0.00    +0.000 A 
ATOM      7  C   UNL     1       7.576   5.130  14.323  0.00  0.00    +0.000 A 
ATOM      8  C   UNL     1       7.845   5.145  12.953  0.00  0.00    +0.000 A 
ATOM      9  C   UNL     1       7.110   4.342  12.083  0.00  0.00    +0.000 A 
ATOM     10  C   UNL     1       6.106   3.518  12.585  0.00  0.00    +0.000 A 
ATOM     11  C   UNL     1       5.835   3.502  13.954  0.00  0.00    +0.000 A 
ENDBRANCH   5   6
BRANCH   5  12
ATOM     12  C   UNL     1       7.112   5.389  17.063  0.00  0.00    +0.000 C 
BRANCH  12  14
ATOM     13  C   UNL     1       7.419   7.853  17.467  0.00  0.00    +0.000 C 
ATOM     14  C   UNL     1       6.410   6.744  17.201  0.00  0.00    +0.000 C 
ENDBRANCH  12  14
ENDBRANCH   5  12
ENDBRANCH   1   5
BRANCH   2  15
ATOM     15  C   UNL     1       2.654   4.316  17.593  0.00  0.00    +0.000 C 
BRANCH  15  16
ATOM     16  C   UNL     1       2.369   5.454  18.546  0.00  0.00    +0.000 A 
ATOM     17  C   UNL     1       2.505   6.783  18.126  0.00  0.00    +0.000 A 
ATOM     18  C   UNL     1       2.212   7.835  18.998  0.00  0.00    +0.000 A 
ATOM     19  C   UNL     1       1.779   7.575  20.304  0.00  0.00    +0.000 A 
ATOM     20  C   UNL     1       1.618   6.250  20.724  0.00  0.00    +0.000 A 
ATOM     21  C   UNL     1       1.919   5.199  19.851  0.00  0.00    +0.000 A 
BRANCH  19  22
ATOM     22  C   UNL     1       1.452   8.739  21.169  0.00  0.00    +0.000 C 
ATOM     23  O   UNL     1       0.690   9.625  20.821  0.00  0.00    +0.000 OA
BRANCH  22  24
ATOM     24  O   UNL     1       2.101   8.757  22.352  0.00  0.00    +0.000 OA
ATOM     25  H   UNL     1       2.424   7.892  22.664  0.00  0.00    +0.000 HD
ENDBRANCH  22  24
ENDBRANCH  19  22
ENDBRANCH  15  16
ENDBRANCH   2  15
TORSDOF 8
ENDMDL
MODEL 6
REMARK VINA RESULT:      -7.2      4.649      6.683
REMARK  Name = 
REMARK  9 active torsions:
REMARK  status: ('A' for Active; 'I' for Inactive)
REMARK    1  A    between atoms: C_1  and  C_2
REMARK    2  A    between atoms: C_2  and  C_3
REMARK    3  A    between atoms: C_3  and  C_4
REMARK    4  A    between atoms: C_4  and  N_5
REMARK    5  A    between atoms: C_4  and  C_18
REMARK    6  A    between atoms: C_6  and  C_8
REMARK    7  A    between atoms: C_8  and  C_9
REMARK    8  A    between atoms: C_12  and  C_13
REMARK    9  A    between atoms: C_13  and  O_15
REMARK                            x       y       z     vdW  Elec       q    Type
REMARK                         _______ _______ _______ _____ _____    ______ ____
ROOT
ATOM      1  N   UNL     1       0.681   9.519  18.447  0.00  0.00    +0.000 N 
ATOM      2  C   UNL     1       1.982   9.640  18.013  0.00  0.00    +0.000 C 
ATOM      3  O   UNL     1       2.607  10.697  18.018  0.00  0.00    +0.000 OA
ATOM      4  H   UNL     1       0.220   8.623  18.388  0.00  0.00    +0.000 HD
ENDROOT
BRANCH   1   5
ATOM      5  C   UNL     1      -0.094  10.653  18.928  0.00  0.00    +0.000 C 
BRANCH   5   6
ATOM      6  C   UNL     1      -1.460  10.659  18.254  0.00  0.00    +0.000 A 
ATOM      7  C   UNL     1      -1.700   9.840  17.141  0.00  0.00    +0.000 A 
ATOM      8  C   UNL     1      -2.940   9.852  16.500  0.00  0.00    +0.000 A 
ATOM      9  C   UNL     1      -3.963  10.676  16.965  0.00  0.00    +0.000 A 
ATOM     10  C   UNL     1      -3.746  11.486  18.077  0.00  0.00    +0.000 A 
ATOM     11  C   UNL     1      -2.507  11.475  18.718  0.00  0.00    +0.000 A 
ENDBRANCH   5   6
BRANCH   5  12
ATOM     12  C   UNL     1      -0.237  10.625  20.464  0.00  0.00    +0.000 C 
BRANCH  12  14
ATOM     13  C   UNL     1      -0.132   9.188  22.526  0.00  0.00    +0.000 C 
ATOM     14  C   UNL     1      -0.424   9.214  21.031  0.00  0.00    +0.000 C 
ENDBRANCH  12  14
ENDBRANCH   5  12
ENDBRANCH   1   5
BRANCH   2  15
ATOM     15  C   UNL     1       2.611   8.335  17.555  0.00  0.00    +0.000 C 
BRANCH  15  16
ATOM     16  C   UNL     1       2.298   7.176  18.472  0.00  0.00    +0.000 A 
ATOM     17  C   UNL     1       2.165   5.879  17.960  0.00  0.00    +0.000 A 
ATOM     18  C   UNL     1       1.906   4.803  18.813  0.00  0.00    +0.000 A 
ATOM     19  C   UNL     1       1.777   5.006  20.192  0.00  0.00    +0.000 A 
ATOM     20  C   UNL     1       1.933   6.294  20.716  0.00  0.00    +0.000 A 
ATOM     21  C   UNL     1       2.185   7.371  19.858  0.00  0.00    +0.000 A 
BRANCH  19  22
ATOM     22  C   UNL     1       1.537   3.814  21.047  0.00  0.00    +0.000 C 
ATOM     23  O   UNL     1       2.207   3.566  22.036  0.00  0.00    +0.000 OA
BRANCH  22  24
ATOM     24  O   UNL     1       0.545   3.007  20.616  0.00  0.00    +0.000 OA
ATOM     25  H   UNL     1      -0.004   3.368  19.896  0.00  0.00    +0.000 HD
ENDBRANCH  22  24
ENDBRANCH  19  22
ENDBRANCH  15  16
ENDBRANCH   2  15
TORSDOF 8
ENDMDL
MODEL 7
REMARK VINA RESULT:      -7.2      2.521      7.709
REMARK  Name = 
REMARK  9 active torsions:
REMARK  status: ('A' for Active; 'I' for Inactive)
REMARK    1  A    between atoms: C_1  and  C_2
REMARK    2  A    between atoms: C_2  and  C_3
REMARK    3  A    between atoms: C_3  and  C_4
REMARK    4  A    between atoms: C_4  and  N_5
REMARK    5  A    between atoms: C_4  and  C_18
REMARK    6  A    between atoms: C_6  and  C_8
REMARK    7  A    between atoms: C_8  and  C_9
REMARK    8  A    between atoms: C_12  and  C_13
REMARK    9  A    between atoms: C_13  and  O_15
REMARK                            x       y       z     vdW  Elec       q    Type
REMARK                         _______ _______ _______ _____ _____    ______ ____
ROOT
ATOM      1  N   UNL     1       5.183   4.856  16.607  0.00  0.00    +0.000 N 
ATOM      2  C   UNL     1       4.854   4.314  17.829  0.00  0.00    +0.000 C 
ATOM      3  O   UNL     1       5.682   3.992  18.677  0.00  0.00    +0.000 OA
ATOM      4  H   UNL     1       4.450   5.072  15.947  0.00  0.00    +0.000 HD
ENDROOT
BRANCH   1   5
ATOM      5  C   UNL     1       6.560   5.071  16.189  0.00  0.00    +0.000 C 
BRANCH   5   6
ATOM      6  C   UNL     1       6.706   4.717  14.714  0.00  0.00    +0.000 A 
ATOM      7  C   UNL     1       7.658   5.377  13.922  0.00  0.00    +0.000 A 
ATOM      8  C   UNL     1       7.786   5.079  12.565  0.00  0.00    +0.000 A 
ATOM      9  C   UNL     1       6.971   4.112  11.978  0.00  0.00    +0.000 A 
ATOM     10  C   UNL     1       6.031   3.438  12.752  0.00  0.00    +0.000 A 
ATOM     11  C   UNL     1       5.901   3.735  14.109  0.00  0.00    +0.000 A 
ENDBRANCH   5   6
BRANCH   5  12
ATOM     12  C   UNL     1       7.008   6.522  16.455  0.00  0.00    +0.000 C 
BRANCH  12  14
ATOM     13  C   UNL     1       8.082   8.166  18.028  0.00  0.00    +0.000 C 
ATOM     14  C   UNL     1       7.627   6.724  17.842  0.00  0.00    +0.000 C 
ENDBRANCH  12  14
ENDBRANCH   5  12
ENDBRANCH   1   5
BRANCH   2  15
ATOM     15  C   UNL     1       3.359   4.178  18.069  0.00  0.00    +0.000 C 
BRANCH  15  16
ATOM     16  C   UNL     1       2.768   5.362  18.797  0.00  0.00    +0.000 A 
ATOM     17  C   UNL     1       2.219   5.208  20.076  0.00  0.00    +0.000 A 
ATOM     18  C   UNL     1       1.701   6.311  20.762  0.00  0.00    +0.000 A 
ATOM     19  C   UNL     1       1.723   7.584  20.179  0.00  0.00    +0.000 A 
ATOM     20  C   UNL     1       2.292   7.751  18.912  0.00  0.00    +0.000 A 
ATOM     21  C   UNL     1       2.804   6.644  18.225  0.00  0.00    +0.000 A 
BRANCH  19  22
ATOM     22  C   UNL     1       1.187   8.718  20.976  0.00  0.00    +0.000 C 
ATOM     23  O   UNL     1       1.304   8.786  22.188  0.00  0.00    +0.000 OA
BRANCH  22  24
ATOM     24  O   UNL     1       0.522   9.645  20.253  0.00  0.00    +0.000 OA
ATOM     25  H   UNL     1       0.781  10.568  20.419  0.00  0.00    +0.000 HD
ENDBRANCH  22  24
ENDBRANCH  19  22
ENDBRANCH  15  16
ENDBRANCH   2  15
TORSDOF 8
ENDMDL
MODEL 8
REMARK VINA RESULT:      -7.2      1.156      2.099
REMARK  Name = 
REMARK  9 active torsions:
REMARK  status: ('A' for Active; 'I' for Inactive)
REMARK    1  A    between atoms: C_1  and  C_2
REMARK    2  A    between atoms: C_2  and  C_3
REMARK    3  A    between atoms: C_3  and  C_4
REMARK    4  A    between atoms: C_4  and  N_5
REMARK    5  A    between atoms: C_4  and  C_18
REMARK    6  A    between atoms: C_6  and  C_8
REMARK    7  A    between atoms: C_8  and  C_9
REMARK    8  A    between atoms: C_12  and  C_13
REMARK    9  A    between atoms: C_13  and  O_15
REMARK                            x       y       z     vdW  Elec       q    Type
REMARK                         _______ _______ _______ _____ _____    ______ ____
ROOT
ATOM      1  N   UNL     1       3.005   4.930  18.657  0.00  0.00    +0.000 N 
ATOM      2  C   UNL     1       4.137   4.168  18.482  0.00  0.00    +0.000 C 
ATOM      3  O   UNL     1       5.055   4.113  19.296  0.00  0.00    +0.000 OA
ATOM      4  H   UNL     1       2.302   4.949  17.932  0.00  0.00    +0.000 HD
ENDROOT
BRANCH   1   5
ATOM      5  C   UNL     1       2.803   5.778  19.822  0.00  0.00    +0.000 C 
BRANCH   5   6
ATOM      6  C   UNL     1       2.336   7.158  19.374  0.00  0.00    +0.000 A 
ATOM      7  C   UNL     1       1.632   7.986  20.260  0.00  0.00    +0.000 A 
ATOM      8  C   UNL     1       1.179   9.243  19.855  0.00  0.00    +0.000 A 
ATOM      9  C   UNL     1       1.429   9.696  18.560  0.00  0.00    +0.000 A 
ATOM     10  C   UNL     1       2.139   8.892  17.672  0.00  0.00    +0.000 A 
ATOM     11  C   UNL     1       2.592   7.636  18.075  0.00  0.00    +0.000 A 
ENDBRANCH   5   6
BRANCH   5  12
ATOM     12  C   UNL     1       1.796   5.149  20.807  0.00  0.00    +0.000 C 
BRANCH  12  14
ATOM     13  C   UNL     1       1.432   2.723  21.364  0.00  0.00    +0.000 C 
ATOM     14  C   UNL     1       2.349   3.926  21.544  0.00  0.00    +0.000 C 
ENDBRANCH  12  14
ENDBRANCH   5  12
ENDBRANCH   1   5
BRANCH   2  15
ATOM     15  C   UNL     1       4.149   3.353  17.199  0.00  0.00    +0.000 C 
BRANCH  15  16
ATOM     16  C   UNL     1       5.164   3.848  16.195  0.00  0.00    +0.000 A 
ATOM     17  C   UNL     1       5.009   3.570  14.831  0.00  0.00    +0.000 A 
ATOM     18  C   UNL     1       5.932   4.054  13.900  0.00  0.00    +0.000 A 
ATOM     19  C   UNL     1       7.026   4.823  14.318  0.00  0.00    +0.000 A 
ATOM     20  C   UNL     1       7.175   5.125  15.676  0.00  0.00    +0.000 A 
ATOM     21  C   UNL     1       6.253   4.633  16.607  0.00  0.00    +0.000 A 
BRANCH  19  22
ATOM     22  C   UNL     1       7.951   5.335  13.274  0.00  0.00    +0.000 C 
ATOM     23  O   UNL     1       8.894   6.066  13.530  0.00  0.00    +0.000 OA
BRANCH  22  24
ATOM     24  O   UNL     1       7.636   4.962  12.016  0.00  0.00    +0.000 OA
ATOM     25  H   UNL     1       7.119   4.140  11.942  0.00  0.00    +0.000 HD
ENDBRANCH  22  24
ENDBRANCH  19  22
ENDBRANCH  15  16
ENDBRANCH   2  15
TORSDOF 8
ENDMDL
MODEL 9
REMARK VINA RESULT:      -7.2      3.005      4.408
REMARK  Name = 
REMARK  9 active torsions:
REMARK  status: ('A' for Active; 'I' for Inactive)
REMARK    1  A    between atoms: C_1  and  C_2
REMARK    2  A    between atoms: C_2  and  C_3
REMARK    3  A    between atoms: C_3  and  C_4
REMARK    4  A    between atoms: C_4  and  N_5
REMARK    5  A    between atoms: C_4  and  C_18
REMARK    6  A    between atoms: C_6  and  C_8
REMARK    7  A    between atoms: C_8  and  C_9
REMARK    8  A    between atoms: C_12  and  C_13
REMARK    9  A    between atoms: C_13  and  O_15
REMARK                            x       y       z     vdW  Elec       q    Type
REMARK                         _______ _______ _______ _____ _____    ______ ____
ROOT
ATOM      1  N   UNL     1       4.091   4.909  18.038  0.00  0.00    +0.000 N 
ATOM      2  C   UNL     1       5.257   4.283  18.417  0.00  0.00    +0.000 C 
ATOM      3  O   UNL     1       5.345   3.535  19.386  0.00  0.00    +0.000 OA
ATOM      4  H   UNL     1       4.099   5.534  17.245  0.00  0.00    +0.000 HD
ENDROOT
BRANCH   1   5
ATOM      5  C   UNL     1       2.847   4.766  18.780  0.00  0.00    +0.000 C 
BRANCH   5   6
ATOM      6  C   UNL     1       2.341   6.142  19.195  0.00  0.00    +0.000 A 
ATOM      7  C   UNL     1       2.426   7.222  18.305  0.00  0.00    +0.000 A 
ATOM      8  C   UNL     1       1.986   8.493  18.681  0.00  0.00    +0.000 A 
ATOM      9  C   UNL     1       1.448   8.703  19.950  0.00  0.00    +0.000 A 
ATOM     10  C   UNL     1       1.344   7.638  20.841  0.00  0.00    +0.000 A 
ATOM     11  C   UNL     1       1.783   6.368  20.467  0.00  0.00    +0.000 A 
ENDBRANCH   5   6
BRANCH   5  12
ATOM     12  C   UNL     1       1.784   4.014  17.953  0.00  0.00    +0.000 C 
BRANCH  12  14
ATOM     13  C   UNL     1       1.949   2.386  19.863  0.00  0.00    +0.000 C 
ATOM     14  C   UNL     1       1.066   2.914  18.740  0.00  0.00    +0.000 C 
ENDBRANCH  12  14
ENDBRANCH   5  12
ENDBRANCH   1   5
BRANCH   2  15
ATOM     15  C   UNL     1       6.440   4.563  17.505  0.00  0.00    +0.000 C 
BRANCH  15  16
ATOM     16  C   UNL     1       7.112   5.884  17.798  0.00  0.00    +0.000 A 
ATOM     17  C   UNL     1       6.885   6.995  16.975  0.00  0.00    +0.000 A 
ATOM     18  C   UNL     1       7.482   8.225  17.266  0.00  0.00    +0.000 A 
ATOM     19  C   UNL     1       8.315   8.364  18.383  0.00  0.00    +0.000 A 
ATOM     20  C   UNL     1       8.527   7.266  19.224  0.00  0.00    +0.000 A 
ATOM     21  C   UNL     1       7.934   6.034  18.927  0.00  0.00    +0.000 A 
BRANCH  19  22
ATOM     22  C   UNL     1       8.890   9.708  18.653  0.00  0.00    +0.000 C 
ATOM     23  O   UNL     1       9.087  10.530  17.774  0.00  0.00    +0.000 OA
BRANCH  22  24
ATOM     24  O   UNL     1       9.217   9.927  19.945  0.00  0.00    +0.000 OA
ATOM     25  H   UNL     1       9.609   9.167  20.410  0.00  0.00    +0.000 HD
ENDBRANCH  22  24
ENDBRANCH  19  22
ENDBRANCH  15  16
ENDBRANCH   2  15
TORSDOF 8
ENDMDL
