MODEL 1
REMARK VINA RESULT:      -7.7      0.000      0.000
REMARK  Name = 
REMARK  14 active torsions:
REMARK  status: ('A' for Active; 'I' for Inactive)
REMARK    1  A    between atoms: C_2  and  C_3
REMARK    2  A    between atoms: N_5  and  C_6
REMARK    3  A    between atoms: C_10  and  C_11
REMARK    4  A    between atoms: C_11  and  N_12
REMARK    5  A    between atoms: N_12  and  C_13
REMARK    6  A    between atoms: N_16  and  C_17
REMARK    7  A    between atoms: C_17  and  C_18
REMARK    8  A    between atoms: C_18  and  C_19
REMARK    9  A    between atoms: C_19  and  C_20
REMARK   10  A    between atoms: C_20  and  N_21
REMARK   11  A    between atoms: N_21  and  C_22
REMARK   12  A    between atoms: N_21  and  C_24
REMARK   13  A    between atoms: C_22  and  C_23
REMARK   14  A    between atoms: C_24  and  C_25
REMARK                            x       y       z     vdW  Elec       q    Type
REMARK                         _______ _______ _______ _____ _____    ______ ____
ROOT
ATOM      1  C   UNL     1       6.379   4.889  18.189  0.00  0.00    +0.000 A 
ATOM      2  N   UNL     1       7.034   5.885  18.818  0.00  0.00    +0.000 NA
ATOM      3  C   UNL     1       7.638   6.820  18.076  0.00  0.00    +0.000 A 
ATOM      4  N   UNL     1       8.338   7.767  18.791  0.00  0.00    +0.000 N 
ATOM      5  N   UNL     1       7.598   6.856  16.740  0.00  0.00    +0.000 NA
ATOM      6  C   UNL     1       6.923   5.864  16.131  0.00  0.00    +0.000 A 
ATOM      7  C   UNL     1       6.280   4.854  16.805  0.00  0.00    +0.000 A 
ATOM      8 CL   UNL     1       5.455   3.617  15.942  0.00  0.00    +0.000 Cl
ATOM      9  H   UNL     1       8.026   7.727  19.753  0.00  0.00    +0.000 HD
ENDROOT
BRANCH   1  10
ATOM     10  N   UNL     1       5.750   3.894  18.969  0.00  0.00    +0.000 N 
ATOM     11  H   UNL     1       6.463   3.215  19.225  0.00  0.00    +0.000 HD
BRANCH  10  12
ATOM     12  C   UNL     1       4.591   3.258  18.353  0.00  0.00    +0.000 C 
BRANCH  12  17
ATOM     13  C   UNL     1       1.928   5.110  20.408  0.00  0.00    +0.000 A 
ATOM     14  C   UNL     1       0.948   4.117  20.489  0.00  0.00    +0.000 A 
ATOM     15  C   UNL     1       1.136   2.872  19.895  0.00  0.00    +0.000 A 
ATOM     16  C   UNL     1       2.317   2.600  19.213  0.00  0.00    +0.000 A 
ATOM     17  C   UNL     1       3.313   3.580  19.104  0.00  0.00    +0.000 A 
ATOM     18  C   UNL     1       3.102   4.843  19.692  0.00  0.00    +0.000 A 
BRANCH  13  21
ATOM     19  C   UNL     1       1.767   7.593  20.338  0.00  0.00    +0.000 C 
ATOM     20  O   UNL     1       1.821   7.741  19.118  0.00  0.00    +0.000 OA
ATOM     21  N   UNL     1       1.771   6.379  21.010  0.00  0.00    +0.000 N 
ATOM     22  H   UNL     1       1.576   6.388  22.003  0.00  0.00    +0.000 HD
BRANCH  19  24
ATOM     23  C   UNL     1       0.441   9.048  21.766  0.00  0.00    +0.000 C 
ATOM     24  C   UNL     1       1.637   8.769  21.230  0.00  0.00    +0.000 C 
ENDBRANCH  19  24
ENDBRANCH  13  21
ENDBRANCH  12  17
ENDBRANCH  10  12
ENDBRANCH   1  10
BRANCH   4  25
ATOM     25  C   UNL     1       8.458   9.081  18.197  0.00  0.00    +0.000 C 
BRANCH  25  26
ATOM     26  C   UNL     1       9.250   9.990  19.141  0.00  0.00    +0.000 C 
BRANCH  26  27
ATOM     27  C   UNL     1       9.871  11.166  18.378  0.00  0.00    +0.000 C 
BRANCH  27  28
ATOM     28  C   UNL     1       9.237  12.524  18.696  0.00  0.00    +0.000 C 
BRANCH  28  29
ATOM     29  N   UNL     1      10.162  13.654  18.924  0.00  0.00    +0.000 NA
BRANCH  29  30
ATOM     30  C   UNL     1      10.082  14.703  17.893  0.00  0.00    +0.000 C 
ATOM     31  C   UNL     1      11.337  14.941  17.057  0.00  0.00    +0.000 C 
ENDBRANCH  29  30
BRANCH  29  32
ATOM     32  C   UNL     1       9.965  14.155  20.298  0.00  0.00    +0.000 C 
ATOM     33  C   UNL     1       9.350  13.151  21.266  0.00  0.00    +0.000 C 
ENDBRANCH  29  32
ENDBRANCH  28  29
ENDBRANCH  27  28
ENDBRANCH  26  27
ENDBRANCH  25  26
ENDBRANCH   4  25
TORSDOF 12
ENDMDL
MODEL 2
REMARK VINA RESULT:      -7.6      1.553      1.784
REMARK  Name = 
REMARK  14 active torsions:
REMARK  status: ('A' for Active; 'I' for Inactive)
REMARK    1  A    between atoms: C_2  and  C_3
REMARK    2  A    between atoms: N_5  and  C_6
REMARK    3  A    between atoms: C_10  and  C_11
REMARK    4  A    between atoms: C_11  and  N_12
REMARK    5  A    between atoms: N_12  and  C_13
REMARK    6  A    between atoms: N_16  and  C_17
REMARK    7  A    between atoms: C_17  and  C_18
REMARK    8  A    between atoms: C_18  and  C_19
REMARK    9  A    between atoms: C_19  and  C_20
REMARK   10  A    between atoms: C_20  and  N_21
REMARK   11  A    between atoms: N_21  and  C_22
REMARK   12  A    between atoms: N_21  and  C_24
REMARK   13  A    between atoms: C_22  and  C_23
REMARK   14  A    between atoms: C_24  and  C_25
REMARK                            x       y       z     vdW  Elec       q    Type
REMARK                         _______ _______ _______ _____ _____    ______ ____
ROOT
ATOM      1  C   UNL     1       6.663   4.879  18.000  0.00  0.00    +0.000 A 
ATOM      2  N   UNL     1       7.297   5.868  18.659  0.00  0.00    +0.000 NA
ATOM      3  C   UNL     1       7.768   6.904  17.956  0.00  0.00    +0.000 A 
ATOM      4  N   UNL     1       8.458   7.842  18.692  0.00  0.00    +0.000 N 
ATOM      5  N   UNL     1       7.611   7.045  16.635  0.00  0.00    +0.000 NA
ATOM      6  C   UNL     1       6.958   6.055  15.997  0.00  0.00    +0.000 A 
ATOM      7  C   UNL     1       6.448   4.948  16.631  0.00  0.00    +0.000 A 
ATOM      8 CL   UNL     1       5.643   3.724  15.731  0.00  0.00    +0.000 Cl
ATOM      9  H   UNL     1       8.233   7.700  19.669  0.00  0.00    +0.000 HD
ENDROOT
BRANCH   1  10
ATOM     10  N   UNL     1       6.175   3.777  18.737  0.00  0.00    +0.000 N 
ATOM     11  H   UNL     1       5.885   3.069  18.067  0.00  0.00    +0.000 HD
BRANCH  10  12
ATOM     12  C   UNL     1       5.118   4.085  19.694  0.00  0.00    +0.000 C 
BRANCH  12  17
ATOM     13  C   UNL     1       2.309   6.262  18.239  0.00  0.00    +0.000 A 
ATOM     14  C   UNL     1       1.476   5.268  17.717  0.00  0.00    +0.000 A 
ATOM     15  C   UNL     1       1.808   3.921  17.829  0.00  0.00    +0.000 A 
ATOM     16  C   UNL     1       2.982   3.547  18.475  0.00  0.00    +0.000 A 
ATOM     17  C   UNL     1       3.844   4.521  18.997  0.00  0.00    +0.000 A 
ATOM     18  C   UNL     1       3.507   5.882  18.859  0.00  0.00    +0.000 A 
BRANCH  13  21
ATOM     19  C   UNL     1       1.613   8.444  19.211  0.00  0.00    +0.000 C 
ATOM     20  O   UNL     1       1.568   8.106  20.394  0.00  0.00    +0.000 OA
ATOM     21  N   UNL     1       1.994   7.636  18.150  0.00  0.00    +0.000 N 
ATOM     22  H   UNL     1       2.129   8.074  17.248  0.00  0.00    +0.000 HD
BRANCH  19  24
ATOM     23  C   UNL     1       2.106  10.473  17.966  0.00  0.00    +0.000 C 
ATOM     24  C   UNL     1       1.292   9.836  18.817  0.00  0.00    +0.000 C 
ENDBRANCH  19  24
ENDBRANCH  13  21
ENDBRANCH  12  17
ENDBRANCH  10  12
ENDBRANCH   1  10
BRANCH   4  25
ATOM     25  C   UNL     1       8.433   9.205  18.208  0.00  0.00    +0.000 C 
BRANCH  25  26
ATOM     26  C   UNL     1       9.110  10.117  19.235  0.00  0.00    +0.000 C 
BRANCH  26  27
ATOM     27  C   UNL     1      10.216  10.953  18.581  0.00  0.00    +0.000 C 
BRANCH  27  28
ATOM     28  C   UNL     1       9.715  12.226  17.892  0.00  0.00    +0.000 C 
BRANCH  28  29
ATOM     29  N   UNL     1       9.720  13.466  18.698  0.00  0.00    +0.000 NA
BRANCH  29  30
ATOM     30  C   UNL     1       8.388  13.860  19.187  0.00  0.00    +0.000 C 
ATOM     31  C   UNL     1       7.771  15.110  18.565  0.00  0.00    +0.000 C 
ENDBRANCH  29  30
BRANCH  29  32
ATOM     32  C   UNL     1      10.729  13.329  19.766  0.00  0.00    +0.000 C 
ATOM     33  C   UNL     1      10.471  14.176  21.007  0.00  0.00    +0.000 C 
ENDBRANCH  29  32
ENDBRANCH  28  29
ENDBRANCH  27  28
ENDBRANCH  26  27
ENDBRANCH  25  26
ENDBRANCH   4  25
TORSDOF 12
ENDMDL
MODEL 3
REMARK VINA RESULT:      -7.5      3.194      7.976
REMARK  Name = 
REMARK  14 active torsions:
REMARK  status: ('A' for Active; 'I' for Inactive)
REMARK    1  A    between atoms: C_2  and  C_3
REMARK    2  A    between atoms: N_5  and  C_6
REMARK    3  A    between atoms: C_10  and  C_11
REMARK    4  A    between atoms: C_11  and  N_12
REMARK    5  A    between atoms: N_12  and  C_13
REMARK    6  A    between atoms: N_16  and  C_17
REMARK    7  A    between atoms: C_17  and  C_18
REMARK    8  A    between atoms: C_18  and  C_19
REMARK    9  A    between atoms: C_19  and  C_20
REMARK   10  A    between atoms: C_20  and  N_21
REMARK   11  A    between atoms: N_21  and  C_22
REMARK   12  A    between atoms: N_21  and  C_24
REMARK   13  A    between atoms: C_22  and  C_23
REMARK   14  A    between atoms: C_24  and  C_25
REMARK                            x       y       z     vdW  Elec       q    Type
REMARK                         _______ _______ _______ _____ _____    ______ ____
ROOT
ATOM      1  C   UNL     1       3.154   4.191  19.516  0.00  0.00    +0.000 A 
ATOM      2  N   UNL     1       3.151   5.528  19.671  0.00  0.00    +0.000 NA
ATOM      3  C   UNL     1       2.055   6.112  20.169  0.00  0.00    +0.000 A 
ATOM      4  N   UNL     1       2.107   7.486  20.237  0.00  0.00    +0.000 N 
ATOM      5  N   UNL     1       0.967   5.443  20.566  0.00  0.00    +0.000 NA
ATOM      6  C   UNL     1       0.996   4.105  20.421  0.00  0.00    +0.000 A 
ATOM      7  C   UNL     1       2.071   3.418  19.911  0.00  0.00    +0.000 A 
ATOM      8 CL   UNL     1       2.011   1.707  19.746  0.00  0.00    +0.000 Cl
ATOM      9  H   UNL     1       3.076   7.768  20.156  0.00  0.00    +0.000 HD
ENDROOT
BRANCH   1  10
ATOM     10  N   UNL     1       4.305   3.573  18.980  0.00  0.00    +0.000 N 
ATOM     11  H   UNL     1       5.090   4.197  19.149  0.00  0.00    +0.000 HD
BRANCH  10  12
ATOM     12  C   UNL     1       4.211   3.187  17.575  0.00  0.00    +0.000 C 
BRANCH  12  17
ATOM     13  C   UNL     1       6.869   5.698  16.402  0.00  0.00    +0.000 A 
ATOM     14  C   UNL     1       7.130   5.196  15.123  0.00  0.00    +0.000 A 
ATOM     15  C   UNL     1       6.466   4.071  14.644  0.00  0.00    +0.000 A 
ATOM     16  C   UNL     1       5.520   3.432  15.439  0.00  0.00    +0.000 A 
ATOM     17  C   UNL     1       5.245   3.904  16.730  0.00  0.00    +0.000 A 
ATOM     18  C   UNL     1       5.939   5.031  17.211  0.00  0.00    +0.000 A 
BRANCH  13  21
ATOM     19  C   UNL     1       7.937   7.014  18.223  0.00  0.00    +0.000 C 
ATOM     20  O   UNL     1       7.878   6.167  19.114  0.00  0.00    +0.000 OA
ATOM     21  N   UNL     1       7.518   6.844  16.912  0.00  0.00    +0.000 N 
ATOM     22  H   UNL     1       7.755   7.565  16.243  0.00  0.00    +0.000 HD
BRANCH  19  24
ATOM     23  C   UNL     1       8.051   9.416  17.862  0.00  0.00    +0.000 C 
ATOM     24  C   UNL     1       8.543   8.339  18.490  0.00  0.00    +0.000 C 
ENDBRANCH  19  24
ENDBRANCH  13  21
ENDBRANCH  12  17
ENDBRANCH  10  12
ENDBRANCH   1  10
BRANCH   4  25
ATOM     25  C   UNL     1       1.329   8.121  21.280  0.00  0.00    +0.000 C 
BRANCH  25  26
ATOM     26  C   UNL     1       1.014   9.562  20.866  0.00  0.00    +0.000 C 
BRANCH  26  27
ATOM     27  C   UNL     1       0.835   9.670  19.347  0.00  0.00    +0.000 C 
BRANCH  27  28
ATOM     28  C   UNL     1       0.050  10.906  18.896  0.00  0.00    +0.000 C 
BRANCH  28  29
ATOM     29  N   UNL     1      -1.375  10.968  19.286  0.00  0.00    +0.000 NA
BRANCH  29  30
ATOM     30  C   UNL     1      -1.910  12.338  19.362  0.00  0.00    +0.000 C 
ATOM     31  C   UNL     1      -3.294  12.501  19.984  0.00  0.00    +0.000 C 
ENDBRANCH  29  30
BRANCH  29  32
ATOM     32  C   UNL     1      -2.146  10.078  18.395  0.00  0.00    +0.000 C 
ATOM     33  C   UNL     1      -1.999  10.374  16.907  0.00  0.00    +0.000 C 
ENDBRANCH  29  32
ENDBRANCH  28  29
ENDBRANCH  27  28
ENDBRANCH  26  27
ENDBRANCH  25  26
ENDBRANCH   4  25
TORSDOF 12
ENDMDL
MODEL 4
REMARK VINA RESULT:      -7.5      5.399      9.360
REMARK  Name = 
REMARK  14 active torsions:
REMARK  status: ('A' for Active; 'I' for Inactive)
REMARK    1  A    between atoms: C_2  and  C_3
REMARK    2  A    between atoms: N_5  and  C_6
REMARK    3  A    between atoms: C_10  and  C_11
REMARK    4  A    between atoms: C_11  and  N_12
REMARK    5  A    between atoms: N_12  and  C_13
REMARK    6  A    between atoms: N_16  and  C_17
REMARK    7  A    between atoms: C_17  and  C_18
REMARK    8  A    between atoms: C_18  and  C_19
REMARK    9  A    between atoms: C_19  and  C_20
REMARK   10  A    between atoms: C_20  and  N_21
REMARK   11  A    between atoms: N_21  and  C_22
REMARK   12  A    between atoms: N_21  and  C_24
REMARK   13  A    between atoms: C_22  and  C_23
REMARK   14  A    between atoms: C_24  and  C_25
REMARK                            x       y       z     vdW  Elec       q    Type
REMARK                         _______ _______ _______ _____ _____    ______ ____
ROOT
ATOM      1  C   UNL     1       2.350   7.769  18.609  0.00  0.00    +0.000 A 
ATOM      2  N   UNL     1       2.065   8.983  18.099  0.00  0.00    +0.000 NA
ATOM      3  C   UNL     1       1.357   9.838  18.846  0.00  0.00    +0.000 A 
ATOM      4  N   UNL     1       1.051  11.032  18.231  0.00  0.00    +0.000 N 
ATOM      5  N   UNL     1       0.948   9.582  20.093  0.00  0.00    +0.000 NA
ATOM      6  C   UNL     1       1.260   8.371  20.592  0.00  0.00    +0.000 A 
ATOM      7  C   UNL     1       1.973   7.423  19.899  0.00  0.00    +0.000 A 
ATOM      8 CL   UNL     1       2.311   5.894  20.611  0.00  0.00    +0.000 Cl
ATOM      9  H   UNL     1       1.663  11.138  17.431  0.00  0.00    +0.000 HD
ENDROOT
BRANCH   1  10
ATOM     10  N   UNL     1       3.087   6.859  17.819  0.00  0.00    +0.000 N 
ATOM     11  H   UNL     1       2.465   6.519  17.089  0.00  0.00    +0.000 HD
BRANCH  10  12
ATOM     12  C   UNL     1       3.716   5.764  18.550  0.00  0.00    +0.000 C 
BRANCH  12  17
ATOM     13  C   UNL     1       6.232   4.371  16.005  0.00  0.00    +0.000 A 
ATOM     14  C   UNL     1       7.417   4.512  16.732  0.00  0.00    +0.000 A 
ATOM     15  C   UNL     1       7.412   5.046  18.018  0.00  0.00    +0.000 A 
ATOM     16  C   UNL     1       6.213   5.442  18.600  0.00  0.00    +0.000 A 
ATOM     17  C   UNL     1       5.009   5.324  17.892  0.00  0.00    +0.000 A 
ATOM     18  C   UNL     1       5.030   4.801  16.584  0.00  0.00    +0.000 A 
BRANCH  13  21
ATOM     19  C   UNL     1       6.783   4.390  13.579  0.00  0.00    +0.000 C 
ATOM     20  O   UNL     1       7.473   5.409  13.561  0.00  0.00    +0.000 OA
ATOM     21  N   UNL     1       6.203   3.823  14.704  0.00  0.00    +0.000 N 
ATOM     22  H   UNL     1       5.783   2.907  14.607  0.00  0.00    +0.000 HD
BRANCH  19  24
ATOM     23  C   UNL     1       5.317   3.165  12.075  0.00  0.00    +0.000 C 
ATOM     24  C   UNL     1       6.550   3.622  12.334  0.00  0.00    +0.000 C 
ENDBRANCH  19  24
ENDBRANCH  13  21
ENDBRANCH  12  17
ENDBRANCH  10  12
ENDBRANCH   1  10
BRANCH   4  25
ATOM     25  C   UNL     1       0.890  12.189  19.086  0.00  0.00    +0.000 C 
BRANCH  25  26
ATOM     26  C   UNL     1      -0.602  12.492  19.247  0.00  0.00    +0.000 C 
BRANCH  26  27
ATOM     27  C   UNL     1      -1.393  12.026  18.018  0.00  0.00    +0.000 C 
BRANCH  27  28
ATOM     28  C   UNL     1      -2.818  11.562  18.331  0.00  0.00    +0.000 C 
BRANCH  28  29
ATOM     29  N   UNL     1      -3.496  10.751  17.296  0.00  0.00    +0.000 NA
BRANCH  29  30
ATOM     30  C   UNL     1      -4.613  11.447  16.636  0.00  0.00    +0.000 C 
ATOM     31  C   UNL     1      -5.710  11.999  17.542  0.00  0.00    +0.000 C 
ENDBRANCH  29  30
BRANCH  29  32
ATOM     32  C   UNL     1      -2.479  10.237  16.359  0.00  0.00    +0.000 C 
ATOM     33  C   UNL     1      -2.884  10.267  14.890  0.00  0.00    +0.000 C 
ENDBRANCH  29  32
ENDBRANCH  28  29
ENDBRANCH  27  28
ENDBRANCH  26  27
ENDBRANCH  25  26
ENDBRANCH   4  25
TORSDOF 12
ENDMDL
MODEL 5
REMARK VINA RESULT:      -7.5      5.055      8.146
REMARK  Name = 
REMARK  14 active torsions:
REMARK  status: ('A' for Active; 'I' for Inactive)
REMARK    1  A    between atoms: C_2  and  C_3
REMARK    2  A    between atoms: N_5  and  C_6
REMARK    3  A    between atoms: C_10  and  C_11
REMARK    4  A    between atoms: C_11  and  N_12
REMARK    5  A    between atoms: N_12  and  C_13
REMARK    6  A    between atoms: N_16  and  C_17
REMARK    7  A    between atoms: C_17  and  C_18
REMARK    8  A    between atoms: C_18  and  C_19
REMARK    9  A    between atoms: C_19  and  C_20
REMARK   10  A    between atoms: C_20  and  N_21
REMARK   11  A    between atoms: N_21  and  C_22
REMARK   12  A    between atoms: N_21  and  C_24
REMARK   13  A    between atoms: C_22  and  C_23
REMARK   14  A    between atoms: C_24  and  C_25
REMARK                            x       y       z     vdW  Elec       q    Type
REMARK                         _______ _______ _______ _____ _____    ______ ____
ROOT
ATOM      1  C   UNL     1       2.642   5.139  19.300  0.00  0.00    +0.000 A 
ATOM      2  N   UNL     1       2.633   6.199  18.470  0.00  0.00    +0.000 NA
ATOM      3  C   UNL     1       2.084   7.342  18.900  0.00  0.00    +0.000 A 
ATOM      4  N   UNL     1       2.056   8.359  17.972  0.00  0.00    +0.000 N 
ATOM      5  N   UNL     1       1.579   7.513  20.126  0.00  0.00    +0.000 NA
ATOM      6  C   UNL     1       1.614   6.447  20.947  0.00  0.00    +0.000 A 
ATOM      7  C   UNL     1       2.148   5.231  20.594  0.00  0.00    +0.000 A 
ATOM      8 CL   UNL     1       2.135   3.919  21.704  0.00  0.00    +0.000 Cl
ATOM      9  H   UNL     1       2.710   8.128  17.234  0.00  0.00    +0.000 HD
ENDROOT
BRANCH   1  10
ATOM     10  N   UNL     1       3.210   3.928  18.846  0.00  0.00    +0.000 N 
ATOM     11  H   UNL     1       2.619   3.171  19.182  0.00  0.00    +0.000 HD
BRANCH  10  12
ATOM     12  C   UNL     1       4.611   3.722  19.201  0.00  0.00    +0.000 C 
BRANCH  12  17
ATOM     13  C   UNL     1       6.416   4.544  15.913  0.00  0.00    +0.000 A 
ATOM     14  C   UNL     1       7.292   5.539  16.358  0.00  0.00    +0.000 A 
ATOM     15  C   UNL     1       7.304   5.940  17.690  0.00  0.00    +0.000 A 
ATOM     16  C   UNL     1       6.441   5.345  18.603  0.00  0.00    +0.000 A 
ATOM     17  C   UNL     1       5.542   4.354  18.185  0.00  0.00    +0.000 A 
ATOM     18  C   UNL     1       5.525   3.970  16.830  0.00  0.00    +0.000 A 
BRANCH  13  21
ATOM     19  C   UNL     1       7.108   4.666  13.526  0.00  0.00    +0.000 C 
ATOM     20  O   UNL     1       7.936   5.571  13.626  0.00  0.00    +0.000 OA
ATOM     21  N   UNL     1       6.387   4.107  14.570  0.00  0.00    +0.000 N 
ATOM     22  H   UNL     1       5.847   3.273  14.377  0.00  0.00    +0.000 HD
BRANCH  19  24
ATOM     23  C   UNL     1       5.838   3.157  12.104  0.00  0.00    +0.000 C 
ATOM     24  C   UNL     1       6.842   4.037  12.211  0.00  0.00    +0.000 C 
ENDBRANCH  19  24
ENDBRANCH  13  21
ENDBRANCH  12  17
ENDBRANCH  10  12
ENDBRANCH   1  10
BRANCH   4  25
ATOM     25  C   UNL     1       2.098   9.713  18.481  0.00  0.00    +0.000 C 
BRANCH  25  26
ATOM     26  C   UNL     1       0.796  10.430  18.115  0.00  0.00    +0.000 C 
BRANCH  26  27
ATOM     27  C   UNL     1      -0.071  10.664  19.358  0.00  0.00    +0.000 C 
BRANCH  27  28
ATOM     28  C   UNL     1       0.520  11.668  20.352  0.00  0.00    +0.000 C 
BRANCH  28  29
ATOM     29  N   UNL     1       0.234  11.434  21.784  0.00  0.00    +0.000 NA
BRANCH  29  30
ATOM     30  C   UNL     1      -0.684  12.423  22.373  0.00  0.00    +0.000 C 
ATOM     31  C   UNL     1      -2.173  12.229  22.093  0.00  0.00    +0.000 C 
ENDBRANCH  29  30
BRANCH  29  32
ATOM     32  C   UNL     1      -0.209  10.037  21.954  0.00  0.00    +0.000 C 
ATOM     33  C   UNL     1      -0.018   9.468  23.355  0.00  0.00    +0.000 C 
ENDBRANCH  29  32
ENDBRANCH  28  29
ENDBRANCH  27  28
ENDBRANCH  26  27
ENDBRANCH  25  26
ENDBRANCH   4  25
TORSDOF 12
ENDMDL
MODEL 6
REMARK VINA RESULT:      -7.4      5.475      9.329
REMARK  Name = 
REMARK  14 active torsions:
REMARK  status: ('A' for Active; 'I' for Inactive)
REMARK    1  A    between atoms: C_2  and  C_3
REMARK    2  A    between atoms: N_5  and  C_6
REMARK    3  A    between atoms: C_10  and  C_11
REMARK    4  A    between atoms: C_11  and  N_12
REMARK    5  A    between atoms: N_12  and  C_13
REMARK    6  A    between atoms: N_16  and  C_17
REMARK    7  A    between atoms: C_17  and  C_18
REMARK    8  A    between atoms: C_18  and  C_19
REMARK    9  A    between atoms: C_19  and  C_20
REMARK   10  A    between atoms: C_20  and  N_21
REMARK   11  A    between atoms: N_21  and  C_22
REMARK   12  A    between atoms: N_21  and  C_24
REMARK   13  A    between atoms: C_22  and  C_23
REMARK   14  A    between atoms: C_24  and  C_25
REMARK                            x       y       z     vdW  Elec       q    Type
REMARK                         _______ _______ _______ _____ _____    ______ ____
ROOT
ATOM      1  C   UNL     1      -0.062  10.408  20.332  0.00  0.00    +0.000 A 
ATOM      2  N   UNL     1       0.646   9.772  19.378  0.00  0.00    +0.000 NA
ATOM      3  C   UNL     1       1.422   8.743  19.738  0.00  0.00    +0.000 A 
ATOM      4  N   UNL     1       2.161   8.187  18.718  0.00  0.00    +0.000 N 
ATOM      5  N   UNL     1       1.507   8.271  20.986  0.00  0.00    +0.000 NA
ATOM      6  C   UNL     1       0.777   8.907  21.922  0.00  0.00    +0.000 A 
ATOM      7  C   UNL     1      -0.040   9.979  21.652  0.00  0.00    +0.000 A 
ATOM      8 CL   UNL     1      -0.923  10.741  22.915  0.00  0.00    +0.000 Cl
ATOM      9  H   UNL     1       1.761   8.491  17.839  0.00  0.00    +0.000 HD
ENDROOT
BRANCH   1  10
ATOM     10  N   UNL     1      -0.872  11.502  19.958  0.00  0.00    +0.000 N 
ATOM     11  H   UNL     1      -1.755  11.409  20.456  0.00  0.00    +0.000 HD
BRANCH  10  12
ATOM     12  C   UNL     1      -1.073  11.669  18.522  0.00  0.00    +0.000 C 
BRANCH  12  17
ATOM     13  C   UNL     1      -4.903  11.872  18.719  0.00  0.00    +0.000 A 
ATOM     14  C   UNL     1      -5.236  11.454  17.428  0.00  0.00    +0.000 A 
ATOM     15  C   UNL     1      -4.249  11.112  16.507  0.00  0.00    +0.000 A 
ATOM     16  C   UNL     1      -2.908  11.178  16.870  0.00  0.00    +0.000 A 
ATOM     17  C   UNL     1      -2.542  11.606  18.154  0.00  0.00    +0.000 A 
ATOM     18  C   UNL     1      -3.549  11.968  19.070  0.00  0.00    +0.000 A 
BRANCH  13  21
ATOM     19  C   UNL     1      -6.828  11.350  20.207  0.00  0.00    +0.000 C 
ATOM     20  O   UNL     1      -6.909  10.143  19.978  0.00  0.00    +0.000 OA
ATOM     21  N   UNL     1      -5.881  12.214  19.680  0.00  0.00    +0.000 N 
ATOM     22  H   UNL     1      -5.833  13.151  20.059  0.00  0.00    +0.000 HD
BRANCH  19  24
ATOM     23  C   UNL     1      -7.316  12.343  22.372  0.00  0.00    +0.000 C 
ATOM     24  C   UNL     1      -7.763  11.995  21.158  0.00  0.00    +0.000 C 
ENDBRANCH  19  24
ENDBRANCH  13  21
ENDBRANCH  12  17
ENDBRANCH  10  12
ENDBRANCH   1  10
BRANCH   4  25
ATOM     25  C   UNL     1       2.489   6.782  18.834  0.00  0.00    +0.000 C 
BRANCH  25  26
ATOM     26  C   UNL     1       3.698   6.472  17.948  0.00  0.00    +0.000 C 
BRANCH  26  27
ATOM     27  C   UNL     1       3.969   4.963  17.897  0.00  0.00    +0.000 C 
BRANCH  27  28
ATOM     28  C   UNL     1       5.433   4.582  18.137  0.00  0.00    +0.000 C 
BRANCH  28  29
ATOM     29  N   UNL     1       6.291   4.450  16.941  0.00  0.00    +0.000 NA
BRANCH  29  30
ATOM     30  C   UNL     1       5.550   4.116  15.714  0.00  0.00    +0.000 C 
ATOM     31  C   UNL     1       6.349   4.094  14.413  0.00  0.00    +0.000 C 
ENDBRANCH  29  30
BRANCH  29  32
ATOM     32  C   UNL     1       7.121   5.664  16.821  0.00  0.00    +0.000 C 
ATOM     33  C   UNL     1       7.477   6.333  18.144  0.00  0.00    +0.000 C 
ENDBRANCH  29  32
ENDBRANCH  28  29
ENDBRANCH  27  28
ENDBRANCH  26  27
ENDBRANCH  25  26
ENDBRANCH   4  25
TORSDOF 12
ENDMDL
MODEL 7
REMARK VINA RESULT:      -7.4      5.130      9.553
REMARK  Name = 
REMARK  14 active torsions:
REMARK  status: ('A' for Active; 'I' for Inactive)
REMARK    1  A    between atoms: C_2  and  C_3
REMARK    2  A    between atoms: N_5  and  C_6
REMARK    3  A    between atoms: C_10  and  C_11
REMARK    4  A    between atoms: C_11  and  N_12
REMARK    5  A    between atoms: N_12  and  C_13
REMARK    6  A    between atoms: N_16  and  C_17
REMARK    7  A    between atoms: C_17  and  C_18
REMARK    8  A    between atoms: C_18  and  C_19
REMARK    9  A    between atoms: C_19  and  C_20
REMARK   10  A    between atoms: C_20  and  N_21
REMARK   11  A    between atoms: N_21  and  C_22
REMARK   12  A    between atoms: N_21  and  C_24
REMARK   13  A    between atoms: C_22  and  C_23
REMARK   14  A    between atoms: C_24  and  C_25
REMARK                            x       y       z     vdW  Elec       q    Type
REMARK                         _______ _______ _______ _____ _____    ______ ____
ROOT
ATOM      1  C   UNL     1       1.559   8.559  20.037  0.00  0.00    +0.000 A 
ATOM      2  N   UNL     1       0.714   9.336  20.742  0.00  0.00    +0.000 NA
ATOM      3  C   UNL     1       0.149  10.384  20.131  0.00  0.00    +0.000 A 
ATOM      4  N   UNL     1      -0.651  11.165  20.936  0.00  0.00    +0.000 N 
ATOM      5  N   UNL     1       0.334  10.687  18.842  0.00  0.00    +0.000 NA
ATOM      6  C   UNL     1       1.166   9.887  18.148  0.00  0.00    +0.000 A 
ATOM      7  C   UNL     1       1.801   8.796  18.691  0.00  0.00    +0.000 A 
ATOM      8 CL   UNL     1       2.861   7.840  17.732  0.00  0.00    +0.000 Cl
ATOM      9  H   UNL     1      -0.874  10.632  21.767  0.00  0.00    +0.000 HD
ENDROOT
BRANCH   1  10
ATOM     10  N   UNL     1       2.167   7.460  20.682  0.00  0.00    +0.000 N 
ATOM     11  H   UNL     1       3.080   7.326  20.254  0.00  0.00    +0.000 HD
BRANCH  10  12
ATOM     12  C   UNL     1       1.384   6.229  20.690  0.00  0.00    +0.000 C 
BRANCH  12  17
ATOM     13  C   UNL     1       4.151   3.890  19.418  0.00  0.00    +0.000 A 
ATOM     14  C   UNL     1       3.834   2.728  20.127  0.00  0.00    +0.000 A 
ATOM     15  C   UNL     1       2.750   2.694  21.001  0.00  0.00    +0.000 A 
ATOM     16  C   UNL     1       1.961   3.826  21.172  0.00  0.00    +0.000 A 
ATOM     17  C   UNL     1       2.261   5.009  20.484  0.00  0.00    +0.000 A 
ATOM     18  C   UNL     1       3.372   5.037  19.618  0.00  0.00    +0.000 A 
BRANCH  13  21
ATOM     19  C   UNL     1       6.402   4.681  18.710  0.00  0.00    +0.000 C 
ATOM     20  O   UNL     1       6.695   5.315  19.723  0.00  0.00    +0.000 OA
ATOM     21  N   UNL     1       5.237   3.953  18.516  0.00  0.00    +0.000 N 
ATOM     22  H   UNL     1       5.182   3.359  17.698  0.00  0.00    +0.000 HD
BRANCH  19  24
ATOM     23  C   UNL     1       7.089   5.310  16.463  0.00  0.00    +0.000 C 
ATOM     24  C   UNL     1       7.349   4.606  17.573  0.00  0.00    +0.000 C 
ENDBRANCH  19  24
ENDBRANCH  13  21
ENDBRANCH  12  17
ENDBRANCH  10  12
ENDBRANCH   1  10
BRANCH   4  25
ATOM     25  C   UNL     1      -1.744  11.863  20.295  0.00  0.00    +0.000 C 
BRANCH  25  26
ATOM     26  C   UNL     1      -2.267  12.953  21.235  0.00  0.00    +0.000 C 
BRANCH  26  27
ATOM     27  C   UNL     1      -3.726  12.688  21.625  0.00  0.00    +0.000 C 
BRANCH  27  28
ATOM     28  C   UNL     1      -4.086  13.138  23.044  0.00  0.00    +0.000 C 
BRANCH  28  29
ATOM     29  N   UNL     1      -4.827  14.412  23.171  0.00  0.00    +0.000 NA
BRANCH  29  30
ATOM     30  C   UNL     1      -6.219  14.245  23.621  0.00  0.00    +0.000 C 
ATOM     31  C   UNL     1      -6.635  12.843  24.060  0.00  0.00    +0.000 C 
ENDBRANCH  29  30
BRANCH  29  32
ATOM     32  C   UNL     1      -4.038  15.335  24.009  0.00  0.00    +0.000 C 
ATOM     33  C   UNL     1      -3.129  14.659  25.030  0.00  0.00    +0.000 C 
ENDBRANCH  29  32
ENDBRANCH  28  29
ENDBRANCH  27  28
ENDBRANCH  26  27
ENDBRANCH  25  26
ENDBRANCH   4  25
TORSDOF 12
ENDMDL
MODEL 8
REMARK VINA RESULT:      -7.3      5.323      9.299
REMARK  Name = 
REMARK  14 active torsions:
REMARK  status: ('A' for Active; 'I' for Inactive)
REMARK    1  A    between atoms: C_2  and  C_3
REMARK    2  A    between atoms: N_5  and  C_6
REMARK    3  A    between atoms: C_10  and  C_11
REMARK    4  A    between atoms: C_11  and  N_12
REMARK    5  A    between atoms: N_12  and  C_13
REMARK    6  A    between atoms: N_16  and  C_17
REMARK    7  A    between atoms: C_17  and  C_18
REMARK    8  A    between atoms: C_18  and  C_19
REMARK    9  A    between atoms: C_19  and  C_20
REMARK   10  A    between atoms: C_20  and  N_21
REMARK   11  A    between atoms: N_21  and  C_22
REMARK   12  A    between atoms: N_21  and  C_24
REMARK   13  A    between atoms: C_22  and  C_23
REMARK   14  A    between atoms: C_24  and  C_25
REMARK                            x       y       z     vdW  Elec       q    Type
REMARK                         _______ _______ _______ _____ _____    ______ ____
ROOT
ATOM      1  C   UNL     1       1.672   7.981  20.489  0.00  0.00    +0.000 A 
ATOM      2  N   UNL     1       1.156   8.427  21.650  0.00  0.00    +0.000 NA
ATOM      3  C   UNL     1       0.465   9.574  21.643  0.00  0.00    +0.000 A 
ATOM      4  N   UNL     1       0.026   9.995  22.878  0.00  0.00    +0.000 N 
ATOM      5  N   UNL     1       0.214  10.288  20.542  0.00  0.00    +0.000 NA
ATOM      6  C   UNL     1       0.721   9.816  19.388  0.00  0.00    +0.000 A 
ATOM      7  C   UNL     1       1.452   8.655  19.296  0.00  0.00    +0.000 A 
ATOM      8 CL   UNL     1       2.076   8.136  17.780  0.00  0.00    +0.000 Cl
ATOM      9  H   UNL     1       0.074   9.209  23.514  0.00  0.00    +0.000 HD
ENDROOT
BRANCH   1  10
ATOM     10  N   UNL     1       2.412   6.778  20.495  0.00  0.00    +0.000 N 
ATOM     11  H   UNL     1       2.986   6.771  19.654  0.00  0.00    +0.000 HD
BRANCH  10  12
ATOM     12  C   UNL     1       1.621   5.558  20.621  0.00  0.00    +0.000 C 
BRANCH  12  17
ATOM     13  C   UNL     1       3.885   3.546  18.261  0.00  0.00    +0.000 A 
ATOM     14  C   UNL     1       3.248   2.302  18.314  0.00  0.00    +0.000 A 
ATOM     15  C   UNL     1       2.111   2.111  19.094  0.00  0.00    +0.000 A 
ATOM     16  C   UNL     1       1.588   3.168  19.830  0.00  0.00    +0.000 A 
ATOM     17  C   UNL     1       2.211   4.423  19.808  0.00  0.00    +0.000 A 
ATOM     18  C   UNL     1       3.373   4.599  19.031  0.00  0.00    +0.000 A 
BRANCH  13  21
ATOM     19  C   UNL     1       6.217   4.343  17.919  0.00  0.00    +0.000 C 
ATOM     20  O   UNL     1       6.470   4.660  19.081  0.00  0.00    +0.000 OA
ATOM     21  N   UNL     1       5.034   3.775  17.472  0.00  0.00    +0.000 N 
ATOM     22  H   UNL     1       5.006   3.428  16.521  0.00  0.00    +0.000 HD
BRANCH  19  24
ATOM     23  C   UNL     1       6.895   5.129  15.720  0.00  0.00    +0.000 C 
ATOM     24  C   UNL     1       7.238   4.511  16.859  0.00  0.00    +0.000 C 
ENDBRANCH  19  24
ENDBRANCH  13  21
ENDBRANCH  12  17
ENDBRANCH  10  12
ENDBRANCH   1  10
BRANCH   4  25
ATOM     25  C   UNL     1      -1.187  10.785  22.909  0.00  0.00    +0.000 C 
BRANCH  25  26
ATOM     26  C   UNL     1      -0.833  12.261  22.706  0.00  0.00    +0.000 C 
BRANCH  26  27
ATOM     27  C   UNL     1      -1.979  13.010  22.017  0.00  0.00    +0.000 C 
BRANCH  27  28
ATOM     28  C   UNL     1      -3.359  12.737  22.622  0.00  0.00    +0.000 C 
BRANCH  28  29
ATOM     29  N   UNL     1      -4.143  13.914  23.052  0.00  0.00    +0.000 NA
BRANCH  29  30
ATOM     30  C   UNL     1      -5.325  13.576  23.862  0.00  0.00    +0.000 C 
ATOM     31  C   UNL     1      -6.581  14.411  23.625  0.00  0.00    +0.000 C 
ENDBRANCH  29  30
BRANCH  29  32
ATOM     32  C   UNL     1      -3.232  14.875  23.704  0.00  0.00    +0.000 C 
ATOM     33  C   UNL     1      -3.137  14.745  25.220  0.00  0.00    +0.000 C 
ENDBRANCH  29  32
ENDBRANCH  28  29
ENDBRANCH  27  28
ENDBRANCH  26  27
ENDBRANCH  25  26
ENDBRANCH   4  25
TORSDOF 12
ENDMDL
MODEL 9
REMARK VINA RESULT:      -7.3      5.519      9.084
REMARK  Name = 
REMARK  14 active torsions:
REMARK  status: ('A' for Active; 'I' for Inactive)
REMARK    1  A    between atoms: C_2  and  C_3
REMARK    2  A    between atoms: N_5  and  C_6
REMARK    3  A    between atoms: C_10  and  C_11
REMARK    4  A    between atoms: C_11  and  N_12
REMARK    5  A    between atoms: N_12  and  C_13
REMARK    6  A    between atoms: N_16  and  C_17
REMARK    7  A    between atoms: C_17  and  C_18
REMARK    8  A    between atoms: C_18  and  C_19
REMARK    9  A    between atoms: C_19  and  C_20
REMARK   10  A    between atoms: C_20  and  N_21
REMARK   11  A    between atoms: N_21  and  C_22
REMARK   12  A    between atoms: N_21  and  C_24
REMARK   13  A    between atoms: C_22  and  C_23
REMARK   14  A    between atoms: C_24  and  C_25
REMARK                            x       y       z     vdW  Elec       q    Type
REMARK                         _______ _______ _______ _____ _____    ______ ____
ROOT
ATOM      1  C   UNL     1       1.820   8.108  20.059  0.00  0.00    +0.000 A 
ATOM      2  N   UNL     1       1.066   8.780  20.950  0.00  0.00    +0.000 NA
ATOM      3  C   UNL     1       0.526   9.947  20.579  0.00  0.00    +0.000 A 
ATOM      4  N   UNL     1      -0.177  10.603  21.565  0.00  0.00    +0.000 N 
ATOM      5  N   UNL     1       0.651  10.473  19.356  0.00  0.00    +0.000 NA
ATOM      6  C   UNL     1       1.392   9.777  18.473  0.00  0.00    +0.000 A 
ATOM      7  C   UNL     1       1.994   8.577  18.764  0.00  0.00    +0.000 A 
ATOM      8 CL   UNL     1       2.939   7.766  17.578  0.00  0.00    +0.000 Cl
ATOM      9  H   UNL     1      -0.381   9.937  22.300  0.00  0.00    +0.000 HD
ENDROOT
BRANCH   1  10
ATOM     10  N   UNL     1       2.402   6.882  20.451  0.00  0.00    +0.000 N 
ATOM     11  H   UNL     1       3.080   6.627  19.738  0.00  0.00    +0.000 HD
BRANCH  10  12
ATOM     12  C   UNL     1       1.460   5.800  20.717  0.00  0.00    +0.000 C 
BRANCH  12  17
ATOM     13  C   UNL     1       2.800   3.592  17.875  0.00  0.00    +0.000 A 
ATOM     14  C   UNL     1       2.042   2.437  18.086  0.00  0.00    +0.000 A 
ATOM     15  C   UNL     1       1.115   2.366  19.122  0.00  0.00    +0.000 A 
ATOM     16  C   UNL     1       0.928   3.458  19.963  0.00  0.00    +0.000 A 
ATOM     17  C   UNL     1       1.682   4.625  19.785  0.00  0.00    +0.000 A 
ATOM     18  C   UNL     1       2.632   4.678  18.745  0.00  0.00    +0.000 A 
BRANCH  13  21
ATOM     19  C   UNL     1       5.088   3.990  16.981  0.00  0.00    +0.000 C 
ATOM     20  O   UNL     1       5.679   4.120  18.052  0.00  0.00    +0.000 OA
ATOM     21  N   UNL     1       3.740   3.700  16.827  0.00  0.00    +0.000 N 
ATOM     22  H   UNL     1       3.409   3.475  15.897  0.00  0.00    +0.000 HD
BRANCH  19  24
ATOM     23  C   UNL     1       5.645   5.174  14.931  0.00  0.00    +0.000 C 
ATOM     24  C   UNL     1       5.827   4.093  15.701  0.00  0.00    +0.000 C 
ENDBRANCH  19  24
ENDBRANCH  13  21
ENDBRANCH  12  17
ENDBRANCH  10  12
ENDBRANCH   1  10
BRANCH   4  25
ATOM     25  C   UNL     1      -1.265  11.456  21.138  0.00  0.00    +0.000 C 
BRANCH  25  26
ATOM     26  C   UNL     1      -1.004  12.885  21.622  0.00  0.00    +0.000 C 
BRANCH  26  27
ATOM     27  C   UNL     1      -1.256  13.008  23.130  0.00  0.00    +0.000 C 
BRANCH  27  28
ATOM     28  C   UNL     1      -2.444  13.904  23.494  0.00  0.00    +0.000 C 
BRANCH  28  29
ATOM     29  N   UNL     1      -3.670  13.747  22.682  0.00  0.00    +0.000 NA
BRANCH  29  30
ATOM     30  C   UNL     1      -4.710  12.931  23.331  0.00  0.00    +0.000 C 
ATOM     31  C   UNL     1      -4.417  12.447  24.749  0.00  0.00    +0.000 C 
ENDBRANCH  29  30
BRANCH  29  32
ATOM     32  C   UNL     1      -4.136  15.085  22.270  0.00  0.00    +0.000 C 
ATOM     33  C   UNL     1      -4.993  15.814  23.299  0.00  0.00    +0.000 C 
ENDBRANCH  29  32
ENDBRANCH  28  29
ENDBRANCH  27  28
ENDBRANCH  26  27
ENDBRANCH  25  26
ENDBRANCH   4  25
TORSDOF 12
ENDMDL
