MODEL 1
REMARK VINA RESULT:      -7.9      0.000      0.000
REMARK  Name = 
REMARK  11 active torsions:
REMARK  status: ('A' for Active; 'I' for Inactive)
REMARK    1  A    between atoms: C_1  and  C_2
REMARK    2  A    between atoms: C_2  and  C_3
REMARK    3  A    between atoms: C_2  and  O_4
REMARK    4  A    between atoms: O_4  and  P_5
REMARK    5  A    between atoms: P_5  and  C_7
REMARK    6  A    between atoms: P_5  and  C_16
REMARK    7  A    between atoms: C_10  and  N_11
REMARK    8  A    between atoms: N_11  and  C_12
REMARK    9  A    between atoms: N_11  and  C_13
REMARK   10  A    between atoms: C_16  and  O_17
REMARK   11  A    between atoms: C_16  and  C_18
REMARK                            x       y       z     vdW  Elec       q    Type
REMARK                         _______ _______ _______ _____ _____    ______ ____
ROOT
ATOM      1  P   UNL     1       4.735   5.405  17.968  0.00  0.00    +0.000 P 
ATOM      2  O   UNL     1       5.521   5.063  19.255  0.00  0.00    +0.000 OA
ENDROOT
BRANCH   1   3
ATOM      3  C   UNL     1       3.265   6.650  18.392  0.00  0.00    +0.000 A 
ATOM      4  C   UNL     1       2.961   7.684  17.508  0.00  0.00    +0.000 A 
ATOM      5  C   UNL     1       2.129   8.743  17.919  0.00  0.00    +0.000 A 
ATOM      6  C   UNL     1       1.565   8.820  19.208  0.00  0.00    +0.000 A 
ATOM      7  C   UNL     1       1.844   7.758  20.073  0.00  0.00    +0.000 A 
ATOM      8  C   UNL     1       2.693   6.687  19.683  0.00  0.00    +0.000 A 
BRANCH   6   9
ATOM      9  N   UNL     1       0.775   9.930  19.526  0.00  0.00    +0.000 N 
ATOM     10  C   UNL     1      -0.274  10.385  18.622  0.00  0.00    +0.000 C 
ATOM     11  C   UNL     1       0.498  10.156  20.950  0.00  0.00    +0.000 C 
ENDBRANCH   6   9
ENDBRANCH   1   3
BRANCH   1  12
ATOM     12  O   UNL     1       5.633   6.877  17.835  0.00  0.00    +0.000 OA
BRANCH  12  14
ATOM     13  C   UNL     1       7.216   5.782  16.349  0.00  0.00    +0.000 C 
ATOM     14  C   UNL     1       7.026   6.616  17.616  0.00  0.00    +0.000 C 
ATOM     15  C   UNL     1       7.783   7.930  17.505  0.00  0.00    +0.000 C 
ENDBRANCH  12  14
ENDBRANCH   1  12
BRANCH   1  16
ATOM     16  C   UNL     1       3.785   3.847  18.109  0.00  0.00    +0.000 C 
BRANCH  16  17
ATOM     17  C   UNL     1       2.828   3.335  19.137  0.00  0.00    +0.000 A 
ATOM     18  C   UNL     1       3.377   2.860  20.356  0.00  0.00    +0.000 A 
ATOM     19  C   UNL     1       2.573   2.594  21.460  0.00  0.00    +0.000 A 
ATOM     20  C   UNL     1       1.202   2.791  21.362  0.00  0.00    +0.000 A 
ATOM     21  C   UNL     1       0.642   3.223  20.152  0.00  0.00    +0.000 A 
ATOM     22  C   UNL     1       1.457   3.488  19.049  0.00  0.00    +0.000 A 
ATOM     23  F   UNL     1       0.913   3.945  17.914  0.00  0.00    +0.000 F 
ENDBRANCH  16  17
BRANCH  16  24
ATOM     24  O   UNL     1       4.626   2.698  17.808  0.00  0.00    +0.000 OA
ATOM     25  H   UNL     1       4.211   1.908  18.195  0.00  0.00    +0.000 HD
ENDBRANCH  16  24
ENDBRANCH   1  16
TORSDOF 7
ENDMDL
MODEL 2
REMARK VINA RESULT:      -7.6      1.183      1.546
REMARK  Name = 
REMARK  11 active torsions:
REMARK  status: ('A' for Active; 'I' for Inactive)
REMARK    1  A    between atoms: C_1  and  C_2
REMARK    2  A    between atoms: C_2  and  C_3
REMARK    3  A    between atoms: C_2  and  O_4
REMARK    4  A    between atoms: O_4  and  P_5
REMARK    5  A    between atoms: P_5  and  C_7
REMARK    6  A    between atoms: P_5  and  C_16
REMARK    7  A    between atoms: C_10  and  N_11
REMARK    8  A    between atoms: N_11  and  C_12
REMARK    9  A    between atoms: N_11  and  C_13
REMARK   10  A    between atoms: C_16  and  O_17
REMARK   11  A    between atoms: C_16  and  C_18
REMARK                            x       y       z     vdW  Elec       q    Type
REMARK                         _______ _______ _______ _____ _____    ______ ____
ROOT
ATOM      1  P   UNL     1       5.225   4.674  18.188  0.00  0.00    +0.000 P 
ATOM      2  O   UNL     1       6.202   4.728  19.385  0.00  0.00    +0.000 OA
ENDROOT
BRANCH   1   3
ATOM      3  C   UNL     1       3.729   5.924  18.487  0.00  0.00    +0.000 A 
ATOM      4  C   UNL     1       3.472   6.926  17.553  0.00  0.00    +0.000 A 
ATOM      5  C   UNL     1       2.614   7.994  17.882  0.00  0.00    +0.000 A 
ATOM      6  C   UNL     1       1.978   8.111  19.134  0.00  0.00    +0.000 A 
ATOM      7  C   UNL     1       2.211   7.079  20.048  0.00  0.00    +0.000 A 
ATOM      8  C   UNL     1       3.084   6.001  19.741  0.00  0.00    +0.000 A 
BRANCH   6   9
ATOM      9  N   UNL     1       1.168   9.227  19.370  0.00  0.00    +0.000 N 
ATOM     10  C   UNL     1       0.654   9.508  20.705  0.00  0.00    +0.000 C 
ATOM     11  C   UNL     1       1.429  10.416  18.551  0.00  0.00    +0.000 C 
ENDBRANCH   6   9
ENDBRANCH   1   3
BRANCH   1  12
ATOM     12  O   UNL     1       5.974   6.091  17.538  0.00  0.00    +0.000 OA
BRANCH  12  14
ATOM     13  C   UNL     1       7.473   4.526  16.435  0.00  0.00    +0.000 C 
ATOM     14  C   UNL     1       6.643   5.802  16.303  0.00  0.00    +0.000 C 
ATOM     15  C   UNL     1       5.619   5.657  15.188  0.00  0.00    +0.000 C 
ENDBRANCH  12  14
ENDBRANCH   1  12
BRANCH   1  16
ATOM     16  C   UNL     1       4.432   3.174  18.875  0.00  0.00    +0.000 C 
BRANCH  16  17
ATOM     17  C   UNL     1       3.021   2.860  19.257  0.00  0.00    +0.000 A 
ATOM     18  C   UNL     1       2.712   2.838  20.641  0.00  0.00    +0.000 A 
ATOM     19  C   UNL     1       1.397   2.799  21.092  0.00  0.00    +0.000 A 
ATOM     20  C   UNL     1       0.364   2.773  20.163  0.00  0.00    +0.000 A 
ATOM     21  C   UNL     1       0.656   2.755  18.793  0.00  0.00    +0.000 A 
ATOM     22  C   UNL     1       1.980   2.795  18.350  0.00  0.00    +0.000 A 
ATOM     23  F   UNL     1       2.242   2.825  17.037  0.00  0.00    +0.000 F 
ENDBRANCH  16  17
BRANCH  16  24
ATOM     24  O   UNL     1       5.222   2.623  19.966  0.00  0.00    +0.000 OA
ATOM     25  H   UNL     1       5.222   3.264  20.697  0.00  0.00    +0.000 HD
ENDBRANCH  16  24
ENDBRANCH   1  16
TORSDOF 7
ENDMDL
MODEL 3
REMARK VINA RESULT:      -7.4      1.904      4.789
REMARK  Name = 
REMARK  11 active torsions:
REMARK  status: ('A' for Active; 'I' for Inactive)
REMARK    1  A    between atoms: C_1  and  C_2
REMARK    2  A    between atoms: C_2  and  C_3
REMARK    3  A    between atoms: C_2  and  O_4
REMARK    4  A    between atoms: O_4  and  P_5
REMARK    5  A    between atoms: P_5  and  C_7
REMARK    6  A    between atoms: P_5  and  C_16
REMARK    7  A    between atoms: C_10  and  N_11
REMARK    8  A    between atoms: N_11  and  C_12
REMARK    9  A    between atoms: N_11  and  C_13
REMARK   10  A    between atoms: C_16  and  O_17
REMARK   11  A    between atoms: C_16  and  C_18
REMARK                            x       y       z     vdW  Elec       q    Type
REMARK                         _______ _______ _______ _____ _____    ______ ____
ROOT
ATOM      1  P   UNL     1       2.838   4.374  18.501  0.00  0.00    +0.000 P 
ATOM      2  O   UNL     1       2.280   4.043  17.098  0.00  0.00    +0.000 OA
ENDROOT
BRANCH   1   3
ATOM      3  C   UNL     1       2.527   6.278  18.914  0.00  0.00    +0.000 A 
ATOM      4  C   UNL     1       2.132   6.649  20.198  0.00  0.00    +0.000 A 
ATOM      5  C   UNL     1       1.626   7.942  20.435  0.00  0.00    +0.000 A 
ATOM      6  C   UNL     1       1.496   8.913  19.422  0.00  0.00    +0.000 A 
ATOM      7  C   UNL     1       1.933   8.543  18.147  0.00  0.00    +0.000 A 
ATOM      8  C   UNL     1       2.432   7.239  17.884  0.00  0.00    +0.000 A 
BRANCH   6   9
ATOM      9  N   UNL     1       0.954  10.158  19.757  0.00  0.00    +0.000 N 
ATOM     10  C   UNL     1       0.825  10.567  21.151  0.00  0.00    +0.000 C 
ATOM     11  C   UNL     1       1.198  11.258  18.816  0.00  0.00    +0.000 C 
ENDBRANCH   6   9
ENDBRANCH   1   3
BRANCH   1  12
ATOM     12  O   UNL     1       1.243   4.212  19.151  0.00  0.00    +0.000 OA
BRANCH  12  14
ATOM     13  C   UNL     1       2.011   1.908  19.264  0.00  0.00    +0.000 C 
ATOM     14  C   UNL     1       1.098   2.977  19.864  0.00  0.00    +0.000 C 
ATOM     15  C   UNL     1       1.425   3.191  21.334  0.00  0.00    +0.000 C 
ENDBRANCH  12  14
ENDBRANCH   1  12
BRANCH   1  16
ATOM     16  C   UNL     1       4.525   4.545  17.814  0.00  0.00    +0.000 C 
BRANCH  16  17
ATOM     17  C   UNL     1       5.622   5.533  18.055  0.00  0.00    +0.000 A 
ATOM     18  C   UNL     1       6.538   5.242  19.099  0.00  0.00    +0.000 A 
ATOM     19  C   UNL     1       7.721   5.959  19.247  0.00  0.00    +0.000 A 
ATOM     20  C   UNL     1       8.006   6.987  18.356  0.00  0.00    +0.000 A 
ATOM     21  C   UNL     1       7.091   7.309  17.345  0.00  0.00    +0.000 A 
ATOM     22  C   UNL     1       5.906   6.583  17.204  0.00  0.00    +0.000 A 
ATOM     23  F   UNL     1       5.064   6.872  16.204  0.00  0.00    +0.000 F 
ENDBRANCH  16  17
BRANCH  16  24
ATOM     24  O   UNL     1       4.516   4.376  16.368  0.00  0.00    +0.000 OA
ATOM     25  H   UNL     1       5.029   5.102  15.974  0.00  0.00    +0.000 HD
ENDBRANCH  16  24
ENDBRANCH   1  16
TORSDOF 7
ENDMDL
MODEL 4
REMARK VINA RESULT:      -7.4      0.968      1.650
REMARK  Name = 
REMARK  11 active torsions:
REMARK  status: ('A' for Active; 'I' for Inactive)
REMARK    1  A    between atoms: C_1  and  C_2
REMARK    2  A    between atoms: C_2  and  C_3
REMARK    3  A    between atoms: C_2  and  O_4
REMARK    4  A    between atoms: O_4  and  P_5
REMARK    5  A    between atoms: P_5  and  C_7
REMARK    6  A    between atoms: P_5  and  C_16
REMARK    7  A    between atoms: C_10  and  N_11
REMARK    8  A    between atoms: N_11  and  C_12
REMARK    9  A    between atoms: N_11  and  C_13
REMARK   10  A    between atoms: C_16  and  O_17
REMARK   11  A    between atoms: C_16  and  C_18
REMARK                            x       y       z     vdW  Elec       q    Type
REMARK                         _______ _______ _______ _____ _____    ______ ____
ROOT
ATOM      1  P   UNL     1       4.932   4.614  17.752  0.00  0.00    +0.000 P 
ATOM      2  O   UNL     1       5.800   4.044  18.898  0.00  0.00    +0.000 OA
ENDROOT
BRANCH   1   3
ATOM      3  C   UNL     1       3.892   6.158  18.405  0.00  0.00    +0.000 A 
ATOM      4  C   UNL     1       3.268   6.092  19.649  0.00  0.00    +0.000 A 
ATOM      5  C   UNL     1       2.294   7.047  20.002  0.00  0.00    +0.000 A 
ATOM      6  C   UNL     1       1.905   8.098  19.149  0.00  0.00    +0.000 A 
ATOM      7  C   UNL     1       2.567   8.178  17.920  0.00  0.00    +0.000 A 
ATOM      8  C   UNL     1       3.541   7.217  17.539  0.00  0.00    +0.000 A 
BRANCH   6   9
ATOM      9  N   UNL     1       0.906   8.976  19.583  0.00  0.00    +0.000 N 
ATOM     10  C   UNL     1       0.615   9.132  21.004  0.00  0.00    +0.000 C 
ATOM     11  C   UNL     1       0.694  10.184  18.778  0.00  0.00    +0.000 C 
ENDBRANCH   6   9
ENDBRANCH   1   3
BRANCH   1  12
ATOM     12  O   UNL     1       6.130   5.832  17.478  0.00  0.00    +0.000 OA
BRANCH  12  14
ATOM     13  C   UNL     1       7.446   4.432  15.987  0.00  0.00    +0.000 C 
ATOM     14  C   UNL     1       6.669   5.738  16.153  0.00  0.00    +0.000 C 
ATOM     15  C   UNL     1       5.542   5.818  15.134  0.00  0.00    +0.000 C 
ENDBRANCH  12  14
ENDBRANCH   1  12
BRANCH   1  16
ATOM     16  C   UNL     1       3.666   3.326  18.043  0.00  0.00    +0.000 C 
BRANCH  16  17
ATOM     17  C   UNL     1       2.732   3.062  19.181  0.00  0.00    +0.000 A 
ATOM     18  C   UNL     1       3.301   2.578  20.387  0.00  0.00    +0.000 A 
ATOM     19  C   UNL     1       2.568   2.533  21.569  0.00  0.00    +0.000 A 
ATOM     20  C   UNL     1       1.248   2.965  21.563  0.00  0.00    +0.000 A 
ATOM     21  C   UNL     1       0.662   3.409  20.369  0.00  0.00    +0.000 A 
ATOM     22  C   UNL     1       1.406   3.451  19.189  0.00  0.00    +0.000 A 
ATOM     23  F   UNL     1       0.848   3.921  18.066  0.00  0.00    +0.000 F 
ENDBRANCH  16  17
BRANCH  16  24
ATOM     24  O   UNL     1       4.176   2.008  17.694  0.00  0.00    +0.000 OA
ATOM     25  H   UNL     1       4.937   2.124  17.100  0.00  0.00    +0.000 HD
ENDBRANCH  16  24
ENDBRANCH   1  16
TORSDOF 7
ENDMDL
MODEL 5
REMARK VINA RESULT:      -7.3      3.701      5.873
REMARK  Name = 
REMARK  11 active torsions:
REMARK  status: ('A' for Active; 'I' for Inactive)
REMARK    1  A    between atoms: C_1  and  C_2
REMARK    2  A    between atoms: C_2  and  C_3
REMARK    3  A    between atoms: C_2  and  O_4
REMARK    4  A    between atoms: O_4  and  P_5
REMARK    5  A    between atoms: P_5  and  C_7
REMARK    6  A    between atoms: P_5  and  C_16
REMARK    7  A    between atoms: C_10  and  N_11
REMARK    8  A    between atoms: N_11  and  C_12
REMARK    9  A    between atoms: N_11  and  C_13
REMARK   10  A    between atoms: C_16  and  O_17
REMARK   11  A    between atoms: C_16  and  C_18
REMARK                            x       y       z     vdW  Elec       q    Type
REMARK                         _______ _______ _______ _____ _____    ______ ____
ROOT
ATOM      1  P   UNL     1       5.767   5.768  17.485  0.00  0.00    +0.000 P 
ATOM      2  O   UNL     1       4.469   6.585  17.685  0.00  0.00    +0.000 OA
ENDROOT
BRANCH   1   3
ATOM      3  C   UNL     1       5.914   5.197  15.602  0.00  0.00    +0.000 A 
ATOM      4  C   UNL     1       4.811   4.630  14.966  0.00  0.00    +0.000 A 
ATOM      5  C   UNL     1       4.973   3.956  13.740  0.00  0.00    +0.000 A 
ATOM      6  C   UNL     1       6.220   3.820  13.097  0.00  0.00    +0.000 A 
ATOM      7  C   UNL     1       7.312   4.427  13.724  0.00  0.00    +0.000 A 
ATOM      8  C   UNL     1       7.172   5.099  14.969  0.00  0.00    +0.000 A 
BRANCH   6   9
ATOM      9  N   UNL     1       6.277   3.106  11.896  0.00  0.00    +0.000 N 
ATOM     10  C   UNL     1       7.488   2.393  11.508  0.00  0.00    +0.000 C 
ATOM     11  C   UNL     1       5.028   2.488  11.436  0.00  0.00    +0.000 C 
ENDBRANCH   6   9
ENDBRANCH   1   3
BRANCH   1  12
ATOM     12  O   UNL     1       6.542   7.188  16.873  0.00  0.00    +0.000 OA
BRANCH  12  14
ATOM     13  C   UNL     1       7.970   8.874  17.890  0.00  0.00    +0.000 C 
ATOM     14  C   UNL     1       7.808   7.402  17.512  0.00  0.00    +0.000 C 
ATOM     15  C   UNL     1       7.914   6.521  18.747  0.00  0.00    +0.000 C 
ENDBRANCH  12  14
ENDBRANCH   1  12
BRANCH   1  16
ATOM     16  C   UNL     1       4.946   4.266  18.133  0.00  0.00    +0.000 C 
BRANCH  16  17
ATOM     17  C   UNL     1       3.607   4.033  18.755  0.00  0.00    +0.000 A 
ATOM     18  C   UNL     1       3.430   4.465  20.095  0.00  0.00    +0.000 A 
ATOM     19  C   UNL     1       2.170   4.519  20.681  0.00  0.00    +0.000 A 
ATOM     20  C   UNL     1       1.061   4.133  19.938  0.00  0.00    +0.000 A 
ATOM     21  C   UNL     1       1.226   3.666  18.627  0.00  0.00    +0.000 A 
ATOM     22  C   UNL     1       2.496   3.617  18.047  0.00  0.00    +0.000 A 
ATOM     23  F   UNL     1       2.632   3.214  16.778  0.00  0.00    +0.000 F 
ENDBRANCH  16  17
BRANCH  16  24
ATOM     24  O   UNL     1       5.859   3.492  18.961  0.00  0.00    +0.000 OA
ATOM     25  H   UNL     1       5.346   3.083  19.679  0.00  0.00    +0.000 HD
ENDBRANCH  16  24
ENDBRANCH   1  16
TORSDOF 7
ENDMDL
MODEL 6
REMARK VINA RESULT:      -7.2      2.047      4.819
REMARK  Name = 
REMARK  11 active torsions:
REMARK  status: ('A' for Active; 'I' for Inactive)
REMARK    1  A    between atoms: C_1  and  C_2
REMARK    2  A    between atoms: C_2  and  C_3
REMARK    3  A    between atoms: C_2  and  O_4
REMARK    4  A    between atoms: O_4  and  P_5
REMARK    5  A    between atoms: P_5  and  C_7
REMARK    6  A    between atoms: P_5  and  C_16
REMARK    7  A    between atoms: C_10  and  N_11
REMARK    8  A    between atoms: N_11  and  C_12
REMARK    9  A    between atoms: N_11  and  C_13
REMARK   10  A    between atoms: C_16  and  O_17
REMARK   11  A    between atoms: C_16  and  C_18
REMARK                            x       y       z     vdW  Elec       q    Type
REMARK                         _______ _______ _______ _____ _____    ______ ____
ROOT
ATOM      1  P   UNL     1       2.886   4.425  18.869  0.00  0.00    +0.000 P 
ATOM      2  O   UNL     1       2.528   4.092  17.402  0.00  0.00    +0.000 OA
ENDROOT
BRANCH   1   3
ATOM      3  C   UNL     1       2.517   6.329  19.233  0.00  0.00    +0.000 A 
ATOM      4  C   UNL     1       2.021   6.708  20.479  0.00  0.00    +0.000 A 
ATOM      5  C   UNL     1       1.480   7.996  20.661  0.00  0.00    +0.000 A 
ATOM      6  C   UNL     1       1.413   8.953  19.630  0.00  0.00    +0.000 A 
ATOM      7  C   UNL     1       1.949   8.576  18.395  0.00  0.00    +0.000 A 
ATOM      8  C   UNL     1       2.486   7.277  18.186  0.00  0.00    +0.000 A 
BRANCH   6   9
ATOM      9  N   UNL     1       0.829  10.194  19.907  0.00  0.00    +0.000 N 
ATOM     10  C   UNL     1       0.757  11.232  18.885  0.00  0.00    +0.000 C 
ATOM     11  C   UNL     1      -0.282  10.200  20.866  0.00  0.00    +0.000 C 
ENDBRANCH   6   9
ENDBRANCH   1   3
BRANCH   1  12
ATOM     12  O   UNL     1       1.216   4.261  19.292  0.00  0.00    +0.000 OA
BRANCH  12  14
ATOM     13  C   UNL     1       1.634   1.865  19.272  0.00  0.00    +0.000 C 
ATOM     14  C   UNL     1       0.981   3.039  20.003  0.00  0.00    +0.000 C 
ATOM     15  C   UNL     1       1.529   3.155  21.417  0.00  0.00    +0.000 C 
ENDBRANCH  12  14
ENDBRANCH   1  12
BRANCH   1  16
ATOM     16  C   UNL     1       4.652   4.599  18.421  0.00  0.00    +0.000 C 
BRANCH  16  17
ATOM     17  C   UNL     1       5.350   4.788  17.113  0.00  0.00    +0.000 A 
ATOM     18  C   UNL     1       5.569   3.631  16.321  0.00  0.00    +0.000 A 
ATOM     19  C   UNL     1       5.984   3.725  14.997  0.00  0.00    +0.000 A 
ATOM     20  C   UNL     1       6.195   4.980  14.441  0.00  0.00    +0.000 A 
ATOM     21  C   UNL     1       6.020   6.130  15.224  0.00  0.00    +0.000 A 
ATOM     22  C   UNL     1       5.603   6.026  16.552  0.00  0.00    +0.000 A 
ATOM     23  F   UNL     1       5.394   7.134  17.273  0.00  0.00    +0.000 F 
ENDBRANCH  16  17
BRANCH  16  24
ATOM     24  O   UNL     1       5.462   3.609  19.113  0.00  0.00    +0.000 OA
ATOM     25  H   UNL     1       6.360   3.968  19.216  0.00  0.00    +0.000 HD
ENDBRANCH  16  24
ENDBRANCH   1  16
TORSDOF 7
ENDMDL
MODEL 7
REMARK VINA RESULT:      -7.2      1.524      2.125
REMARK  Name = 
REMARK  11 active torsions:
REMARK  status: ('A' for Active; 'I' for Inactive)
REMARK    1  A    between atoms: C_1  and  C_2
REMARK    2  A    between atoms: C_2  and  C_3
REMARK    3  A    between atoms: C_2  and  O_4
REMARK    4  A    between atoms: O_4  and  P_5
REMARK    5  A    between atoms: P_5  and  C_7
REMARK    6  A    between atoms: P_5  and  C_16
REMARK    7  A    between atoms: C_10  and  N_11
REMARK    8  A    between atoms: N_11  and  C_12
REMARK    9  A    between atoms: N_11  and  C_13
REMARK   10  A    between atoms: C_16  and  O_17
REMARK   11  A    between atoms: C_16  and  C_18
REMARK                            x       y       z     vdW  Elec       q    Type
REMARK                         _______ _______ _______ _____ _____    ______ ____
ROOT
ATOM      1  P   UNL     1       5.093   4.542  17.355  0.00  0.00    +0.000 P 
ATOM      2  O   UNL     1       6.499   4.454  17.990  0.00  0.00    +0.000 OA
ENDROOT
BRANCH   1   3
ATOM      3  C   UNL     1       4.092   6.045  18.150  0.00  0.00    +0.000 A 
ATOM      4  C   UNL     1       3.511   5.896  19.409  0.00  0.00    +0.000 A 
ATOM      5  C   UNL     1       2.561   6.832  19.862  0.00  0.00    +0.000 A 
ATOM      6  C   UNL     1       2.153   7.943  19.099  0.00  0.00    +0.000 A 
ATOM      7  C   UNL     1       2.771   8.105  17.855  0.00  0.00    +0.000 A 
ATOM      8  C   UNL     1       3.722   7.164  17.373  0.00  0.00    +0.000 A 
BRANCH   6   9
ATOM      9  N   UNL     1       1.179   8.797  19.629  0.00  0.00    +0.000 N 
ATOM     10  C   UNL     1       0.985   8.905  21.070  0.00  0.00    +0.000 C 
ATOM     11  C   UNL     1       0.902  10.027  18.879  0.00  0.00    +0.000 C 
ENDBRANCH   6   9
ENDBRANCH   1   3
BRANCH   1  12
ATOM     12  O   UNL     1       5.669   5.787  16.301  0.00  0.00    +0.000 OA
BRANCH  12  14
ATOM     13  C   UNL     1       7.303   5.148  14.618  0.00  0.00    +0.000 C 
ATOM     14  C   UNL     1       5.822   5.301  14.961  0.00  0.00    +0.000 C 
ATOM     15  C   UNL     1       5.102   3.969  14.814  0.00  0.00    +0.000 C 
ENDBRANCH  12  14
ENDBRANCH   1  12
BRANCH   1  16
ATOM     16  C   UNL     1       4.483   3.225  18.470  0.00  0.00    +0.000 C 
BRANCH  16  17
ATOM     17  C   UNL     1       3.140   2.943  19.064  0.00  0.00    +0.000 A 
ATOM     18  C   UNL     1       3.076   2.772  20.471  0.00  0.00    +0.000 A 
ATOM     19  C   UNL     1       1.860   2.749  21.145  0.00  0.00    +0.000 A 
ATOM     20  C   UNL     1       0.682   2.891  20.422  0.00  0.00    +0.000 A 
ATOM     21  C   UNL     1       0.730   3.022  19.027  0.00  0.00    +0.000 A 
ATOM     22  C   UNL     1       1.955   3.044  18.359  0.00  0.00    +0.000 A 
ATOM     23  F   UNL     1       1.987   3.217  17.032  0.00  0.00    +0.000 F 
ENDBRANCH  16  17
BRANCH  16  24
ATOM     24  O   UNL     1       5.408   3.009  19.572  0.00  0.00    +0.000 OA
ATOM     25  H   UNL     1       5.698   2.081  19.548  0.00  0.00    +0.000 HD
ENDBRANCH  16  24
ENDBRANCH   1  16
TORSDOF 7
ENDMDL
MODEL 8
REMARK VINA RESULT:      -7.1      3.703      6.040
REMARK  Name = 
REMARK  11 active torsions:
REMARK  status: ('A' for Active; 'I' for Inactive)
REMARK    1  A    between atoms: C_1  and  C_2
REMARK    2  A    between atoms: C_2  and  C_3
REMARK    3  A    between atoms: C_2  and  O_4
REMARK    4  A    between atoms: O_4  and  P_5
REMARK    5  A    between atoms: P_5  and  C_7
REMARK    6  A    between atoms: P_5  and  C_16
REMARK    7  A    between atoms: C_10  and  N_11
REMARK    8  A    between atoms: N_11  and  C_12
REMARK    9  A    between atoms: N_11  and  C_13
REMARK   10  A    between atoms: C_16  and  O_17
REMARK   11  A    between atoms: C_16  and  C_18
REMARK                            x       y       z     vdW  Elec       q    Type
REMARK                         _______ _______ _______ _____ _____    ______ ____
ROOT
ATOM      1  P   UNL     1       5.882   5.755  17.339  0.00  0.00    +0.000 P 
ATOM      2  O   UNL     1       4.682   6.708  17.546  0.00  0.00    +0.000 OA
ENDROOT
BRANCH   1   3
ATOM      3  C   UNL     1       5.946   5.156  15.461  0.00  0.00    +0.000 A 
ATOM      4  C   UNL     1       4.870   4.448  14.927  0.00  0.00    +0.000 A 
ATOM      5  C   UNL     1       5.012   3.765  13.703  0.00  0.00    +0.000 A 
ATOM      6  C   UNL     1       6.211   3.758  12.963  0.00  0.00    +0.000 A 
ATOM      7  C   UNL     1       7.270   4.505  13.488  0.00  0.00    +0.000 A 
ATOM      8  C   UNL     1       7.152   5.188  14.728  0.00  0.00    +0.000 A 
BRANCH   6   9
ATOM      9  N   UNL     1       6.257   3.023  11.773  0.00  0.00    +0.000 N 
ATOM     10  C   UNL     1       7.422   2.212  11.440  0.00  0.00    +0.000 C 
ATOM     11  C   UNL     1       4.981   2.498  11.273  0.00  0.00    +0.000 C 
ENDBRANCH   6   9
ENDBRANCH   1   3
BRANCH   1  12
ATOM     12  O   UNL     1       6.798   7.079  16.705  0.00  0.00    +0.000 OA
BRANCH  12  14
ATOM     13  C   UNL     1       7.954   8.848  17.909  0.00  0.00    +0.000 C 
ATOM     14  C   UNL     1       7.932   7.366  17.534  0.00  0.00    +0.000 C 
ATOM     15  C   UNL     1       7.886   6.502  18.784  0.00  0.00    +0.000 C 
ENDBRANCH  12  14
ENDBRANCH   1  12
BRANCH   1  16
ATOM     16  C   UNL     1       4.913   4.355  18.010  0.00  0.00    +0.000 C 
BRANCH  16  17
ATOM     17  C   UNL     1       3.497   4.236  18.476  0.00  0.00    +0.000 A 
ATOM     18  C   UNL     1       2.676   3.284  17.818  0.00  0.00    +0.000 A 
ATOM     19  C   UNL     1       1.432   2.922  18.327  0.00  0.00    +0.000 A 
ATOM     20  C   UNL     1       0.983   3.514  19.501  0.00  0.00    +0.000 A 
ATOM     21  C   UNL     1       1.767   4.485  20.139  0.00  0.00    +0.000 A 
ATOM     22  C   UNL     1       3.014   4.840  19.621  0.00  0.00    +0.000 A 
ATOM     23  F   UNL     1       3.773   5.734  20.268  0.00  0.00    +0.000 F 
ENDBRANCH  16  17
BRANCH  16  24
ATOM     24  O   UNL     1       5.676   3.630  19.014  0.00  0.00    +0.000 OA
ATOM     25  H   UNL     1       6.621   3.745  18.820  0.00  0.00    +0.000 HD
ENDBRANCH  16  24
ENDBRANCH   1  16
TORSDOF 7
ENDMDL
MODEL 9
REMARK VINA RESULT:      -7.1      2.070      4.766
REMARK  Name = 
REMARK  11 active torsions:
REMARK  status: ('A' for Active; 'I' for Inactive)
REMARK    1  A    between atoms: C_1  and  C_2
REMARK    2  A    between atoms: C_2  and  C_3
REMARK    3  A    between atoms: C_2  and  O_4
REMARK    4  A    between atoms: O_4  and  P_5
REMARK    5  A    between atoms: P_5  and  C_7
REMARK    6  A    between atoms: P_5  and  C_16
REMARK    7  A    between atoms: C_10  and  N_11
REMARK    8  A    between atoms: N_11  and  C_12
REMARK    9  A    between atoms: N_11  and  C_13
REMARK   10  A    between atoms: C_16  and  O_17
REMARK   11  A    between atoms: C_16  and  C_18
REMARK                            x       y       z     vdW  Elec       q    Type
REMARK                         _______ _______ _______ _____ _____    ______ ____
ROOT
ATOM      1  P   UNL     1       2.843   5.295  19.297  0.00  0.00    +0.000 P 
ATOM      2  O   UNL     1       2.449   4.836  17.874  0.00  0.00    +0.000 OA
ENDROOT
BRANCH   1   3
ATOM      3  C   UNL     1       2.246   7.152  19.591  0.00  0.00    +0.000 A 
ATOM      4  C   UNL     1       1.651   7.501  20.803  0.00  0.00    +0.000 A 
ATOM      5  C   UNL     1       0.961   8.723  20.925  0.00  0.00    +0.000 A 
ATOM      6  C   UNL     1       0.837   9.643  19.865  0.00  0.00    +0.000 A 
ATOM      7  C   UNL     1       1.471   9.301  18.667  0.00  0.00    +0.000 A 
ATOM      8  C   UNL     1       2.159   8.066  18.519  0.00  0.00    +0.000 A 
BRANCH   6   9
ATOM      9  N   UNL     1       0.105  10.815  20.081  0.00  0.00    +0.000 N 
ATOM     10  C   UNL     1       0.035  11.419  21.406  0.00  0.00    +0.000 C 
ATOM     11  C   UNL     1       0.047  11.771  18.969  0.00  0.00    +0.000 C 
ENDBRANCH   6   9
ENDBRANCH   1   3
BRANCH   1  12
ATOM     12  O   UNL     1       1.237   4.940  19.834  0.00  0.00    +0.000 OA
BRANCH  12  14
ATOM     13  C   UNL     1       0.840   2.551  19.608  0.00  0.00    +0.000 C 
ATOM     14  C   UNL     1       1.194   3.699  20.553  0.00  0.00    +0.000 C 
ATOM     15  C   UNL     1       2.538   3.445  21.217  0.00  0.00    +0.000 C 
ENDBRANCH  12  14
ENDBRANCH   1  12
BRANCH   1  16
ATOM     16  C   UNL     1       4.541   5.670  18.729  0.00  0.00    +0.000 C 
BRANCH  16  17
ATOM     17  C   UNL     1       5.230   5.496  17.414  0.00  0.00    +0.000 A 
ATOM     18  C   UNL     1       6.015   4.326  17.243  0.00  0.00    +0.000 A 
ATOM     19  C   UNL     1       6.493   3.950  15.992  0.00  0.00    +0.000 A 
ATOM     20  C   UNL     1       6.200   4.742  14.888  0.00  0.00    +0.000 A 
ATOM     21  C   UNL     1       5.460   5.920  15.051  0.00  0.00    +0.000 A 
ATOM     22  C   UNL     1       4.983   6.290  16.310  0.00  0.00    +0.000 A 
ATOM     23  F   UNL     1       4.237   7.393  16.442  0.00  0.00    +0.000 F 
ENDBRANCH  16  17
BRANCH  16  24
ATOM     24  O   UNL     1       5.525   5.223  19.704  0.00  0.00    +0.000 OA
ATOM     25  H   UNL     1       6.337   4.980  19.227  0.00  0.00    +0.000 HD
ENDBRANCH  16  24
ENDBRANCH   1  16
TORSDOF 7
ENDMDL
