MODEL 1
REMARK VINA RESULT:      -7.5      0.000      0.000
REMARK  Name = 
REMARK  3 active torsions:
REMARK  status: ('A' for Active; 'I' for Inactive)
REMARK    1  A    between atoms: C_2  and  C_3
REMARK    2  A    between atoms: C_3  and  C_17
REMARK    3  A    between atoms: C_8  and  C_9
REMARK                            x       y       z     vdW  Elec       q    Type
REMARK                         _______ _______ _______ _____ _____    ______ ____
ROOT
ATOM      1  C   UNL     1       5.639   4.956  16.947  0.00  0.00    +0.000 C 
ATOM      2  C   UNL     1       4.496   4.750  17.630  0.00  0.00    +0.000 C 
ATOM      3  O   UNL     1       3.351   4.217  17.022  0.00  0.00    +0.000 OA
ATOM      4  C   UNL     1       2.311   4.555  17.843  0.00  0.00    +0.000 C 
ATOM      5  N   UNL     1       1.098   4.333  17.475  0.00  0.00    +0.000 NA
ATOM      6  C   UNL     1       2.734   5.135  19.174  0.00  0.00    +0.000 C 
ATOM      7  C   UNL     1       4.210   5.187  19.014  0.00  0.00    +0.000 C 
ATOM      8  O   UNL     1       5.027   5.477  19.872  0.00  0.00    +0.000 OA
ATOM      9  H   UNL     1       1.112   3.941  16.526  0.00  0.00    +0.000 HD
ENDROOT
BRANCH   6  10
ATOM     10  C   UNL     1       2.118   6.481  19.488  0.00  0.00    +0.000 A 
ATOM     11  C   UNL     1       2.184   7.516  18.544  0.00  0.00    +0.000 A 
ATOM     12  C   UNL     1       1.636   8.769  18.822  0.00  0.00    +0.000 A 
ATOM     13  C   UNL     1       1.011   9.003  20.045  0.00  0.00    +0.000 A 
ATOM     14  C   UNL     1       0.927   7.983  20.987  0.00  0.00    +0.000 A 
ATOM     15  C   UNL     1       1.476   6.729  20.714  0.00  0.00    +0.000 A 
ENDBRANCH   6  10
BRANCH   1  16
ATOM     16  C   UNL     1       6.698   5.843  17.455  0.00  0.00    +0.000 A 
ATOM     17  C   UNL     1       7.581   5.437  18.461  0.00  0.00    +0.000 A 
ATOM     18  C   UNL     1       8.463   6.361  19.032  0.00  0.00    +0.000 A 
ATOM     19  C   UNL     1       8.477   7.685  18.592  0.00  0.00    +0.000 A 
ATOM     20  C   UNL     1       7.632   8.086  17.563  0.00  0.00    +0.000 A 
ATOM     21  C   UNL     1       6.746   7.169  16.993  0.00  0.00    +0.000 A 
ENDBRANCH   1  16
BRANCH   1  23
ATOM     22  N   UNL     1       5.872   3.915  14.379  0.00  0.00    +0.000 NA
ATOM     23  C   UNL     1       5.766   4.387  15.543  0.00  0.00    +0.000 C 
ENDBRANCH   1  23
TORSDOF 3
ENDMDL
MODEL 2
REMARK VINA RESULT:      -7.4      0.047      1.030
REMARK  Name = 
REMARK  3 active torsions:
REMARK  status: ('A' for Active; 'I' for Inactive)
REMARK    1  A    between atoms: C_2  and  C_3
REMARK    2  A    between atoms: C_3  and  C_17
REMARK    3  A    between atoms: C_8  and  C_9
REMARK                            x       y       z     vdW  Elec       q    Type
REMARK                         _______ _______ _______ _____ _____    ______ ____
ROOT
ATOM      1  C   UNL     1       5.651   4.976  16.965  0.00  0.00    +0.000 C 
ATOM      2  C   UNL     1       4.502   4.783  17.642  0.00  0.00    +0.000 C 
ATOM      3  O   UNL     1       3.357   4.254  17.032  0.00  0.00    +0.000 OA
ATOM      4  C   UNL     1       2.315   4.605  17.844  0.00  0.00    +0.000 C 
ATOM      5  N   UNL     1       1.102   4.389  17.470  0.00  0.00    +0.000 NA
ATOM      6  C   UNL     1       2.733   5.191  19.174  0.00  0.00    +0.000 C 
ATOM      7  C   UNL     1       4.211   5.231  19.022  0.00  0.00    +0.000 C 
ATOM      8  O   UNL     1       5.025   5.522  19.883  0.00  0.00    +0.000 OA
ATOM      9  H   UNL     1       1.119   3.991  16.524  0.00  0.00    +0.000 HD
ENDROOT
BRANCH   6  10
ATOM     10  C   UNL     1       2.126   6.543  19.475  0.00  0.00    +0.000 A 
ATOM     11  C   UNL     1       1.502   6.769  20.711  0.00  0.00    +0.000 A 
ATOM     12  C   UNL     1       0.921   8.005  21.000  0.00  0.00    +0.000 A 
ATOM     13  C   UNL     1       0.960   9.032  20.060  0.00  0.00    +0.000 A 
ATOM     14  C   UNL     1       1.585   8.828  18.834  0.00  0.00    +0.000 A 
ATOM     15  C   UNL     1       2.165   7.593  18.540  0.00  0.00    +0.000 A 
ENDBRANCH   6  10
BRANCH   1  16
ATOM     16  C   UNL     1       6.713   5.858  17.473  0.00  0.00    +0.000 A 
ATOM     17  C   UNL     1       7.588   5.453  18.486  0.00  0.00    +0.000 A 
ATOM     18  C   UNL     1       8.474   6.374  19.056  0.00  0.00    +0.000 A 
ATOM     19  C   UNL     1       8.499   7.696  18.609  0.00  0.00    +0.000 A 
ATOM     20  C   UNL     1       7.661   8.096  17.573  0.00  0.00    +0.000 A 
ATOM     21  C   UNL     1       6.772   7.182  17.004  0.00  0.00    +0.000 A 
ENDBRANCH   1  16
BRANCH   1  23
ATOM     22  N   UNL     1       5.891   3.916  14.405  0.00  0.00    +0.000 NA
ATOM     23  C   UNL     1       5.782   4.397  15.566  0.00  0.00    +0.000 C 
ENDBRANCH   1  23
TORSDOF 3
ENDMDL
MODEL 3
REMARK VINA RESULT:      -7.0      2.170      6.508
REMARK  Name = 
REMARK  3 active torsions:
REMARK  status: ('A' for Active; 'I' for Inactive)
REMARK    1  A    between atoms: C_2  and  C_3
REMARK    2  A    between atoms: C_3  and  C_17
REMARK    3  A    between atoms: C_8  and  C_9
REMARK                            x       y       z     vdW  Elec       q    Type
REMARK                         _______ _______ _______ _____ _____    ______ ____
ROOT
ATOM      1  C   UNL     1       3.128   5.831  19.176  0.00  0.00    +0.000 C 
ATOM      2  C   UNL     1       4.364   5.924  18.647  0.00  0.00    +0.000 C 
ATOM      3  O   UNL     1       4.931   7.155  18.290  0.00  0.00    +0.000 OA
ATOM      4  C   UNL     1       5.939   6.853  17.417  0.00  0.00    +0.000 C 
ATOM      5  N   UNL     1       6.557   7.793  16.792  0.00  0.00    +0.000 NA
ATOM      6  C   UNL     1       6.258   5.378  17.323  0.00  0.00    +0.000 C 
ATOM      7  C   UNL     1       5.220   4.798  18.215  0.00  0.00    +0.000 C 
ATOM      8  O   UNL     1       5.128   3.633  18.565  0.00  0.00    +0.000 OA
ATOM      9  H   UNL     1       6.124   8.690  17.043  0.00  0.00    +0.000 HD
ENDROOT
BRANCH   6  10
ATOM     10  C   UNL     1       6.217   4.823  15.916  0.00  0.00    +0.000 A 
ATOM     11  C   UNL     1       7.353   4.907  15.099  0.00  0.00    +0.000 A 
ATOM     12  C   UNL     1       7.330   4.415  13.793  0.00  0.00    +0.000 A 
ATOM     13  C   UNL     1       6.170   3.830  13.288  0.00  0.00    +0.000 A 
ATOM     14  C   UNL     1       5.038   3.728  14.090  0.00  0.00    +0.000 A 
ATOM     15  C   UNL     1       5.058   4.221  15.396  0.00  0.00    +0.000 A 
ENDBRANCH   6  10
BRANCH   1  16
ATOM     16  C   UNL     1       2.388   4.560  19.201  0.00  0.00    +0.000 A 
ATOM     17  C   UNL     1       1.785   4.033  18.054  0.00  0.00    +0.000 A 
ATOM     18  C   UNL     1       0.952   2.913  18.153  0.00  0.00    +0.000 A 
ATOM     19  C   UNL     1       0.730   2.308  19.391  0.00  0.00    +0.000 A 
ATOM     20  C   UNL     1       1.360   2.800  20.529  0.00  0.00    +0.000 A 
ATOM     21  C   UNL     1       2.188   3.920  20.437  0.00  0.00    +0.000 A 
ENDBRANCH   1  16
BRANCH   1  23
ATOM     22  N   UNL     1       1.830   8.160  19.966  0.00  0.00    +0.000 NA
ATOM     23  C   UNL     1       2.419   7.104  19.607  0.00  0.00    +0.000 C 
ENDBRANCH   1  23
TORSDOF 3
ENDMDL
MODEL 4
REMARK VINA RESULT:      -6.9      2.170      6.551
REMARK  Name = 
REMARK  3 active torsions:
REMARK  status: ('A' for Active; 'I' for Inactive)
REMARK    1  A    between atoms: C_2  and  C_3
REMARK    2  A    between atoms: C_3  and  C_17
REMARK    3  A    between atoms: C_8  and  C_9
REMARK                            x       y       z     vdW  Elec       q    Type
REMARK                         _______ _______ _______ _____ _____    ______ ____
ROOT
ATOM      1  C   UNL     1       3.155   5.800  19.145  0.00  0.00    +0.000 C 
ATOM      2  C   UNL     1       4.393   5.900  18.624  0.00  0.00    +0.000 C 
ATOM      3  O   UNL     1       4.964   7.136  18.290  0.00  0.00    +0.000 OA
ATOM      4  C   UNL     1       5.976   6.847  17.417  0.00  0.00    +0.000 C 
ATOM      5  N   UNL     1       6.597   7.797  16.811  0.00  0.00    +0.000 NA
ATOM      6  C   UNL     1       6.293   5.373  17.299  0.00  0.00    +0.000 C 
ATOM      7  C   UNL     1       5.250   4.779  18.176  0.00  0.00    +0.000 C 
ATOM      8  O   UNL     1       5.154   3.609  18.507  0.00  0.00    +0.000 OA
ATOM      9  H   UNL     1       6.165   8.690  17.075  0.00  0.00    +0.000 HD
ENDROOT
BRANCH   6  10
ATOM     10  C   UNL     1       6.257   4.842  15.883  0.00  0.00    +0.000 A 
ATOM     11  C   UNL     1       5.081   4.262  15.385  0.00  0.00    +0.000 A 
ATOM     12  C   UNL     1       5.034   3.751  14.086  0.00  0.00    +0.000 A 
ATOM     13  C   UNL     1       6.160   3.818  13.268  0.00  0.00    +0.000 A 
ATOM     14  C   UNL     1       7.330   4.402  13.744  0.00  0.00    +0.000 A 
ATOM     15  C   UNL     1       7.381   4.911  15.042  0.00  0.00    +0.000 A 
ENDBRANCH   6  10
BRANCH   1  16
ATOM     16  C   UNL     1       2.413   4.529  19.146  0.00  0.00    +0.000 A 
ATOM     17  C   UNL     1       1.799   4.032  17.992  0.00  0.00    +0.000 A 
ATOM     18  C   UNL     1       0.966   2.911  18.070  0.00  0.00    +0.000 A 
ATOM     19  C   UNL     1       0.753   2.276  19.294  0.00  0.00    +0.000 A 
ATOM     20  C   UNL     1       1.393   2.739  20.439  0.00  0.00    +0.000 A 
ATOM     21  C   UNL     1       2.222   3.860  20.367  0.00  0.00    +0.000 A 
ENDBRANCH   1  16
BRANCH   1  23
ATOM     22  N   UNL     1       1.857   8.117  19.968  0.00  0.00    +0.000 NA
ATOM     23  C   UNL     1       2.446   7.066  19.595  0.00  0.00    +0.000 C 
ENDBRANCH   1  23
TORSDOF 3
ENDMDL
MODEL 5
REMARK VINA RESULT:      -6.8      2.153      6.396
REMARK  Name = 
REMARK  3 active torsions:
REMARK  status: ('A' for Active; 'I' for Inactive)
REMARK    1  A    between atoms: C_2  and  C_3
REMARK    2  A    between atoms: C_3  and  C_17
REMARK    3  A    between atoms: C_8  and  C_9
REMARK                            x       y       z     vdW  Elec       q    Type
REMARK                         _______ _______ _______ _____ _____    ______ ____
ROOT
ATOM      1  C   UNL     1       3.056   5.948  19.189  0.00  0.00    +0.000 C 
ATOM      2  C   UNL     1       4.293   6.012  18.659  0.00  0.00    +0.000 C 
ATOM      3  O   UNL     1       4.882   7.228  18.285  0.00  0.00    +0.000 OA
ATOM      4  C   UNL     1       5.885   6.896  17.418  0.00  0.00    +0.000 C 
ATOM      5  N   UNL     1       6.519   7.816  16.780  0.00  0.00    +0.000 NA
ATOM      6  C   UNL     1       6.178   5.414  17.344  0.00  0.00    +0.000 C 
ATOM      7  C   UNL     1       5.130   4.865  18.243  0.00  0.00    +0.000 C 
ATOM      8  O   UNL     1       5.017   3.706  18.610  0.00  0.00    +0.000 OA
ATOM      9  H   UNL     1       6.102   8.724  17.018  0.00  0.00    +0.000 HD
ENDROOT
BRANCH   6  10
ATOM     10  C   UNL     1       6.127   4.840  15.945  0.00  0.00    +0.000 A 
ATOM     11  C   UNL     1       7.273   4.868  15.137  0.00  0.00    +0.000 A 
ATOM     12  C   UNL     1       7.241   4.358  13.837  0.00  0.00    +0.000 A 
ATOM     13  C   UNL     1       6.064   3.811  13.331  0.00  0.00    +0.000 A 
ATOM     14  C   UNL     1       4.922   3.765  14.124  0.00  0.00    +0.000 A 
ATOM     15  C   UNL     1       4.950   4.276  15.423  0.00  0.00    +0.000 A 
ENDBRANCH   6  10
BRANCH   1  16
ATOM     16  C   UNL     1       2.293   4.690  19.232  0.00  0.00    +0.000 A 
ATOM     17  C   UNL     1       2.153   3.952  20.412  0.00  0.00    +0.000 A 
ATOM     18  C   UNL     1       1.565   2.683  20.377  0.00  0.00    +0.000 A 
ATOM     19  C   UNL     1       1.104   2.153  19.171  0.00  0.00    +0.000 A 
ATOM     20  C   UNL     1       1.203   2.899  18.001  0.00  0.00    +0.000 A 
ATOM     21  C   UNL     1       1.792   4.163  18.029  0.00  0.00    +0.000 A 
ENDBRANCH   1  16
BRANCH   1  23
ATOM     22  N   UNL     1       1.799   8.310  19.946  0.00  0.00    +0.000 NA
ATOM     23  C   UNL     1       2.369   7.239  19.603  0.00  0.00    +0.000 C 
ENDBRANCH   1  23
TORSDOF 3
ENDMDL
MODEL 6
REMARK VINA RESULT:      -6.8      2.150      6.440
REMARK  Name = 
REMARK  3 active torsions:
REMARK  status: ('A' for Active; 'I' for Inactive)
REMARK    1  A    between atoms: C_2  and  C_3
REMARK    2  A    between atoms: C_3  and  C_17
REMARK    3  A    between atoms: C_8  and  C_9
REMARK                            x       y       z     vdW  Elec       q    Type
REMARK                         _______ _______ _______ _____ _____    ______ ____
ROOT
ATOM      1  C   UNL     1       3.052   5.932  19.165  0.00  0.00    +0.000 C 
ATOM      2  C   UNL     1       4.299   5.996  18.659  0.00  0.00    +0.000 C 
ATOM      3  O   UNL     1       4.905   7.214  18.320  0.00  0.00    +0.000 OA
ATOM      4  C   UNL     1       5.921   6.891  17.464  0.00  0.00    +0.000 C 
ATOM      5  N   UNL     1       6.573   7.819  16.856  0.00  0.00    +0.000 NA
ATOM      6  C   UNL     1       6.202   5.408  17.365  0.00  0.00    +0.000 C 
ATOM      7  C   UNL     1       5.134   4.850  18.234  0.00  0.00    +0.000 C 
ATOM      8  O   UNL     1       5.004   3.686  18.574  0.00  0.00    +0.000 OA
ATOM      9  H   UNL     1       6.161   8.725  17.106  0.00  0.00    +0.000 HD
ENDROOT
BRANCH   6  10
ATOM     10  C   UNL     1       6.171   4.864  15.954  0.00  0.00    +0.000 A 
ATOM     11  C   UNL     1       4.986   4.316  15.443  0.00  0.00    +0.000 A 
ATOM     12  C   UNL     1       4.942   3.794  14.149  0.00  0.00    +0.000 A 
ATOM     13  C   UNL     1       6.082   3.817  13.348  0.00  0.00    +0.000 A 
ATOM     14  C   UNL     1       7.262   4.368  13.836  0.00  0.00    +0.000 A 
ATOM     15  C   UNL     1       7.310   4.889  15.130  0.00  0.00    +0.000 A 
ENDBRANCH   6  10
BRANCH   1  16
ATOM     16  C   UNL     1       2.279   4.681  19.168  0.00  0.00    +0.000 A 
ATOM     17  C   UNL     1       2.105   3.924  20.331  0.00  0.00    +0.000 A 
ATOM     18  C   UNL     1       1.507   2.660  20.262  0.00  0.00    +0.000 A 
ATOM     19  C   UNL     1       1.070   2.156  19.036  0.00  0.00    +0.000 A 
ATOM     20  C   UNL     1       1.201   2.921  17.881  0.00  0.00    +0.000 A 
ATOM     21  C   UNL     1       1.801   4.179  17.945  0.00  0.00    +0.000 A 
ENDBRANCH   1  16
BRANCH   1  23
ATOM     22  N   UNL     1       1.802   8.290  19.948  0.00  0.00    +0.000 NA
ATOM     23  C   UNL     1       2.369   7.221  19.593  0.00  0.00    +0.000 C 
ENDBRANCH   1  23
TORSDOF 3
ENDMDL
MODEL 7
REMARK VINA RESULT:      -6.3      7.593     10.097
REMARK  Name = 
REMARK  3 active torsions:
REMARK  status: ('A' for Active; 'I' for Inactive)
REMARK    1  A    between atoms: C_2  and  C_3
REMARK    2  A    between atoms: C_3  and  C_17
REMARK    3  A    between atoms: C_8  and  C_9
REMARK                            x       y       z     vdW  Elec       q    Type
REMARK                         _______ _______ _______ _____ _____    ______ ____
ROOT
ATOM      1  C   UNL     1      -0.044  11.742  20.680  0.00  0.00    +0.000 C 
ATOM      2  C   UNL     1       0.844  12.742  20.520  0.00  0.00    +0.000 C 
ATOM      3  O   UNL     1       1.350  13.470  21.606  0.00  0.00    +0.000 OA
ATOM      4  C   UNL     1       1.838  14.631  21.072  0.00  0.00    +0.000 C 
ATOM      5  N   UNL     1       2.238  15.580  21.844  0.00  0.00    +0.000 NA
ATOM      6  C   UNL     1       1.898  14.642  19.561  0.00  0.00    +0.000 C 
ATOM      7  C   UNL     1       1.283  13.329  19.235  0.00  0.00    +0.000 C 
ATOM      8  O   UNL     1       1.206  12.813  18.132  0.00  0.00    +0.000 OA
ATOM      9  H   UNL     1       2.072  15.299  22.817  0.00  0.00    +0.000 HD
ENDROOT
BRANCH   6  10
ATOM     10  C   UNL     1       1.186  15.813  18.920  0.00  0.00    +0.000 A 
ATOM     11  C   UNL     1       1.920  16.771  18.207  0.00  0.00    +0.000 A 
ATOM     12  C   UNL     1       1.283  17.867  17.623  0.00  0.00    +0.000 A 
ATOM     13  C   UNL     1      -0.098  18.017  17.741  0.00  0.00    +0.000 A 
ATOM     14  C   UNL     1      -0.842  17.068  18.435  0.00  0.00    +0.000 A 
ATOM     15  C   UNL     1      -0.207  15.972  19.022  0.00  0.00    +0.000 A 
ENDBRANCH   6  10
BRANCH   1  16
ATOM     16  C   UNL     1      -0.853  11.235  19.560  0.00  0.00    +0.000 A 
ATOM     17  C   UNL     1      -0.430  10.161  18.771  0.00  0.00    +0.000 A 
ATOM     18  C   UNL     1      -1.144   9.816  17.618  0.00  0.00    +0.000 A 
ATOM     19  C   UNL     1      -2.286  10.532  17.257  0.00  0.00    +0.000 A 
ATOM     20  C   UNL     1      -2.736  11.575  18.060  0.00  0.00    +0.000 A 
ATOM     21  C   UNL     1      -2.026  11.926  19.209  0.00  0.00    +0.000 A 
ENDBRANCH   1  16
BRANCH   1  23
ATOM     22  N   UNL     1      -0.573  10.818  23.249  0.00  0.00    +0.000 NA
ATOM     23  C   UNL     1      -0.333  11.237  22.084  0.00  0.00    +0.000 C 
ENDBRANCH   1  23
TORSDOF 3
ENDMDL
MODEL 8
REMARK VINA RESULT:      -6.3      7.533     10.012
REMARK  Name = 
REMARK  3 active torsions:
REMARK  status: ('A' for Active; 'I' for Inactive)
REMARK    1  A    between atoms: C_2  and  C_3
REMARK    2  A    between atoms: C_3  and  C_17
REMARK    3  A    between atoms: C_8  and  C_9
REMARK                            x       y       z     vdW  Elec       q    Type
REMARK                         _______ _______ _______ _____ _____    ______ ____
ROOT
ATOM      1  C   UNL     1       0.029  11.588  20.632  0.00  0.00    +0.000 C 
ATOM      2  C   UNL     1       0.939  12.567  20.464  0.00  0.00    +0.000 C 
ATOM      3  O   UNL     1       1.512  13.245  21.549  0.00  0.00    +0.000 OA
ATOM      4  C   UNL     1       2.012  14.407  21.030  0.00  0.00    +0.000 C 
ATOM      5  N   UNL     1       2.472  15.320  21.812  0.00  0.00    +0.000 NA
ATOM      6  C   UNL     1       2.009  14.465  19.518  0.00  0.00    +0.000 C 
ATOM      7  C   UNL     1       1.341  13.181  19.179  0.00  0.00    +0.000 C 
ATOM      8  O   UNL     1       1.202  12.703  18.066  0.00  0.00    +0.000 OA
ATOM      9  H   UNL     1       2.338  15.014  22.783  0.00  0.00    +0.000 HD
ENDROOT
BRANCH   6  10
ATOM     10  C   UNL     1       1.305  15.675  18.945  0.00  0.00    +0.000 A 
ATOM     11  C   UNL     1      -0.079  15.823  19.114  0.00  0.00    +0.000 A 
ATOM     12  C   UNL     1      -0.748  16.925  18.578  0.00  0.00    +0.000 A 
ATOM     13  C   UNL     1      -0.041  17.895  17.871  0.00  0.00    +0.000 A 
ATOM     14  C   UNL     1       1.334  17.769  17.705  0.00  0.00    +0.000 A 
ATOM     15  C   UNL     1       2.006  16.667  18.237  0.00  0.00    +0.000 A 
ENDBRANCH   6  10
BRANCH   1  16
ATOM     16  C   UNL     1      -0.842  11.140  19.533  0.00  0.00    +0.000 A 
ATOM     17  C   UNL     1      -0.480  10.087  18.687  0.00  0.00    +0.000 A 
ATOM     18  C   UNL     1      -1.253   9.801  17.556  0.00  0.00    +0.000 A 
ATOM     19  C   UNL     1      -2.393  10.554  17.274  0.00  0.00    +0.000 A 
ATOM     20  C   UNL     1      -2.783  11.576  18.134  0.00  0.00    +0.000 A 
ATOM     21  C   UNL     1      -2.013  11.868  19.261  0.00  0.00    +0.000 A 
ENDBRANCH   1  16
BRANCH   1  23
ATOM     22  N   UNL     1      -0.420  10.599  23.192  0.00  0.00    +0.000 NA
ATOM     23  C   UNL     1      -0.216  11.047  22.031  0.00  0.00    +0.000 C 
ENDBRANCH   1  23
TORSDOF 3
ENDMDL
MODEL 9
REMARK VINA RESULT:      -6.3      7.335      9.814
REMARK  Name = 
REMARK  3 active torsions:
REMARK  status: ('A' for Active; 'I' for Inactive)
REMARK    1  A    between atoms: C_2  and  C_3
REMARK    2  A    between atoms: C_3  and  C_17
REMARK    3  A    between atoms: C_8  and  C_9
REMARK                            x       y       z     vdW  Elec       q    Type
REMARK                         _______ _______ _______ _____ _____    ______ ____
ROOT
ATOM      1  C   UNL     1       0.313  11.685  20.453  0.00  0.00    +0.000 C 
ATOM      2  C   UNL     1       1.384  12.490  20.316  0.00  0.00    +0.000 C 
ATOM      3  O   UNL     1       1.977  13.134  21.411  0.00  0.00    +0.000 OA
ATOM      4  C   UNL     1       2.702  14.165  20.879  0.00  0.00    +0.000 C 
ATOM      5  N   UNL     1       3.247  15.038  21.652  0.00  0.00    +0.000 NA
ATOM      6  C   UNL     1       2.826  14.125  19.373  0.00  0.00    +0.000 C 
ATOM      7  C   UNL     1       1.981  12.948  19.042  0.00  0.00    +0.000 C 
ATOM      8  O   UNL     1       1.851  12.428  17.946  0.00  0.00    +0.000 OA
ATOM      9  H   UNL     1       2.989  14.821  22.622  0.00  0.00    +0.000 HD
ENDROOT
BRANCH   6  10
ATOM     10  C   UNL     1       2.381  15.395  18.681  0.00  0.00    +0.000 A 
ATOM     11  C   UNL     1       3.219  16.004  17.735  0.00  0.00    +0.000 A 
ATOM     12  C   UNL     1       2.833  17.185  17.097  0.00  0.00    +0.000 A 
ATOM     13  C   UNL     1       1.603  17.769  17.395  0.00  0.00    +0.000 A 
ATOM     14  C   UNL     1       0.756  17.170  18.322  0.00  0.00    +0.000 A 
ATOM     15  C   UNL     1       1.139  15.991  18.962  0.00  0.00    +0.000 A 
ENDBRANCH   6  10
BRANCH   1  16
ATOM     16  C   UNL     1      -0.532  11.315  19.307  0.00  0.00    +0.000 A 
ATOM     17  C   UNL     1      -1.664  12.058  18.954  0.00  0.00    +0.000 A 
ATOM     18  C   UNL     1      -2.533  11.583  17.966  0.00  0.00    +0.000 A 
ATOM     19  C   UNL     1      -2.269  10.375  17.319  0.00  0.00    +0.000 A 
ATOM     20  C   UNL     1      -1.124   9.651  17.635  0.00  0.00    +0.000 A 
ATOM     21  C   UNL     1      -0.256  10.119  18.623  0.00  0.00    +0.000 A 
ENDBRANCH   1  16
BRANCH   1  23
ATOM     22  N   UNL     1      -0.490  10.947  23.011  0.00  0.00    +0.000 NA
ATOM     23  C   UNL     1      -0.126  11.282  21.851  0.00  0.00    +0.000 C 
ENDBRANCH   1  23
TORSDOF 3
ENDMDL
