MODEL 1
REMARK VINA RESULT:      -8.2      0.000      0.000
REMARK  Name = 
REMARK  5 active torsions:
REMARK  status: ('A' for Active; 'I' for Inactive)
REMARK    1  A    between atoms: C_1  and  C_2
REMARK    2  A    between atoms: N_6  and  C_7
REMARK    3  A    between atoms: N_11  and  C_12
REMARK    4  A    between atoms: C_12  and  C_13
REMARK    5  A    between atoms: C_13  and  C_14
REMARK                            x       y       z     vdW  Elec       q    Type
REMARK                         _______ _______ _______ _____ _____    ______ ____
ROOT
ATOM      1  C   UNL     1       6.779   6.704  17.008  0.00  0.00    +0.000 C 
ATOM      2  C   UNL     1       7.799   7.270  18.006  0.00  0.00    +0.000 C 
ATOM      3  C   UNL     1       8.224   6.318  19.124  0.00  0.00    +0.000 C 
ATOM      4  C   UNL     1       7.066   5.510  19.699  0.00  0.00    +0.000 C 
ATOM      5  N   UNL     1       6.413   4.731  18.636  0.00  0.00    +0.000 NA
ATOM      6  C   UNL     1       5.817   5.661  17.650  0.00  0.00    +0.000 C 
ENDROOT
BRANCH   1  12
ATOM      7  C   UNL     1       5.666   2.760  11.687  0.00  0.00    +0.000 C 
ATOM      8  C   UNL     1       6.047   3.634  12.838  0.00  0.00    +0.000 A 
ATOM      9  C   UNL     1       5.238   3.808  13.947  0.00  0.00    +0.000 A 
ATOM     10  C   UNL     1       5.676   4.651  14.979  0.00  0.00    +0.000 A 
ATOM     11  C   UNL     1       6.891   5.303  14.880  0.00  0.00    +0.000 A 
ATOM     12  N   UNL     1       7.430   6.132  15.833  0.00  0.00    +0.000 N 
ATOM     13  N   UNL     1       7.648   5.103  13.783  0.00  0.00    +0.000 NA
ATOM     14  N   UNL     1       7.227   4.269  12.754  0.00  0.00    +0.000 NA
ATOM     15  H   UNL     1       8.323   6.526  15.557  0.00  0.00    +0.000 HD
ENDBRANCH   1  12
BRANCH   5  16
ATOM     16  C   UNL     1       5.384   3.839  19.233  0.00  0.00    +0.000 C 
BRANCH  16  17
ATOM     17  C   UNL     1       4.291   3.401  18.240  0.00  0.00    +0.000 C 
BRANCH  17  18
ATOM     18  C   UNL     1       2.912   3.352  18.856  0.00  0.00    +0.000 A 
ATOM     19  C   UNL     1       1.902   2.580  18.261  0.00  0.00    +0.000 A 
ATOM     20  C   UNL     1       0.634   2.504  18.839  0.00  0.00    +0.000 A 
ATOM     21  C   UNL     1       0.364   3.199  20.015  0.00  0.00    +0.000 A 
ATOM     22  C   UNL     1       1.359   3.973  20.612  0.00  0.00    +0.000 A 
ATOM     23  C   UNL     1       2.628   4.050  20.035  0.00  0.00    +0.000 A 
ENDBRANCH  17  18
ENDBRANCH  16  17
ENDBRANCH   5  16
TORSDOF 4
ENDMDL
MODEL 2
REMARK VINA RESULT:      -8.2      0.191      1.047
REMARK  Name = 
REMARK  5 active torsions:
REMARK  status: ('A' for Active; 'I' for Inactive)
REMARK    1  A    between atoms: C_1  and  C_2
REMARK    2  A    between atoms: N_6  and  C_7
REMARK    3  A    between atoms: N_11  and  C_12
REMARK    4  A    between atoms: C_12  and  C_13
REMARK    5  A    between atoms: C_13  and  C_14
REMARK                            x       y       z     vdW  Elec       q    Type
REMARK                         _______ _______ _______ _____ _____    ______ ____
ROOT
ATOM      1  C   UNL     1       6.636   6.619  16.832  0.00  0.00    +0.000 C 
ATOM      2  C   UNL     1       7.640   7.282  17.785  0.00  0.00    +0.000 C 
ATOM      3  C   UNL     1       8.139   6.403  18.932  0.00  0.00    +0.000 C 
ATOM      4  C   UNL     1       7.038   5.557  19.563  0.00  0.00    +0.000 C 
ATOM      5  N   UNL     1       6.412   4.698  18.545  0.00  0.00    +0.000 NA
ATOM      6  C   UNL     1       5.747   5.552  17.534  0.00  0.00    +0.000 C 
ENDROOT
BRANCH   1  12
ATOM      7  C   UNL     1       5.563   2.648  11.523  0.00  0.00    +0.000 C 
ATOM      8  C   UNL     1       5.935   3.527  12.673  0.00  0.00    +0.000 A 
ATOM      9  C   UNL     1       5.115   3.712  13.771  0.00  0.00    +0.000 A 
ATOM     10  C   UNL     1       5.545   4.559  14.803  0.00  0.00    +0.000 A 
ATOM     11  C   UNL     1       6.765   5.204  14.714  0.00  0.00    +0.000 A 
ATOM     12  N   UNL     1       7.298   6.036  15.668  0.00  0.00    +0.000 N 
ATOM     13  N   UNL     1       7.534   4.993  13.627  0.00  0.00    +0.000 NA
ATOM     14  N   UNL     1       7.120   4.154  12.599  0.00  0.00    +0.000 NA
ATOM     15  H   UNL     1       8.196   6.423  15.400  0.00  0.00    +0.000 HD
ENDBRANCH   1  12
BRANCH   5  16
ATOM     16  C   UNL     1       5.446   3.776  19.199  0.00  0.00    +0.000 C 
BRANCH  16  17
ATOM     17  C   UNL     1       4.346   3.258  18.253  0.00  0.00    +0.000 C 
BRANCH  17  18
ATOM     18  C   UNL     1       2.979   3.218  18.896  0.00  0.00    +0.000 A 
ATOM     19  C   UNL     1       2.743   3.911  20.093  0.00  0.00    +0.000 A 
ATOM     20  C   UNL     1       1.476   3.903  20.679  0.00  0.00    +0.000 A 
ATOM     21  C   UNL     1       0.435   3.202  20.075  0.00  0.00    +0.000 A 
ATOM     22  C   UNL     1       0.660   2.506  18.887  0.00  0.00    +0.000 A 
ATOM     23  C   UNL     1       1.927   2.512  18.300  0.00  0.00    +0.000 A 
ENDBRANCH  17  18
ENDBRANCH  16  17
ENDBRANCH   5  16
TORSDOF 4
ENDMDL
MODEL 3
REMARK VINA RESULT:      -7.9      1.244      1.605
REMARK  Name = 
REMARK  5 active torsions:
REMARK  status: ('A' for Active; 'I' for Inactive)
REMARK    1  A    between atoms: C_1  and  C_2
REMARK    2  A    between atoms: N_6  and  C_7
REMARK    3  A    between atoms: N_11  and  C_12
REMARK    4  A    between atoms: C_12  and  C_13
REMARK    5  A    between atoms: C_13  and  C_14
REMARK                            x       y       z     vdW  Elec       q    Type
REMARK                         _______ _______ _______ _____ _____    ______ ____
ROOT
ATOM      1  C   UNL     1       7.212   6.930  17.530  0.00  0.00    +0.000 C 
ATOM      2  C   UNL     1       7.597   6.006  18.694  0.00  0.00    +0.000 C 
ATOM      3  C   UNL     1       6.555   4.953  19.070  0.00  0.00    +0.000 C 
ATOM      4  C   UNL     1       5.126   5.486  19.051  0.00  0.00    +0.000 C 
ATOM      5  N   UNL     1       4.802   6.020  17.720  0.00  0.00    +0.000 NA
ATOM      6  C   UNL     1       5.678   7.179  17.435  0.00  0.00    +0.000 C 
ENDROOT
BRANCH   1  12
ATOM      7  C   UNL     1       5.606   3.061  12.282  0.00  0.00    +0.000 C 
ATOM      8  C   UNL     1       6.090   3.929  13.398  0.00  0.00    +0.000 A 
ATOM      9  C   UNL     1       5.441   4.015  14.616  0.00  0.00    +0.000 A 
ATOM     10  C   UNL     1       5.966   4.859  15.606  0.00  0.00    +0.000 A 
ATOM     11  C   UNL     1       7.108   5.598  15.358  0.00  0.00    +0.000 A 
ATOM     12  N   UNL     1       7.723   6.438  16.254  0.00  0.00    +0.000 N 
ATOM     13  N   UNL     1       7.710   5.482  14.158  0.00  0.00    +0.000 NA
ATOM     14  N   UNL     1       7.201   4.648  13.170  0.00  0.00    +0.000 NA
ATOM     15  H   UNL     1       8.538   6.902  15.869  0.00  0.00    +0.000 HD
ENDBRANCH   1  12
BRANCH   5  16
ATOM     16  C   UNL     1       3.365   6.401  17.673  0.00  0.00    +0.000 C 
BRANCH  16  17
ATOM     17  C   UNL     1       2.666   6.351  19.044  0.00  0.00    +0.000 C 
BRANCH  17  18
ATOM     18  C   UNL     1       2.032   5.012  19.341  0.00  0.00    +0.000 A 
ATOM     19  C   UNL     1       1.670   4.155  18.290  0.00  0.00    +0.000 A 
ATOM     20  C   UNL     1       1.112   2.904  18.555  0.00  0.00    +0.000 A 
ATOM     21  C   UNL     1       0.909   2.498  19.872  0.00  0.00    +0.000 A 
ATOM     22  C   UNL     1       1.260   3.343  20.924  0.00  0.00    +0.000 A 
ATOM     23  C   UNL     1       1.819   4.596  20.661  0.00  0.00    +0.000 A 
ENDBRANCH  17  18
ENDBRANCH  16  17
ENDBRANCH   5  16
TORSDOF 4
ENDMDL
MODEL 4
REMARK VINA RESULT:      -7.8      1.224      1.843
REMARK  Name = 
REMARK  5 active torsions:
REMARK  status: ('A' for Active; 'I' for Inactive)
REMARK    1  A    between atoms: C_1  and  C_2
REMARK    2  A    between atoms: N_6  and  C_7
REMARK    3  A    between atoms: N_11  and  C_12
REMARK    4  A    between atoms: C_12  and  C_13
REMARK    5  A    between atoms: C_13  and  C_14
REMARK                            x       y       z     vdW  Elec       q    Type
REMARK                         _______ _______ _______ _____ _____    ______ ____
ROOT
ATOM      1  C   UNL     1       7.266   6.911  17.489  0.00  0.00    +0.000 C 
ATOM      2  C   UNL     1       7.650   5.988  18.654  0.00  0.00    +0.000 C 
ATOM      3  C   UNL     1       6.598   4.950  19.046  0.00  0.00    +0.000 C 
ATOM      4  C   UNL     1       5.177   5.501  19.037  0.00  0.00    +0.000 C 
ATOM      5  N   UNL     1       4.846   6.032  17.706  0.00  0.00    +0.000 NA
ATOM      6  C   UNL     1       5.734   7.178  17.406  0.00  0.00    +0.000 C 
ENDROOT
BRANCH   1  12
ATOM      7  C   UNL     1       5.553   3.050  12.267  0.00  0.00    +0.000 C 
ATOM      8  C   UNL     1       6.061   3.914  13.376  0.00  0.00    +0.000 A 
ATOM      9  C   UNL     1       5.422   4.015  14.599  0.00  0.00    +0.000 A 
ATOM     10  C   UNL     1       5.970   4.854  15.581  0.00  0.00    +0.000 A 
ATOM     11  C   UNL     1       7.122   5.573  15.322  0.00  0.00    +0.000 A 
ATOM     12  N   UNL     1       7.758   6.405  16.211  0.00  0.00    +0.000 N 
ATOM     13  N   UNL     1       7.713   5.442  14.118  0.00  0.00    +0.000 NA
ATOM     14  N   UNL     1       7.182   4.613  13.137  0.00  0.00    +0.000 NA
ATOM     15  H   UNL     1       8.578   6.853  15.817  0.00  0.00    +0.000 HD
ENDBRANCH   1  12
BRANCH   5  16
ATOM     16  C   UNL     1       3.414   6.430  17.670  0.00  0.00    +0.000 C 
BRANCH  16  17
ATOM     17  C   UNL     1       2.708   6.327  19.035  0.00  0.00    +0.000 C 
BRANCH  17  18
ATOM     18  C   UNL     1       2.058   4.983  19.269  0.00  0.00    +0.000 A 
ATOM     19  C   UNL     1       1.726   4.577  20.571  0.00  0.00    +0.000 A 
ATOM     20  C   UNL     1       1.099   3.350  20.793  0.00  0.00    +0.000 A 
ATOM     21  C   UNL     1       0.799   2.518  19.718  0.00  0.00    +0.000 A 
ATOM     22  C   UNL     1       1.129   2.909  18.421  0.00  0.00    +0.000 A 
ATOM     23  C   UNL     1       1.757   4.136  18.196  0.00  0.00    +0.000 A 
ENDBRANCH  17  18
ENDBRANCH  16  17
ENDBRANCH   5  16
TORSDOF 4
ENDMDL
MODEL 5
REMARK VINA RESULT:      -7.8      3.439      7.869
REMARK  Name = 
REMARK  5 active torsions:
REMARK  status: ('A' for Active; 'I' for Inactive)
REMARK    1  A    between atoms: C_1  and  C_2
REMARK    2  A    between atoms: N_6  and  C_7
REMARK    3  A    between atoms: N_11  and  C_12
REMARK    4  A    between atoms: C_12  and  C_13
REMARK    5  A    between atoms: C_13  and  C_14
REMARK                            x       y       z     vdW  Elec       q    Type
REMARK                         _______ _______ _______ _____ _____    ______ ____
ROOT
ATOM      1  C   UNL     1       6.273   5.616  17.065  0.00  0.00    +0.000 C 
ATOM      2  C   UNL     1       6.951   4.863  18.218  0.00  0.00    +0.000 C 
ATOM      3  C   UNL     1       7.571   5.743  19.304  0.00  0.00    +0.000 C 
ATOM      4  C   UNL     1       8.299   6.962  18.748  0.00  0.00    +0.000 C 
ATOM      5  N   UNL     1       7.378   7.779  17.943  0.00  0.00    +0.000 NA
ATOM      6  C   UNL     1       6.933   6.995  16.769  0.00  0.00    +0.000 C 
ENDROOT
BRANCH   1  12
ATOM      7  C   UNL     1       0.707   2.231  18.700  0.00  0.00    +0.000 C 
ATOM      8  C   UNL     1       1.866   3.093  18.310  0.00  0.00    +0.000 A 
ATOM      9  C   UNL     1       3.092   2.574  17.934  0.00  0.00    +0.000 A 
ATOM     10  C   UNL     1       4.123   3.458  17.587  0.00  0.00    +0.000 A 
ATOM     11  C   UNL     1       3.915   4.825  17.631  0.00  0.00    +0.000 A 
ATOM     12  N   UNL     1       4.841   5.782  17.294  0.00  0.00    +0.000 N 
ATOM     13  N   UNL     1       2.704   5.286  18.000  0.00  0.00    +0.000 NA
ATOM     14  N   UNL     1       1.673   4.420  18.344  0.00  0.00    +0.000 NA
ATOM     15  H   UNL     1       4.495   6.728  17.414  0.00  0.00    +0.000 HD
ENDBRANCH   1  12
BRANCH   5  16
ATOM     16  C   UNL     1       8.059   9.035  17.531  0.00  0.00    +0.000 C 
BRANCH  16  17
ATOM     17  C   UNL     1       8.848   9.714  18.667  0.00  0.00    +0.000 C 
BRANCH  17  18
ATOM     18  C   UNL     1       9.463  11.033  18.258  0.00  0.00    +0.000 A 
ATOM     19  C   UNL     1      10.849  11.130  18.054  0.00  0.00    +0.000 A 
ATOM     20  C   UNL     1      11.422  12.336  17.647  0.00  0.00    +0.000 A 
ATOM     21  C   UNL     1      10.618  13.454  17.444  0.00  0.00    +0.000 A 
ATOM     22  C   UNL     1       9.241  13.370  17.650  0.00  0.00    +0.000 A 
ATOM     23  C   UNL     1       8.665  12.164  18.056  0.00  0.00    +0.000 A 
ENDBRANCH  17  18
ENDBRANCH  16  17
ENDBRANCH   5  16
TORSDOF 4
ENDMDL
MODEL 6
REMARK VINA RESULT:      -7.8      3.485      4.818
REMARK  Name = 
REMARK  5 active torsions:
REMARK  status: ('A' for Active; 'I' for Inactive)
REMARK    1  A    between atoms: C_1  and  C_2
REMARK    2  A    between atoms: N_6  and  C_7
REMARK    3  A    between atoms: N_11  and  C_12
REMARK    4  A    between atoms: C_12  and  C_13
REMARK    5  A    between atoms: C_13  and  C_14
REMARK                            x       y       z     vdW  Elec       q    Type
REMARK                         _______ _______ _______ _____ _____    ______ ____
ROOT
ATOM      1  C   UNL     1       4.632   3.947  19.213  0.00  0.00    +0.000 C 
ATOM      2  C   UNL     1       3.692   2.978  18.484  0.00  0.00    +0.000 C 
ATOM      3  C   UNL     1       2.710   3.623  17.505  0.00  0.00    +0.000 C 
ATOM      4  C   UNL     1       2.101   4.918  18.032  0.00  0.00    +0.000 C 
ATOM      5  N   UNL     1       3.161   5.886  18.349  0.00  0.00    +0.000 NA
ATOM      6  C   UNL     1       3.997   5.349  19.446  0.00  0.00    +0.000 C 
ENDROOT
BRANCH   1  12
ATOM      7  C   UNL     1       7.342   4.953  13.151  0.00  0.00    +0.000 C 
ATOM      8  C   UNL     1       6.866   4.704  14.546  0.00  0.00    +0.000 A 
ATOM      9  C   UNL     1       5.553   4.384  14.844  0.00  0.00    +0.000 A 
ATOM     10  C   UNL     1       5.196   4.171  16.183  0.00  0.00    +0.000 A 
ATOM     11  C   UNL     1       6.141   4.289  17.186  0.00  0.00    +0.000 A 
ATOM     12  N   UNL     1       5.912   4.083  18.524  0.00  0.00    +0.000 N 
ATOM     13  N   UNL     1       7.409   4.600  16.850  0.00  0.00    +0.000 NA
ATOM     14  N   UNL     1       7.776   4.812  15.527  0.00  0.00    +0.000 NA
ATOM     15  H   UNL     1       6.735   4.240  19.096  0.00  0.00    +0.000 HD
ENDBRANCH   1  12
BRANCH   5  16
ATOM     16  C   UNL     1       2.549   7.190  18.719  0.00  0.00    +0.000 C 
BRANCH  16  17
ATOM     17  C   UNL     1       2.089   7.264  20.188  0.00  0.00    +0.000 C 
BRANCH  17  18
ATOM     18  C   UNL     1       1.262   8.492  20.491  0.00  0.00    +0.000 A 
ATOM     19  C   UNL     1       1.032   9.450  19.492  0.00  0.00    +0.000 A 
ATOM     20  C   UNL     1       0.244  10.573  19.754  0.00  0.00    +0.000 A 
ATOM     21  C   UNL     1      -0.318  10.748  21.016  0.00  0.00    +0.000 A 
ATOM     22  C   UNL     1      -0.092   9.804  22.017  0.00  0.00    +0.000 A 
ATOM     23  C   UNL     1       0.696   8.680  21.757  0.00  0.00    +0.000 A 
ENDBRANCH  17  18
ENDBRANCH  16  17
ENDBRANCH   5  16
TORSDOF 4
ENDMDL
MODEL 7
REMARK VINA RESULT:      -7.8      3.099      5.607
REMARK  Name = 
REMARK  5 active torsions:
REMARK  status: ('A' for Active; 'I' for Inactive)
REMARK    1  A    between atoms: C_1  and  C_2
REMARK    2  A    between atoms: N_6  and  C_7
REMARK    3  A    between atoms: N_11  and  C_12
REMARK    4  A    between atoms: C_12  and  C_13
REMARK    5  A    between atoms: C_13  and  C_14
REMARK                            x       y       z     vdW  Elec       q    Type
REMARK                         _______ _______ _______ _____ _____    ______ ____
ROOT
ATOM      1  C   UNL     1       4.019   2.581  19.328  0.00  0.00    +0.000 C 
ATOM      2  C   UNL     1       3.533   2.206  17.920  0.00  0.00    +0.000 C 
ATOM      3  C   UNL     1       2.696   3.269  17.208  0.00  0.00    +0.000 C 
ATOM      4  C   UNL     1       1.694   3.960  18.127  0.00  0.00    +0.000 C 
ATOM      5  N   UNL     1       2.393   4.587  19.259  0.00  0.00    +0.000 NA
ATOM      6  C   UNL     1       3.039   3.533  20.074  0.00  0.00    +0.000 C 
ENDROOT
BRANCH   1  12
ATOM      7  C   UNL     1       7.470   7.970  17.291  0.00  0.00    +0.000 C 
ATOM      8  C   UNL     1       6.823   6.712  17.775  0.00  0.00    +0.000 A 
ATOM      9  C   UNL     1       5.533   6.352  17.426  0.00  0.00    +0.000 A 
ATOM     10  C   UNL     1       5.006   5.154  17.930  0.00  0.00    +0.000 A 
ATOM     11  C   UNL     1       5.762   4.356  18.769  0.00  0.00    +0.000 A 
ATOM     12  N   UNL     1       5.360   3.157  19.303  0.00  0.00    +0.000 N 
ATOM     13  N   UNL     1       7.015   4.744  19.080  0.00  0.00    +0.000 NA
ATOM     14  N   UNL     1       7.550   5.928  18.586  0.00  0.00    +0.000 NA
ATOM     15  H   UNL     1       6.058   2.738  19.909  0.00  0.00    +0.000 HD
ENDBRANCH   1  12
BRANCH   5  16
ATOM     16  C   UNL     1       1.425   5.380  20.063  0.00  0.00    +0.000 C 
BRANCH  16  17
ATOM     17  C   UNL     1       2.026   6.663  20.668  0.00  0.00    +0.000 C 
BRANCH  17  18
ATOM     18  C   UNL     1       1.768   7.893  19.829  0.00  0.00    +0.000 A 
ATOM     19  C   UNL     1       0.989   8.943  20.339  0.00  0.00    +0.000 A 
ATOM     20  C   UNL     1       0.769  10.096  19.584  0.00  0.00    +0.000 A 
ATOM     21  C   UNL     1       1.324  10.209  18.312  0.00  0.00    +0.000 A 
ATOM     22  C   UNL     1       2.095   9.169  17.792  0.00  0.00    +0.000 A 
ATOM     23  C   UNL     1       2.316   8.015  18.547  0.00  0.00    +0.000 A 
ENDBRANCH  17  18
ENDBRANCH  16  17
ENDBRANCH   5  16
TORSDOF 4
ENDMDL
MODEL 8
REMARK VINA RESULT:      -7.7      3.398      4.787
REMARK  Name = 
REMARK  5 active torsions:
REMARK  status: ('A' for Active; 'I' for Inactive)
REMARK    1  A    between atoms: C_1  and  C_2
REMARK    2  A    between atoms: N_6  and  C_7
REMARK    3  A    between atoms: N_11  and  C_12
REMARK    4  A    between atoms: C_12  and  C_13
REMARK    5  A    between atoms: C_13  and  C_14
REMARK                            x       y       z     vdW  Elec       q    Type
REMARK                         _______ _______ _______ _____ _____    ______ ____
ROOT
ATOM      1  C   UNL     1       4.632   3.833  19.143  0.00  0.00    +0.000 C 
ATOM      2  C   UNL     1       3.769   2.764  18.459  0.00  0.00    +0.000 C 
ATOM      3  C   UNL     1       2.766   3.285  17.430  0.00  0.00    +0.000 C 
ATOM      4  C   UNL     1       2.066   4.566  17.869  0.00  0.00    +0.000 C 
ATOM      5  N   UNL     1       3.056   5.619  18.143  0.00  0.00    +0.000 NA
ATOM      6  C   UNL     1       3.904   5.202  19.283  0.00  0.00    +0.000 C 
ENDROOT
BRANCH   1  12
ATOM      7  C   UNL     1       7.360   4.967  13.112  0.00  0.00    +0.000 C 
ATOM      8  C   UNL     1       6.881   4.693  14.501  0.00  0.00    +0.000 A 
ATOM      9  C   UNL     1       5.575   4.334  14.785  0.00  0.00    +0.000 A 
ATOM     10  C   UNL     1       5.213   4.099  16.120  0.00  0.00    +0.000 A 
ATOM     11  C   UNL     1       6.147   4.235  17.131  0.00  0.00    +0.000 A 
ATOM     12  N   UNL     1       5.913   4.011  18.465  0.00  0.00    +0.000 N 
ATOM     13  N   UNL     1       7.408   4.584  16.808  0.00  0.00    +0.000 NA
ATOM     14  N   UNL     1       7.780   4.817  15.489  0.00  0.00    +0.000 NA
ATOM     15  H   UNL     1       6.727   4.185  19.045  0.00  0.00    +0.000 HD
ENDBRANCH   1  12
BRANCH   5  16
ATOM     16  C   UNL     1       2.356   6.900  18.426  0.00  0.00    +0.000 C 
BRANCH  16  17
ATOM     17  C   UNL     1       2.312   7.265  19.921  0.00  0.00    +0.000 C 
BRANCH  17  18
ATOM     18  C   UNL     1       1.351   8.389  20.231  0.00  0.00    +0.000 A 
ATOM     19  C   UNL     1       0.678   8.422  21.462  0.00  0.00    +0.000 A 
ATOM     20  C   UNL     1      -0.189   9.472  21.769  0.00  0.00    +0.000 A 
ATOM     21  C   UNL     1      -0.392  10.497  20.849  0.00  0.00    +0.000 A 
ATOM     22  C   UNL     1       0.269  10.472  19.621  0.00  0.00    +0.000 A 
ATOM     23  C   UNL     1       1.136   9.422  19.312  0.00  0.00    +0.000 A 
ENDBRANCH  17  18
ENDBRANCH  16  17
ENDBRANCH   5  16
TORSDOF 4
ENDMDL
MODEL 9
REMARK VINA RESULT:      -7.7      4.174      7.890
REMARK  Name = 
REMARK  5 active torsions:
REMARK  status: ('A' for Active; 'I' for Inactive)
REMARK    1  A    between atoms: C_1  and  C_2
REMARK    2  A    between atoms: N_6  and  C_7
REMARK    3  A    between atoms: N_11  and  C_12
REMARK    4  A    between atoms: C_12  and  C_13
REMARK    5  A    between atoms: C_13  and  C_14
REMARK                            x       y       z     vdW  Elec       q    Type
REMARK                         _______ _______ _______ _____ _____    ______ ____
ROOT
ATOM      1  C   UNL     1       1.742   5.876  19.949  0.00  0.00    +0.000 C 
ATOM      2  C   UNL     1       1.114   4.586  20.496  0.00  0.00    +0.000 C 
ATOM      3  C   UNL     1       2.103   3.526  20.979  0.00  0.00    +0.000 C 
ATOM      4  C   UNL     1       3.316   3.375  20.067  0.00  0.00    +0.000 C 
ATOM      5  N   UNL     1       4.021   4.659  19.943  0.00  0.00    +0.000 NA
ATOM      6  C   UNL     1       3.129   5.640  19.283  0.00  0.00    +0.000 C 
ENDROOT
BRANCH   1  12
ATOM      7  C   UNL     1       0.291  12.310  21.214  0.00  0.00    +0.000 C 
ATOM      8  C   UNL     1       0.685  10.877  21.050  0.00  0.00    +0.000 A 
ATOM      9  C   UNL     1       0.657  10.227  19.829  0.00  0.00    +0.000 A 
ATOM     10  C   UNL     1       1.041   8.880  19.770  0.00  0.00    +0.000 A 
ATOM     11  C   UNL     1       1.430   8.214  20.918  0.00  0.00    +0.000 A 
ATOM     12  N   UNL     1       1.846   6.907  20.978  0.00  0.00    +0.000 N 
ATOM     13  N   UNL     1       1.445   8.887  22.086  0.00  0.00    +0.000 NA
ATOM     14  N   UNL     1       1.069  10.223  22.157  0.00  0.00    +0.000 NA
ATOM     15  H   UNL     1       2.069   6.604  21.920  0.00  0.00    +0.000 HD
ENDBRANCH   1  12
BRANCH   5  16
ATOM     16  C   UNL     1       5.279   4.465  19.174  0.00  0.00    +0.000 C 
BRANCH  16  17
ATOM     17  C   UNL     1       5.584   5.605  18.185  0.00  0.00    +0.000 C 
BRANCH  17  18
ATOM     18  C   UNL     1       5.868   5.117  16.783  0.00  0.00    +0.000 A 
ATOM     19  C   UNL     1       4.914   4.349  16.098  0.00  0.00    +0.000 A 
ATOM     20  C   UNL     1       5.156   3.919  14.792  0.00  0.00    +0.000 A 
ATOM     21  C   UNL     1       6.352   4.251  14.161  0.00  0.00    +0.000 A 
ATOM     22  C   UNL     1       7.309   5.009  14.835  0.00  0.00    +0.000 A 
ATOM     23  C   UNL     1       7.069   5.440  16.142  0.00  0.00    +0.000 A 
ENDBRANCH  17  18
ENDBRANCH  16  17
ENDBRANCH   5  16
TORSDOF 4
ENDMDL
