MODEL 1
REMARK VINA RESULT:      -7.3      0.000      0.000
REMARK  Name = 
REMARK  5 active torsions:
REMARK  status: ('A' for Active; 'I' for Inactive)
REMARK    1  A    between atoms: C_2  and  C_3
REMARK    2  A    between atoms: C_3  and  N_4
REMARK    3  A    between atoms: C_5  and  C_7
REMARK    4  A    between atoms: N_13  and  N_14
REMARK    5  A    between atoms: C_15  and  C_16
REMARK                            x       y       z     vdW  Elec       q    Type
REMARK                         _______ _______ _______ _____ _____    ______ ____
ROOT
ATOM      1  O   UNL     1       7.849   6.080  18.453  0.00  0.00    +0.000 OA
ATOM      2  C   UNL     1       7.360   6.769  17.559  0.00  0.00    +0.000 C 
ATOM      3  N   UNL     1       7.599   8.124  17.360  0.00  0.00    +0.000 N 
ATOM      4  H   UNL     1       7.314   8.566  16.487  0.00  0.00    +0.000 HD
ENDROOT
BRANCH   3   5
ATOM      5  N   UNL     1       8.355   8.809  18.266  0.00  0.00    +0.000 NA
ATOM      6  C   UNL     1       8.747   9.991  17.906  0.00  0.00    +0.000 C 
BRANCH   6   7
ATOM      7  C   UNL     1       9.559  10.849  18.795  0.00  0.00    +0.000 A 
ATOM      8  C   UNL     1       9.318  10.894  20.164  0.00  0.00    +0.000 A 
ATOM      9  C   UNL     1      10.104  11.739  20.943  0.00  0.00    +0.000 A 
ATOM     10  C   UNL     1      11.093  12.503  20.332  0.00  0.00    +0.000 A 
ATOM     11  C   UNL     1      11.262  12.386  18.959  0.00  0.00    +0.000 A 
ATOM     12  N   UNL     1      10.519  11.576  18.172  0.00  0.00    +0.000 NA
ENDBRANCH   6   7
ENDBRANCH   3   5
BRANCH   2  13
ATOM     13  C   UNL     1       6.469   6.152  16.485  0.00  0.00    +0.000 C 
BRANCH  13  14
ATOM     14  N   UNL     1       5.258   5.598  17.062  0.00  0.00    +0.000 N 
ATOM     15  C   UNL     1       4.892   4.299  16.789  0.00  0.00    +0.000 C 
ATOM     16  O   UNL     1       5.566   3.568  16.069  0.00  0.00    +0.000 OA
ATOM     17  H   UNL     1       4.890   6.057  17.888  0.00  0.00    +0.000 HD
BRANCH  15  18
ATOM     18  C   UNL     1       3.651   3.797  17.438  0.00  0.00    +0.000 A 
ATOM     19  C   UNL     1       3.444   2.443  17.706  0.00  0.00    +0.000 A 
ATOM     20  C   UNL     1       2.267   2.079  18.341  0.00  0.00    +0.000 A 
ATOM     21  N   UNL     1       1.315   2.959  18.717  0.00  0.00    +0.000 NA
ATOM     22  C   UNL     1       1.547   4.263  18.457  0.00  0.00    +0.000 A 
ATOM     23  C   UNL     1       2.689   4.729  17.832  0.00  0.00    +0.000 A 
ENDBRANCH  15  18
ENDBRANCH  13  14
ENDBRANCH   2  13
TORSDOF 5
ENDMDL
MODEL 2
REMARK VINA RESULT:      -7.3      0.730      1.513
REMARK  Name = 
REMARK  5 active torsions:
REMARK  status: ('A' for Active; 'I' for Inactive)
REMARK    1  A    between atoms: C_2  and  C_3
REMARK    2  A    between atoms: C_3  and  N_4
REMARK    3  A    between atoms: C_5  and  C_7
REMARK    4  A    between atoms: N_13  and  N_14
REMARK    5  A    between atoms: C_15  and  C_16
REMARK                            x       y       z     vdW  Elec       q    Type
REMARK                         _______ _______ _______ _____ _____    ______ ____
ROOT
ATOM      1  O   UNL     1       7.729   6.091  18.518  0.00  0.00    +0.000 OA
ATOM      2  C   UNL     1       7.203   6.807  17.666  0.00  0.00    +0.000 C 
ATOM      3  N   UNL     1       7.538   8.130  17.405  0.00  0.00    +0.000 N 
ATOM      4  H   UNL     1       7.195   8.582  16.558  0.00  0.00    +0.000 HD
ENDROOT
BRANCH   3   5
ATOM      5  N   UNL     1       8.454   8.758  18.199  0.00  0.00    +0.000 NA
ATOM      6  C   UNL     1       8.598  10.032  18.008  0.00  0.00    +0.000 C 
BRANCH   6   7
ATOM      7  C   UNL     1       9.544  10.838  18.809  0.00  0.00    +0.000 A 
ATOM      8  C   UNL     1      10.664  11.420  18.226  0.00  0.00    +0.000 A 
ATOM      9  C   UNL     1      11.527  12.148  19.040  0.00  0.00    +0.000 A 
ATOM     10  C   UNL     1      11.243  12.267  20.396  0.00  0.00    +0.000 A 
ATOM     11  C   UNL     1      10.098  11.655  20.887  0.00  0.00    +0.000 A 
ATOM     12  N   UNL     1       9.237  10.942  20.126  0.00  0.00    +0.000 NA
ENDBRANCH   6   7
ENDBRANCH   3   5
BRANCH   2  13
ATOM     13  C   UNL     1       6.141   6.257  16.719  0.00  0.00    +0.000 C 
BRANCH  13  14
ATOM     14  N   UNL     1       5.054   5.635  17.453  0.00  0.00    +0.000 N 
ATOM     15  C   UNL     1       4.464   4.486  16.974  0.00  0.00    +0.000 C 
ATOM     16  O   UNL     1       4.832   3.947  15.935  0.00  0.00    +0.000 OA
ATOM     17  H   UNL     1       4.971   5.866  18.436  0.00  0.00    +0.000 HD
BRANCH  15  18
ATOM     18  C   UNL     1       3.374   3.896  17.796  0.00  0.00    +0.000 A 
ATOM     19  C   UNL     1       2.455   4.681  18.494  0.00  0.00    +0.000 A 
ATOM     20  C   UNL     1       1.459   4.036  19.208  0.00  0.00    +0.000 A 
ATOM     21  N   UNL     1       1.324   2.694  19.263  0.00  0.00    +0.000 NA
ATOM     22  C   UNL     1       2.218   1.959  18.567  0.00  0.00    +0.000 A 
ATOM     23  C   UNL     1       3.245   2.506  17.822  0.00  0.00    +0.000 A 
ENDBRANCH  15  18
ENDBRANCH  13  14
ENDBRANCH   2  13
TORSDOF 5
ENDMDL
MODEL 3
REMARK VINA RESULT:      -7.3      1.220      1.752
REMARK  Name = 
REMARK  5 active torsions:
REMARK  status: ('A' for Active; 'I' for Inactive)
REMARK    1  A    between atoms: C_2  and  C_3
REMARK    2  A    between atoms: C_3  and  N_4
REMARK    3  A    between atoms: C_5  and  C_7
REMARK    4  A    between atoms: N_13  and  N_14
REMARK    5  A    between atoms: C_15  and  C_16
REMARK                            x       y       z     vdW  Elec       q    Type
REMARK                         _______ _______ _______ _____ _____    ______ ____
ROOT
ATOM      1  O   UNL     1       6.946   7.545  16.816  0.00  0.00    +0.000 OA
ATOM      2  C   UNL     1       7.569   7.114  17.786  0.00  0.00    +0.000 C 
ATOM      3  N   UNL     1       8.360   7.872  18.640  0.00  0.00    +0.000 N 
ATOM      4  H   UNL     1       8.675   7.476  19.525  0.00  0.00    +0.000 HD
ENDROOT
BRANCH   3   5
ATOM      5  N   UNL     1       8.570   9.192  18.362  0.00  0.00    +0.000 NA
ATOM      6  C   UNL     1       9.245   9.861  19.243  0.00  0.00    +0.000 C 
BRANCH   6   7
ATOM      7  C   UNL     1       9.559  11.295  19.061  0.00  0.00    +0.000 A 
ATOM      8  C   UNL     1      10.397  11.965  19.946  0.00  0.00    +0.000 A 
ATOM      9  C   UNL     1      10.634  13.319  19.730  0.00  0.00    +0.000 A 
ATOM     10  C   UNL     1      10.030  13.951  18.649  0.00  0.00    +0.000 A 
ATOM     11  C   UNL     1       9.213  13.198  17.817  0.00  0.00    +0.000 A 
ATOM     12  N   UNL     1       8.961  11.882  17.994  0.00  0.00    +0.000 NA
ENDBRANCH   6   7
ENDBRANCH   3   5
BRANCH   2  13
ATOM     13  C   UNL     1       7.458   5.652  18.208  0.00  0.00    +0.000 C 
BRANCH  13  14
ATOM     14  N   UNL     1       6.070   5.244  18.330  0.00  0.00    +0.000 N 
ATOM     15  C   UNL     1       5.498   4.441  17.369  0.00  0.00    +0.000 C 
ATOM     16  O   UNL     1       6.127   4.037  16.395  0.00  0.00    +0.000 OA
ATOM     17  H   UNL     1       5.658   5.287  19.255  0.00  0.00    +0.000 HD
BRANCH  15  18
ATOM     18  C   UNL     1       4.079   4.045  17.578  0.00  0.00    +0.000 A 
ATOM     19  C   UNL     1       3.049   4.982  17.672  0.00  0.00    +0.000 A 
ATOM     20  C   UNL     1       1.756   4.512  17.837  0.00  0.00    +0.000 A 
ATOM     21  N   UNL     1       1.438   3.202  17.910  0.00  0.00    +0.000 NA
ATOM     22  C   UNL     1       2.453   2.318  17.803  0.00  0.00    +0.000 A 
ATOM     23  C   UNL     1       3.774   2.684  17.633  0.00  0.00    +0.000 A 
ENDBRANCH  15  18
ENDBRANCH  13  14
ENDBRANCH   2  13
TORSDOF 5
ENDMDL
MODEL 4
REMARK VINA RESULT:      -7.2      1.498      1.774
REMARK  Name = 
REMARK  5 active torsions:
REMARK  status: ('A' for Active; 'I' for Inactive)
REMARK    1  A    between atoms: C_2  and  C_3
REMARK    2  A    between atoms: C_3  and  N_4
REMARK    3  A    between atoms: C_5  and  C_7
REMARK    4  A    between atoms: N_13  and  N_14
REMARK    5  A    between atoms: C_15  and  C_16
REMARK                            x       y       z     vdW  Elec       q    Type
REMARK                         _______ _______ _______ _____ _____    ______ ____
ROOT
ATOM      1  O   UNL     1       8.203   5.293  19.337  0.00  0.00    +0.000 OA
ATOM      2  C   UNL     1       7.636   5.610  18.292  0.00  0.00    +0.000 C 
ATOM      3  N   UNL     1       7.641   6.878  17.723  0.00  0.00    +0.000 N 
ATOM      4  H   UNL     1       7.317   7.004  16.765  0.00  0.00    +0.000 HD
ENDROOT
BRANCH   3   5
ATOM      5  N   UNL     1       8.231   7.910  18.393  0.00  0.00    +0.000 NA
ATOM      6  C   UNL     1       8.152   9.076  17.832  0.00  0.00    +0.000 C 
BRANCH   6   7
ATOM      7  C   UNL     1       8.734  10.283  18.457  0.00  0.00    +0.000 A 
ATOM      8  C   UNL     1       8.716  11.509  17.802  0.00  0.00    +0.000 A 
ATOM      9  C   UNL     1       9.301  12.602  18.436  0.00  0.00    +0.000 A 
ATOM     10  C   UNL     1       9.878  12.432  19.689  0.00  0.00    +0.000 A 
ATOM     11  C   UNL     1       9.843  11.170  20.266  0.00  0.00    +0.000 A 
ATOM     12  N   UNL     1       9.283  10.088  19.681  0.00  0.00    +0.000 NA
ENDBRANCH   6   7
ENDBRANCH   3   5
BRANCH   2  13
ATOM     13  C   UNL     1       6.908   4.573  17.443  0.00  0.00    +0.000 C 
BRANCH  13  14
ATOM     14  N   UNL     1       5.644   4.192  18.048  0.00  0.00    +0.000 N 
ATOM     15  C   UNL     1       4.497   4.894  17.754  0.00  0.00    +0.000 C 
ATOM     16  O   UNL     1       4.493   5.844  16.977  0.00  0.00    +0.000 OA
ATOM     17  H   UNL     1       5.573   3.247  18.408  0.00  0.00    +0.000 HD
BRANCH  15  18
ATOM     18  C   UNL     1       3.238   4.426  18.394  0.00  0.00    +0.000 A 
ATOM     19  C   UNL     1       2.316   3.619  17.726  0.00  0.00    +0.000 A 
ATOM     20  C   UNL     1       1.187   3.212  18.419  0.00  0.00    +0.000 A 
ATOM     21  N   UNL     1       0.932   3.548  19.701  0.00  0.00    +0.000 NA
ATOM     22  C   UNL     1       1.847   4.320  20.326  0.00  0.00    +0.000 A 
ATOM     23  C   UNL     1       3.005   4.774  19.726  0.00  0.00    +0.000 A 
ENDBRANCH  15  18
ENDBRANCH  13  14
ENDBRANCH   2  13
TORSDOF 5
ENDMDL
MODEL 5
REMARK VINA RESULT:      -7.2      1.085      1.346
REMARK  Name = 
REMARK  5 active torsions:
REMARK  status: ('A' for Active; 'I' for Inactive)
REMARK    1  A    between atoms: C_2  and  C_3
REMARK    2  A    between atoms: C_3  and  N_4
REMARK    3  A    between atoms: C_5  and  C_7
REMARK    4  A    between atoms: N_13  and  N_14
REMARK    5  A    between atoms: C_15  and  C_16
REMARK                            x       y       z     vdW  Elec       q    Type
REMARK                         _______ _______ _______ _____ _____    ______ ____
ROOT
ATOM      1  O   UNL     1       7.845   6.124  18.602  0.00  0.00    +0.000 OA
ATOM      2  C   UNL     1       7.400   6.740  17.634  0.00  0.00    +0.000 C 
ATOM      3  N   UNL     1       7.641   8.079  17.349  0.00  0.00    +0.000 N 
ATOM      4  H   UNL     1       7.400   8.452  16.431  0.00  0.00    +0.000 HD
ENDROOT
BRANCH   3   5
ATOM      5  N   UNL     1       8.344   8.837  18.239  0.00  0.00    +0.000 NA
ATOM      6  C   UNL     1       8.664  10.030  17.847  0.00  0.00    +0.000 C 
BRANCH   6   7
ATOM      7  C   UNL     1       9.412  10.963  18.717  0.00  0.00    +0.000 A 
ATOM      8  C   UNL     1       9.428  10.800  20.098  0.00  0.00    +0.000 A 
ATOM      9  C   UNL     1      10.133  11.726  20.862  0.00  0.00    +0.000 A 
ATOM     10  C   UNL     1      10.791  12.772  20.225  0.00  0.00    +0.000 A 
ATOM     11  C   UNL     1      10.722  12.849  18.841  0.00  0.00    +0.000 A 
ATOM     12  N   UNL     1      10.049  11.968  18.067  0.00  0.00    +0.000 NA
ENDBRANCH   6   7
ENDBRANCH   3   5
BRANCH   2  13
ATOM     13  C   UNL     1       6.571   6.037  16.564  0.00  0.00    +0.000 C 
BRANCH  13  14
ATOM     14  N   UNL     1       5.661   5.072  17.155  0.00  0.00    +0.000 N 
ATOM     15  C   UNL     1       4.376   5.444  17.483  0.00  0.00    +0.000 C 
ATOM     16  O   UNL     1       3.953   6.579  17.285  0.00  0.00    +0.000 OA
ATOM     17  H   UNL     1       5.877   4.092  17.017  0.00  0.00    +0.000 HD
BRANCH  15  18
ATOM     18  C   UNL     1       3.497   4.392  18.061  0.00  0.00    +0.000 A 
ATOM     19  C   UNL     1       2.129   4.329  17.788  0.00  0.00    +0.000 A 
ATOM     20  C   UNL     1       1.401   3.294  18.351  0.00  0.00    +0.000 A 
ATOM     21  N   UNL     1       1.940   2.342  19.143  0.00  0.00    +0.000 NA
ATOM     22  C   UNL     1       3.267   2.420  19.379  0.00  0.00    +0.000 A 
ATOM     23  C   UNL     1       4.081   3.410  18.862  0.00  0.00    +0.000 A 
ENDBRANCH  15  18
ENDBRANCH  13  14
ENDBRANCH   2  13
TORSDOF 5
ENDMDL
MODEL 6
REMARK VINA RESULT:      -7.2      1.562      2.094
REMARK  Name = 
REMARK  5 active torsions:
REMARK  status: ('A' for Active; 'I' for Inactive)
REMARK    1  A    between atoms: C_2  and  C_3
REMARK    2  A    between atoms: C_3  and  N_4
REMARK    3  A    between atoms: C_5  and  C_7
REMARK    4  A    between atoms: N_13  and  N_14
REMARK    5  A    between atoms: C_15  and  C_16
REMARK                            x       y       z     vdW  Elec       q    Type
REMARK                         _______ _______ _______ _____ _____    ______ ____
ROOT
ATOM      1  O   UNL     1       6.970   6.251  18.690  0.00  0.00    +0.000 OA
ATOM      2  C   UNL     1       6.656   6.846  17.660  0.00  0.00    +0.000 C 
ATOM      3  N   UNL     1       7.304   7.961  17.142  0.00  0.00    +0.000 N 
ATOM      4  H   UNL     1       7.103   8.267  16.190  0.00  0.00    +0.000 HD
ENDROOT
BRANCH   3   5
ATOM      5  N   UNL     1       8.318   8.535  17.851  0.00  0.00    +0.000 NA
ATOM      6  C   UNL     1       8.266   9.824  17.983  0.00  0.00    +0.000 C 
BRANCH   6   7
ATOM      7  C   UNL     1       9.292  10.573  18.740  0.00  0.00    +0.000 A 
ATOM      8  C   UNL     1      10.441  11.047  18.116  0.00  0.00    +0.000 A 
ATOM      9  C   UNL     1      11.378  11.725  18.890  0.00  0.00    +0.000 A 
ATOM     10  C   UNL     1      11.137  11.902  20.249  0.00  0.00    +0.000 A 
ATOM     11  C   UNL     1       9.959  11.397  20.781  0.00  0.00    +0.000 A 
ATOM     12  N   UNL     1       9.026  10.736  20.059  0.00  0.00    +0.000 NA
ENDBRANCH   6   7
ENDBRANCH   3   5
BRANCH   2  13
ATOM     13  C   UNL     1       5.523   6.342  16.772  0.00  0.00    +0.000 C 
BRANCH  13  14
ATOM     14  N   UNL     1       4.614   5.487  17.515  0.00  0.00    +0.000 N 
ATOM     15  C   UNL     1       3.450   6.004  18.039  0.00  0.00    +0.000 C 
ATOM     16  O   UNL     1       3.134   7.181  17.894  0.00  0.00    +0.000 OA
ATOM     17  H   UNL     1       4.691   4.489  17.358  0.00  0.00    +0.000 HD
BRANCH  15  18
ATOM     18  C   UNL     1       2.559   5.058  18.764  0.00  0.00    +0.000 A 
ATOM     19  C   UNL     1       2.250   5.213  20.117  0.00  0.00    +0.000 A 
ATOM     20  C   UNL     1       1.387   4.295  20.694  0.00  0.00    +0.000 A 
ATOM     21  N   UNL     1       0.828   3.266  20.024  0.00  0.00    +0.000 NA
ATOM     22  C   UNL     1       1.135   3.148  18.714  0.00  0.00    +0.000 A 
ATOM     23  C   UNL     1       1.980   4.012  18.044  0.00  0.00    +0.000 A 
ENDBRANCH  15  18
ENDBRANCH  13  14
ENDBRANCH   2  13
TORSDOF 5
ENDMDL
MODEL 7
REMARK VINA RESULT:      -7.2      1.293      1.594
REMARK  Name = 
REMARK  5 active torsions:
REMARK  status: ('A' for Active; 'I' for Inactive)
REMARK    1  A    between atoms: C_2  and  C_3
REMARK    2  A    between atoms: C_3  and  N_4
REMARK    3  A    between atoms: C_5  and  C_7
REMARK    4  A    between atoms: N_13  and  N_14
REMARK    5  A    between atoms: C_15  and  C_16
REMARK                            x       y       z     vdW  Elec       q    Type
REMARK                         _______ _______ _______ _____ _____    ______ ____
ROOT
ATOM      1  O   UNL     1       6.716   7.526  16.735  0.00  0.00    +0.000 OA
ATOM      2  C   UNL     1       7.438   7.059  17.615  0.00  0.00    +0.000 C 
ATOM      3  N   UNL     1       8.309   7.786  18.417  0.00  0.00    +0.000 N 
ATOM      4  H   UNL     1       8.716   7.354  19.246  0.00  0.00    +0.000 HD
ENDROOT
BRANCH   3   5
ATOM      5  N   UNL     1       8.482   9.119  18.179  0.00  0.00    +0.000 NA
ATOM      6  C   UNL     1       9.186   9.769  19.051  0.00  0.00    +0.000 C 
BRANCH   6   7
ATOM      7  C   UNL     1       9.465  11.214  18.908  0.00  0.00    +0.000 A 
ATOM      8  C   UNL     1      10.028  11.725  17.743  0.00  0.00    +0.000 A 
ATOM      9  C   UNL     1      10.285  13.091  17.681  0.00  0.00    +0.000 A 
ATOM     10  C   UNL     1       9.976  13.892  18.776  0.00  0.00    +0.000 A 
ATOM     11  C   UNL     1       9.412  13.292  19.893  0.00  0.00    +0.000 A 
ATOM     12  N   UNL     1       9.146  11.970  19.988  0.00  0.00    +0.000 NA
ENDBRANCH   6   7
ENDBRANCH   3   5
BRANCH   2  13
ATOM     13  C   UNL     1       7.380   5.578  17.980  0.00  0.00    +0.000 C 
BRANCH  13  14
ATOM     14  N   UNL     1       6.009   5.134  18.155  0.00  0.00    +0.000 N 
ATOM     15  C   UNL     1       5.416   4.329  17.208  0.00  0.00    +0.000 C 
ATOM     16  O   UNL     1       6.013   3.953  16.203  0.00  0.00    +0.000 OA
ATOM     17  H   UNL     1       5.636   5.155  19.097  0.00  0.00    +0.000 HD
BRANCH  15  18
ATOM     18  C   UNL     1       4.018   3.895  17.473  0.00  0.00    +0.000 A 
ATOM     19  C   UNL     1       3.666   2.551  17.613  0.00  0.00    +0.000 A 
ATOM     20  C   UNL     1       2.342   2.251  17.887  0.00  0.00    +0.000 A 
ATOM     21  N   UNL     1       1.376   3.183  18.030  0.00  0.00    +0.000 NA
ATOM     22  C   UNL     1       1.746   4.475  17.903  0.00  0.00    +0.000 A 
ATOM     23  C   UNL     1       3.041   4.879  17.634  0.00  0.00    +0.000 A 
ENDBRANCH  15  18
ENDBRANCH  13  14
ENDBRANCH   2  13
TORSDOF 5
ENDMDL
MODEL 8
REMARK VINA RESULT:      -7.2      1.211      1.350
REMARK  Name = 
REMARK  5 active torsions:
REMARK  status: ('A' for Active; 'I' for Inactive)
REMARK    1  A    between atoms: C_2  and  C_3
REMARK    2  A    between atoms: C_3  and  N_4
REMARK    3  A    between atoms: C_5  and  C_7
REMARK    4  A    between atoms: N_13  and  N_14
REMARK    5  A    between atoms: C_15  and  C_16
REMARK                            x       y       z     vdW  Elec       q    Type
REMARK                         _______ _______ _______ _____ _____    ______ ____
ROOT
ATOM      1  O   UNL     1       6.862   7.582  16.860  0.00  0.00    +0.000 OA
ATOM      2  C   UNL     1       7.538   7.140  17.788  0.00  0.00    +0.000 C 
ATOM      3  N   UNL     1       8.361   7.892  18.618  0.00  0.00    +0.000 N 
ATOM      4  H   UNL     1       8.725   7.482  19.477  0.00  0.00    +0.000 HD
ENDROOT
BRANCH   3   5
ATOM      5  N   UNL     1       8.540   9.220  18.358  0.00  0.00    +0.000 NA
ATOM      6  C   UNL     1       9.202   9.892  19.246  0.00  0.00    +0.000 C 
BRANCH   6   7
ATOM      7  C   UNL     1       9.482  11.335  19.083  0.00  0.00    +0.000 A 
ATOM      8  C   UNL     1       9.502  12.190  20.179  0.00  0.00    +0.000 A 
ATOM      9  C   UNL     1       9.750  13.542  19.955  0.00  0.00    +0.000 A 
ATOM     10  C   UNL     1       9.966  13.986  18.655  0.00  0.00    +0.000 A 
ATOM     11  C   UNL     1       9.932  13.056  17.625  0.00  0.00    +0.000 A 
ATOM     12  N   UNL     1       9.696  11.737  17.806  0.00  0.00    +0.000 NA
ENDBRANCH   6   7
ENDBRANCH   3   5
BRANCH   2  13
ATOM     13  C   UNL     1       7.467   5.669  18.184  0.00  0.00    +0.000 C 
BRANCH  13  14
ATOM     14  N   UNL     1       6.091   5.218  18.288  0.00  0.00    +0.000 N 
ATOM     15  C   UNL     1       5.544   4.430  17.299  0.00  0.00    +0.000 C 
ATOM     16  O   UNL     1       6.188   4.075  16.316  0.00  0.00    +0.000 OA
ATOM     17  H   UNL     1       5.675   5.220  19.212  0.00  0.00    +0.000 HD
BRANCH  15  18
ATOM     18  C   UNL     1       4.137   3.988  17.491  0.00  0.00    +0.000 A 
ATOM     19  C   UNL     1       3.782   2.640  17.574  0.00  0.00    +0.000 A 
ATOM     20  C   UNL     1       2.448   2.332  17.783  0.00  0.00    +0.000 A 
ATOM     21  N   UNL     1       1.475   3.258  17.914  0.00  0.00    +0.000 NA
ATOM     22  C   UNL     1       1.848   4.554  17.842  0.00  0.00    +0.000 A 
ATOM     23  C   UNL     1       3.152   4.966  17.641  0.00  0.00    +0.000 A 
ENDBRANCH  15  18
ENDBRANCH  13  14
ENDBRANCH   2  13
TORSDOF 5
ENDMDL
MODEL 9
REMARK VINA RESULT:      -7.1      1.119      1.136
REMARK  Name = 
REMARK  5 active torsions:
REMARK  status: ('A' for Active; 'I' for Inactive)
REMARK    1  A    between atoms: C_2  and  C_3
REMARK    2  A    between atoms: C_3  and  N_4
REMARK    3  A    between atoms: C_5  and  C_7
REMARK    4  A    between atoms: N_13  and  N_14
REMARK    5  A    between atoms: C_15  and  C_16
REMARK                            x       y       z     vdW  Elec       q    Type
REMARK                         _______ _______ _______ _____ _____    ______ ____
ROOT
ATOM      1  O   UNL     1       7.912   5.883  18.820  0.00  0.00    +0.000 OA
ATOM      2  C   UNL     1       7.490   6.200  17.708  0.00  0.00    +0.000 C 
ATOM      3  N   UNL     1       7.380   7.498  17.225  0.00  0.00    +0.000 N 
ATOM      4  H   UNL     1       7.212   7.657  16.232  0.00  0.00    +0.000 HD
ENDROOT
BRANCH   3   5
ATOM      5  N   UNL     1       7.660   8.546  18.053  0.00  0.00    +0.000 NA
ATOM      6  C   UNL     1       8.574   9.369  17.646  0.00  0.00    +0.000 C 
BRANCH   6   7
ATOM      7  C   UNL     1       8.964  10.556  18.437  0.00  0.00    +0.000 A 
ATOM      8  C   UNL     1       9.467  10.425  19.727  0.00  0.00    +0.000 A 
ATOM      9  C   UNL     1       9.794  11.583  20.426  0.00  0.00    +0.000 A 
ATOM     10  C   UNL     1       9.608  12.820  19.818  0.00  0.00    +0.000 A 
ATOM     11  C   UNL     1       9.105  12.850  18.525  0.00  0.00    +0.000 A 
ATOM     12  N   UNL     1       8.777  11.746  17.816  0.00  0.00    +0.000 NA
ENDBRANCH   6   7
ENDBRANCH   3   5
BRANCH   2  13
ATOM     13  C   UNL     1       7.110   5.141  16.678  0.00  0.00    +0.000 C 
BRANCH  13  14
ATOM     14  N   UNL     1       5.972   4.357  17.126  0.00  0.00    +0.000 N 
ATOM     15  C   UNL     1       4.705   4.897  17.095  0.00  0.00    +0.000 C 
ATOM     16  O   UNL     1       4.489   6.034  16.686  0.00  0.00    +0.000 OA
ATOM     17  H   UNL     1       6.086   3.350  17.144  0.00  0.00    +0.000 HD
BRANCH  15  18
ATOM     18  C   UNL     1       3.589   4.022  17.546  0.00  0.00    +0.000 A 
ATOM     19  C   UNL     1       3.756   2.655  17.774  0.00  0.00    +0.000 A 
ATOM     20  C   UNL     1       2.662   1.933  18.221  0.00  0.00    +0.000 A 
ATOM     21  N   UNL     1       1.449   2.475  18.452  0.00  0.00    +0.000 NA
ATOM     22  C   UNL     1       1.319   3.802  18.237  0.00  0.00    +0.000 A 
ATOM     23  C   UNL     1       2.348   4.611  17.795  0.00  0.00    +0.000 A 
ENDBRANCH  15  18
ENDBRANCH  13  14
ENDBRANCH   2  13
TORSDOF 5
ENDMDL
