MODEL 1
REMARK VINA RESULT:      -8.6      0.000      0.000
REMARK  Name = 
REMARK  6 active torsions:
REMARK  status: ('A' for Active; 'I' for Inactive)
REMARK    1  A    between atoms: C_1  and  C_2
REMARK    2  A    between atoms: C_5  and  C_6
REMARK    3  A    between atoms: C_8  and  C_9
REMARK    4  A    between atoms: C_12  and  C_13
REMARK    5  A    between atoms: C_20  and  N_21
REMARK    6  A    between atoms: C_22  and  C_24
REMARK                            x       y       z     vdW  Elec       q    Type
REMARK                         _______ _______ _______ _____ _____    ______ ____
ROOT
ATOM      1  C   UNL     1       0.619  10.490  20.003  0.00  0.00    +0.000 A 
ATOM      2  N   UNL     1       0.912   9.139  20.182  0.00  0.00    +0.000 NA
ATOM      3  C   UNL     1       1.693   8.695  19.219  0.00  0.00    +0.000 A 
ATOM      4  S   UNL     1       2.038   9.857  18.018  0.00  0.00    +0.000 S 
ATOM      5  C   UNL     1       1.263  11.083  18.924  0.00  0.00    +0.000 A 
ENDROOT
BRANCH   1  10
ATOM      6  C   UNL     1      -3.455  12.394  23.607  0.00  0.00    +0.000 C 
ATOM      7  C   UNL     1      -2.304  12.011  22.726  0.00  0.00    +0.000 A 
ATOM      8  C   UNL     1      -1.331  11.104  23.158  0.00  0.00    +0.000 A 
ATOM      9  C   UNL     1      -0.340  10.666  22.274  0.00  0.00    +0.000 A 
ATOM     10  C   UNL     1      -0.302  11.119  20.946  0.00  0.00    +0.000 A 
ATOM     11  C   UNL     1      -1.256  12.054  20.531  0.00  0.00    +0.000 A 
ATOM     12  C   UNL     1      -2.241  12.503  21.417  0.00  0.00    +0.000 A 
ENDBRANCH   1  10
BRANCH   3  13
ATOM     13  C   UNL     1       2.245   7.329  19.162  0.00  0.00    +0.000 A 
ATOM     14  C   UNL     1       2.976   6.942  18.028  0.00  0.00    +0.000 A 
ATOM     15  C   UNL     1       3.454   5.637  17.884  0.00  0.00    +0.000 A 
ATOM     16  C   UNL     1       3.215   4.679  18.876  0.00  0.00    +0.000 A 
ATOM     17  C   UNL     1       2.516   5.061  20.027  0.00  0.00    +0.000 A 
ATOM     18  C   UNL     1       2.038   6.369  20.168  0.00  0.00    +0.000 A 
BRANCH  16  19
ATOM     19  C   UNL     1       3.675   3.252  18.713  0.00  0.00    +0.000 C 
ATOM     20  F   UNL     1       4.876   2.997  19.301  0.00  0.00    +0.000 F 
ATOM     21  F   UNL     1       2.799   2.356  19.245  0.00  0.00    +0.000 F 
ATOM     22  F   UNL     1       3.821   2.901  17.404  0.00  0.00    +0.000 F 
ENDBRANCH  16  19
ENDBRANCH   3  13
BRANCH   5  23
ATOM     23  N   UNL     1       1.317  12.410  18.493  0.00  0.00    +0.000 N 
ATOM     24  C   UNL     1       2.047  13.404  19.128  0.00  0.00    +0.000 C 
ATOM     25  O   UNL     1       2.708  13.286  20.158  0.00  0.00    +0.000 OA
ATOM     26  H   UNL     1       0.627  12.693  17.808  0.00  0.00    +0.000 HD
BRANCH  24  27
ATOM     27  C   UNL     1       1.992  14.772  18.546  0.00  0.00    +0.000 A 
ATOM     28  C   UNL     1       0.852  15.544  18.830  0.00  0.00    +0.000 A 
ATOM     29  C   UNL     1       0.766  16.867  18.408  0.00  0.00    +0.000 A 
ATOM     30  C   UNL     1       1.824  17.434  17.702  0.00  0.00    +0.000 A 
ATOM     31  C   UNL     1       2.959  16.672  17.410  0.00  0.00    +0.000 A 
ATOM     32  C   UNL     1       3.049  15.338  17.829  0.00  0.00    +0.000 A 
ENDBRANCH  24  27
ENDBRANCH   5  23
TORSDOF 5
ENDMDL
MODEL 2
REMARK VINA RESULT:      -8.6      0.347      1.178
REMARK  Name = 
REMARK  6 active torsions:
REMARK  status: ('A' for Active; 'I' for Inactive)
REMARK    1  A    between atoms: C_1  and  C_2
REMARK    2  A    between atoms: C_5  and  C_6
REMARK    3  A    between atoms: C_8  and  C_9
REMARK    4  A    between atoms: C_12  and  C_13
REMARK    5  A    between atoms: C_20  and  N_21
REMARK    6  A    between atoms: C_22  and  C_24
REMARK                            x       y       z     vdW  Elec       q    Type
REMARK                         _______ _______ _______ _____ _____    ______ ____
ROOT
ATOM      1  C   UNL     1       0.621  10.439  19.991  0.00  0.00    +0.000 A 
ATOM      2  N   UNL     1       0.891   9.082  20.167  0.00  0.00    +0.000 NA
ATOM      3  C   UNL     1       1.664   8.627  19.203  0.00  0.00    +0.000 A 
ATOM      4  S   UNL     1       2.027   9.785  18.003  0.00  0.00    +0.000 S 
ATOM      5  C   UNL     1       1.274  11.023  18.912  0.00  0.00    +0.000 A 
ENDROOT
BRANCH   1  10
ATOM      6  C   UNL     1      -3.407  12.395  23.619  0.00  0.00    +0.000 C 
ATOM      7  C   UNL     1      -2.267  11.999  22.728  0.00  0.00    +0.000 A 
ATOM      8  C   UNL     1      -1.287  11.101  23.162  0.00  0.00    +0.000 A 
ATOM      9  C   UNL     1      -0.306  10.651  22.271  0.00  0.00    +0.000 A 
ATOM     10  C   UNL     1      -0.288  11.082  20.936  0.00  0.00    +0.000 A 
ATOM     11  C   UNL     1      -1.250  12.008  20.519  0.00  0.00    +0.000 A 
ATOM     12  C   UNL     1      -2.224  12.469  21.411  0.00  0.00    +0.000 A 
ENDBRANCH   1  10
BRANCH   3  13
ATOM     13  C   UNL     1       2.193   7.252  19.143  0.00  0.00    +0.000 A 
ATOM     14  C   UNL     1       1.952   6.389  20.224  0.00  0.00    +0.000 A 
ATOM     15  C   UNL     1       2.496   5.102  20.259  0.00  0.00    +0.000 A 
ATOM     16  C   UNL     1       3.298   4.641  19.209  0.00  0.00    +0.000 A 
ATOM     17  C   UNL     1       3.518   5.480  18.111  0.00  0.00    +0.000 A 
ATOM     18  C   UNL     1       2.972   6.769  18.078  0.00  0.00    +0.000 A 
BRANCH  16  19
ATOM     19  C   UNL     1       3.939   3.276  19.254  0.00  0.00    +0.000 C 
ATOM     20  F   UNL     1       3.632   2.494  18.183  0.00  0.00    +0.000 F 
ATOM     21  F   UNL     1       5.298   3.338  19.296  0.00  0.00    +0.000 F 
ATOM     22  F   UNL     1       3.563   2.564  20.354  0.00  0.00    +0.000 F 
ENDBRANCH  16  19
ENDBRANCH   3  13
BRANCH   5  23
ATOM     23  N   UNL     1       1.350  12.350  18.483  0.00  0.00    +0.000 N 
ATOM     24  C   UNL     1       2.015  13.352  19.173  0.00  0.00    +0.000 C 
ATOM     25  O   UNL     1       2.590  13.243  20.254  0.00  0.00    +0.000 OA
ATOM     26  H   UNL     1       0.715  12.623  17.743  0.00  0.00    +0.000 HD
BRANCH  24  27
ATOM     27  C   UNL     1       1.994  14.718  18.584  0.00  0.00    +0.000 A 
ATOM     28  C   UNL     1       0.870  15.517  18.858  0.00  0.00    +0.000 A 
ATOM     29  C   UNL     1       0.816  16.839  18.429  0.00  0.00    +0.000 A 
ATOM     30  C   UNL     1       1.891  17.379  17.727  0.00  0.00    +0.000 A 
ATOM     31  C   UNL     1       3.011  16.591  17.446  0.00  0.00    +0.000 A 
ATOM     32  C   UNL     1       3.068  15.257  17.872  0.00  0.00    +0.000 A 
ENDBRANCH  24  27
ENDBRANCH   5  23
TORSDOF 5
ENDMDL
MODEL 3
REMARK VINA RESULT:      -8.5      0.161      1.127
REMARK  Name = 
REMARK  6 active torsions:
REMARK  status: ('A' for Active; 'I' for Inactive)
REMARK    1  A    between atoms: C_1  and  C_2
REMARK    2  A    between atoms: C_5  and  C_6
REMARK    3  A    between atoms: C_8  and  C_9
REMARK    4  A    between atoms: C_12  and  C_13
REMARK    5  A    between atoms: C_20  and  N_21
REMARK    6  A    between atoms: C_22  and  C_24
REMARK                            x       y       z     vdW  Elec       q    Type
REMARK                         _______ _______ _______ _____ _____    ______ ____
ROOT
ATOM      1  C   UNL     1       0.590  10.555  19.997  0.00  0.00    +0.000 A 
ATOM      2  N   UNL     1       0.865   9.197  20.153  0.00  0.00    +0.000 NA
ATOM      3  C   UNL     1       1.662   8.766  19.198  0.00  0.00    +0.000 A 
ATOM      4  S   UNL     1       2.046   9.950  18.030  0.00  0.00    +0.000 S 
ATOM      5  C   UNL     1       1.265  11.165  18.947  0.00  0.00    +0.000 A 
ENDROOT
BRANCH   1  10
ATOM      6  C   UNL     1      -3.530  12.411  23.575  0.00  0.00    +0.000 C 
ATOM      7  C   UNL     1      -2.369  12.042  22.701  0.00  0.00    +0.000 A 
ATOM      8  C   UNL     1      -1.385  11.151  23.140  0.00  0.00    +0.000 A 
ATOM      9  C   UNL     1      -0.382  10.725  22.263  0.00  0.00    +0.000 A 
ATOM     10  C   UNL     1      -0.344  11.174  20.934  0.00  0.00    +0.000 A 
ATOM     11  C   UNL     1      -1.310  12.093  20.511  0.00  0.00    +0.000 A 
ATOM     12  C   UNL     1      -2.306  12.531  21.390  0.00  0.00    +0.000 A 
ENDBRANCH   1  10
BRANCH   3  13
ATOM     13  C   UNL     1       2.200   7.395  19.123  0.00  0.00    +0.000 A 
ATOM     14  C   UNL     1       2.895   7.005  17.967  0.00  0.00    +0.000 A 
ATOM     15  C   UNL     1       3.358   5.696  17.808  0.00  0.00    +0.000 A 
ATOM     16  C   UNL     1       3.138   4.738  18.805  0.00  0.00    +0.000 A 
ATOM     17  C   UNL     1       2.475   5.123  19.975  0.00  0.00    +0.000 A 
ATOM     18  C   UNL     1       2.013   6.436  20.132  0.00  0.00    +0.000 A 
BRANCH  16  19
ATOM     19  C   UNL     1       3.582   3.307  18.626  0.00  0.00    +0.000 C 
ATOM     20  F   UNL     1       3.538   2.881  17.334  0.00  0.00    +0.000 F 
ATOM     21  F   UNL     1       4.860   3.100  19.046  0.00  0.00    +0.000 F 
ATOM     22  F   UNL     1       2.810   2.434  19.331  0.00  0.00    +0.000 F 
ENDBRANCH  16  19
ENDBRANCH   3  13
BRANCH   5  23
ATOM     23  N   UNL     1       1.343  12.500  18.546  0.00  0.00    +0.000 N 
ATOM     24  C   UNL     1       2.051  13.476  19.231  0.00  0.00    +0.000 C 
ATOM     25  O   UNL     1       2.670  13.332  20.284  0.00  0.00    +0.000 OA
ATOM     26  H   UNL     1       0.682  12.801  17.841  0.00  0.00    +0.000 HD
BRANCH  24  27
ATOM     27  C   UNL     1       2.027  14.857  18.677  0.00  0.00    +0.000 A 
ATOM     28  C   UNL     1       3.108  15.239  17.863  0.00  0.00    +0.000 A 
ATOM     29  C   UNL     1       3.115  16.476  17.226  0.00  0.00    +0.000 A 
ATOM     30  C   UNL     1       2.034  17.340  17.389  0.00  0.00    +0.000 A 
ATOM     31  C   UNL     1       0.958  16.970  18.200  0.00  0.00    +0.000 A 
ATOM     32  C   UNL     1       0.948  15.728  18.848  0.00  0.00    +0.000 A 
ENDBRANCH  24  27
ENDBRANCH   5  23
TORSDOF 5
ENDMDL
MODEL 4
REMARK VINA RESULT:      -8.5      0.350      1.402
REMARK  Name = 
REMARK  6 active torsions:
REMARK  status: ('A' for Active; 'I' for Inactive)
REMARK    1  A    between atoms: C_1  and  C_2
REMARK    2  A    between atoms: C_5  and  C_6
REMARK    3  A    between atoms: C_8  and  C_9
REMARK    4  A    between atoms: C_12  and  C_13
REMARK    5  A    between atoms: C_20  and  N_21
REMARK    6  A    between atoms: C_22  and  C_24
REMARK                            x       y       z     vdW  Elec       q    Type
REMARK                         _______ _______ _______ _____ _____    ______ ____
ROOT
ATOM      1  C   UNL     1       0.588  10.646  20.027  0.00  0.00    +0.000 A 
ATOM      2  N   UNL     1       0.902   9.293  20.143  0.00  0.00    +0.000 NA
ATOM      3  C   UNL     1       1.669   8.900  19.148  0.00  0.00    +0.000 A 
ATOM      4  S   UNL     1       1.974  10.115  17.989  0.00  0.00    +0.000 S 
ATOM      5  C   UNL     1       1.202  11.293  18.961  0.00  0.00    +0.000 A 
ENDROOT
BRANCH   1  10
ATOM      6  C   UNL     1      -3.461  12.376  23.745  0.00  0.00    +0.000 C 
ATOM      7  C   UNL     1      -2.313  12.029  22.845  0.00  0.00    +0.000 A 
ATOM      8  C   UNL     1      -1.381  11.050  23.203  0.00  0.00    +0.000 A 
ATOM      9  C   UNL     1      -0.395  10.655  22.294  0.00  0.00    +0.000 A 
ATOM     10  C   UNL     1      -0.321  11.224  21.013  0.00  0.00    +0.000 A 
ATOM     11  C   UNL     1      -1.234  12.228  20.674  0.00  0.00    +0.000 A 
ATOM     12  C   UNL     1      -2.213  12.634  21.586  0.00  0.00    +0.000 A 
ENDBRANCH   1  10
BRANCH   3  13
ATOM     13  C   UNL     1       2.237   7.545  19.024  0.00  0.00    +0.000 A 
ATOM     14  C   UNL     1       2.032   6.629  20.068  0.00  0.00    +0.000 A 
ATOM     15  C   UNL     1       2.613   5.359  20.042  0.00  0.00    +0.000 A 
ATOM     16  C   UNL     1       3.418   4.967  18.966  0.00  0.00    +0.000 A 
ATOM     17  C   UNL     1       3.604   5.860  17.904  0.00  0.00    +0.000 A 
ATOM     18  C   UNL     1       3.020   7.132  17.933  0.00  0.00    +0.000 A 
BRANCH  16  19
ATOM     19  C   UNL     1       4.099   3.621  18.947  0.00  0.00    +0.000 C 
ATOM     20  F   UNL     1       3.592   2.742  19.854  0.00  0.00    +0.000 F 
ATOM     21  F   UNL     1       4.006   3.006  17.736  0.00  0.00    +0.000 F 
ATOM     22  F   UNL     1       5.431   3.710  19.220  0.00  0.00    +0.000 F 
ENDBRANCH  16  19
ENDBRANCH   3  13
BRANCH   5  23
ATOM     23  N   UNL     1       1.231  12.637  18.584  0.00  0.00    +0.000 N 
ATOM     24  C   UNL     1       2.023  13.598  19.194  0.00  0.00    +0.000 C 
ATOM     25  O   UNL     1       2.771  13.431  20.156  0.00  0.00    +0.000 OA
ATOM     26  H   UNL     1       0.485  12.952  17.976  0.00  0.00    +0.000 HD
BRANCH  24  27
ATOM     27  C   UNL     1       1.930  14.990  18.678  0.00  0.00    +0.000 A 
ATOM     28  C   UNL     1       3.017  15.468  17.926  0.00  0.00    +0.000 A 
ATOM     29  C   UNL     1       2.968  16.722  17.324  0.00  0.00    +0.000 A 
ATOM     30  C   UNL     1       1.826  17.508  17.464  0.00  0.00    +0.000 A 
ATOM     31  C   UNL     1       0.743  17.042  18.214  0.00  0.00    +0.000 A 
ATOM     32  C   UNL     1       0.789  15.783  18.826  0.00  0.00    +0.000 A 
ENDBRANCH  24  27
ENDBRANCH   5  23
TORSDOF 5
ENDMDL
MODEL 5
REMARK VINA RESULT:      -8.4      0.710      1.471
REMARK  Name = 
REMARK  6 active torsions:
REMARK  status: ('A' for Active; 'I' for Inactive)
REMARK    1  A    between atoms: C_1  and  C_2
REMARK    2  A    between atoms: C_5  and  C_6
REMARK    3  A    between atoms: C_8  and  C_9
REMARK    4  A    between atoms: C_12  and  C_13
REMARK    5  A    between atoms: C_20  and  N_21
REMARK    6  A    between atoms: C_22  and  C_24
REMARK                            x       y       z     vdW  Elec       q    Type
REMARK                         _______ _______ _______ _____ _____    ______ ____
ROOT
ATOM      1  C   UNL     1       0.406  10.437  19.889  0.00  0.00    +0.000 A 
ATOM      2  N   UNL     1       0.868   9.125  19.978  0.00  0.00    +0.000 NA
ATOM      3  C   UNL     1       1.698   8.850  18.993  0.00  0.00    +0.000 A 
ATOM      4  S   UNL     1       1.891  10.125  17.875  0.00  0.00    +0.000 S 
ATOM      5  C   UNL     1       0.968  11.179  18.857  0.00  0.00    +0.000 A 
ENDROOT
BRANCH   1  10
ATOM      6  C   UNL     1      -3.080  12.780  23.835  0.00  0.00    +0.000 C 
ATOM      7  C   UNL     1      -2.286  12.067  22.782  0.00  0.00    +0.000 A 
ATOM      8  C   UNL     1      -2.388  12.422  21.433  0.00  0.00    +0.000 A 
ATOM      9  C   UNL     1      -1.545  11.830  20.486  0.00  0.00    +0.000 A 
ATOM     10  C   UNL     1      -0.585  10.880  20.866  0.00  0.00    +0.000 A 
ATOM     11  C   UNL     1      -0.513  10.503  22.211  0.00  0.00    +0.000 A 
ATOM     12  C   UNL     1      -1.363  11.084  23.157  0.00  0.00    +0.000 A 
ENDBRANCH   1  10
BRANCH   3  13
ATOM     13  C   UNL     1       2.419   7.571  18.849  0.00  0.00    +0.000 A 
ATOM     14  C   UNL     1       2.311   6.617  19.873  0.00  0.00    +0.000 A 
ATOM     15  C   UNL     1       3.034   5.422  19.828  0.00  0.00    +0.000 A 
ATOM     16  C   UNL     1       3.888   5.148  18.753  0.00  0.00    +0.000 A 
ATOM     17  C   UNL     1       3.979   6.078  17.711  0.00  0.00    +0.000 A 
ATOM     18  C   UNL     1       3.253   7.274  17.759  0.00  0.00    +0.000 A 
BRANCH  16  19
ATOM     19  C   UNL     1       4.718   3.889  18.715  0.00  0.00    +0.000 C 
ATOM     20  F   UNL     1       6.046   4.118  18.521  0.00  0.00    +0.000 F 
ATOM     21  F   UNL     1       4.627   3.167  19.865  0.00  0.00    +0.000 F 
ATOM     22  F   UNL     1       4.337   3.047  17.714  0.00  0.00    +0.000 F 
ENDBRANCH  16  19
ENDBRANCH   3  13
BRANCH   5  23
ATOM     23  N   UNL     1       0.853  12.528  18.516  0.00  0.00    +0.000 N 
ATOM     24  C   UNL     1       1.493  13.557  19.191  0.00  0.00    +0.000 C 
ATOM     25  O   UNL     1       2.208  13.450  20.186  0.00  0.00    +0.000 OA
ATOM     26  H   UNL     1       0.105  12.772  17.878  0.00  0.00    +0.000 HD
BRANCH  24  27
ATOM     27  C   UNL     1       1.258  14.944  18.707  0.00  0.00    +0.000 A 
ATOM     28  C   UNL     1      -0.072  15.399  18.687  0.00  0.00    +0.000 A 
ATOM     29  C   UNL     1      -0.368  16.714  18.343  0.00  0.00    +0.000 A 
ATOM     30  C   UNL     1       0.666  17.591  18.021  0.00  0.00    +0.000 A 
ATOM     31  C   UNL     1       1.991  17.145  18.033  0.00  0.00    +0.000 A 
ATOM     32  C   UNL     1       2.294  15.821  18.374  0.00  0.00    +0.000 A 
ENDBRANCH  24  27
ENDBRANCH   5  23
TORSDOF 5
ENDMDL
MODEL 6
REMARK VINA RESULT:      -8.3      0.657      1.198
REMARK  Name = 
REMARK  6 active torsions:
REMARK  status: ('A' for Active; 'I' for Inactive)
REMARK    1  A    between atoms: C_1  and  C_2
REMARK    2  A    between atoms: C_5  and  C_6
REMARK    3  A    between atoms: C_8  and  C_9
REMARK    4  A    between atoms: C_12  and  C_13
REMARK    5  A    between atoms: C_20  and  N_21
REMARK    6  A    between atoms: C_22  and  C_24
REMARK                            x       y       z     vdW  Elec       q    Type
REMARK                         _______ _______ _______ _____ _____    ______ ____
ROOT
ATOM      1  C   UNL     1       0.388  10.457  19.928  0.00  0.00    +0.000 A 
ATOM      2  N   UNL     1       0.850   9.146  20.036  0.00  0.00    +0.000 NA
ATOM      3  C   UNL     1       1.694   8.862  19.067  0.00  0.00    +0.000 A 
ATOM      4  S   UNL     1       1.903  10.127  17.940  0.00  0.00    +0.000 S 
ATOM      5  C   UNL     1       0.964  11.189  18.897  0.00  0.00    +0.000 A 
ENDROOT
BRANCH   1  10
ATOM      6  C   UNL     1      -3.162  12.835  23.795  0.00  0.00    +0.000 C 
ATOM      7  C   UNL     1      -2.350  12.112  22.762  0.00  0.00    +0.000 A 
ATOM      8  C   UNL     1      -2.438  12.446  21.407  0.00  0.00    +0.000 A 
ATOM      9  C   UNL     1      -1.580  11.846  20.480  0.00  0.00    +0.000 A 
ATOM     10  C   UNL     1      -0.619  10.907  20.886  0.00  0.00    +0.000 A 
ATOM     11  C   UNL     1      -0.561  10.551  22.237  0.00  0.00    +0.000 A 
ATOM     12  C   UNL     1      -1.426  11.140  23.164  0.00  0.00    +0.000 A 
ENDBRANCH   1  10
BRANCH   3  13
ATOM     13  C   UNL     1       2.419   7.584  18.946  0.00  0.00    +0.000 A 
ATOM     14  C   UNL     1       3.239   7.376  17.825  0.00  0.00    +0.000 A 
ATOM     15  C   UNL     1       3.886   6.155  17.617  0.00  0.00    +0.000 A 
ATOM     16  C   UNL     1       3.731   5.104  18.529  0.00  0.00    +0.000 A 
ATOM     17  C   UNL     1       2.941   5.310  19.666  0.00  0.00    +0.000 A 
ATOM     18  C   UNL     1       2.295   6.534  19.872  0.00  0.00    +0.000 A 
BRANCH  16  19
ATOM     19  C   UNL     1       4.376   3.762  18.292  0.00  0.00    +0.000 C 
ATOM     20  F   UNL     1       4.441   2.984  19.408  0.00  0.00    +0.000 F 
ATOM     21  F   UNL     1       3.718   3.023  17.358  0.00  0.00    +0.000 F 
ATOM     22  F   UNL     1       5.658   3.875  17.844  0.00  0.00    +0.000 F 
ENDBRANCH  16  19
ENDBRANCH   3  13
BRANCH   5  23
ATOM     23  N   UNL     1       0.853  12.535  18.542  0.00  0.00    +0.000 N 
ATOM     24  C   UNL     1       1.480  13.571  19.218  0.00  0.00    +0.000 C 
ATOM     25  O   UNL     1       2.179  13.475  20.225  0.00  0.00    +0.000 OA
ATOM     26  H   UNL     1       0.115  12.772  17.890  0.00  0.00    +0.000 HD
BRANCH  24  27
ATOM     27  C   UNL     1       1.252  14.953  18.717  0.00  0.00    +0.000 A 
ATOM     28  C   UNL     1      -0.071  15.430  18.733  0.00  0.00    +0.000 A 
ATOM     29  C   UNL     1      -0.358  16.743  18.376  0.00  0.00    +0.000 A 
ATOM     30  C   UNL     1       0.679  17.597  18.004  0.00  0.00    +0.000 A 
ATOM     31  C   UNL     1       1.996  17.130  17.980  0.00  0.00    +0.000 A 
ATOM     32  C   UNL     1       2.289  15.807  18.334  0.00  0.00    +0.000 A 
ENDBRANCH  24  27
ENDBRANCH   5  23
TORSDOF 5
ENDMDL
MODEL 7
REMARK VINA RESULT:      -8.3      0.437      1.296
REMARK  Name = 
REMARK  6 active torsions:
REMARK  status: ('A' for Active; 'I' for Inactive)
REMARK    1  A    between atoms: C_1  and  C_2
REMARK    2  A    between atoms: C_5  and  C_6
REMARK    3  A    between atoms: C_8  and  C_9
REMARK    4  A    between atoms: C_12  and  C_13
REMARK    5  A    between atoms: C_20  and  N_21
REMARK    6  A    between atoms: C_22  and  C_24
REMARK                            x       y       z     vdW  Elec       q    Type
REMARK                         _______ _______ _______ _____ _____    ______ ____
ROOT
ATOM      1  C   UNL     1       0.458  10.512  19.897  0.00  0.00    +0.000 A 
ATOM      2  N   UNL     1       0.831   9.173  20.010  0.00  0.00    +0.000 NA
ATOM      3  C   UNL     1       1.707   8.849  19.082  0.00  0.00    +0.000 A 
ATOM      4  S   UNL     1       2.054  10.112  17.987  0.00  0.00    +0.000 S 
ATOM      5  C   UNL     1       1.133  11.220  18.910  0.00  0.00    +0.000 A 
ENDROOT
BRANCH   1  10
ATOM      6  C   UNL     1      -3.191  13.108  23.525  0.00  0.00    +0.000 C 
ATOM      7  C   UNL     1      -2.350  12.323  22.563  0.00  0.00    +0.000 A 
ATOM      8  C   UNL     1      -2.439  12.533  21.183  0.00  0.00    +0.000 A 
ATOM      9  C   UNL     1      -1.556  11.881  20.317  0.00  0.00    +0.000 A 
ATOM     10  C   UNL     1      -0.569  11.013  20.807  0.00  0.00    +0.000 A 
ATOM     11  C   UNL     1      -0.509  10.779  22.185  0.00  0.00    +0.000 A 
ATOM     12  C   UNL     1      -1.399  11.420  23.053  0.00  0.00    +0.000 A 
ENDBRANCH   1  10
BRANCH   3  13
ATOM     13  C   UNL     1       2.356   7.529  18.979  0.00  0.00    +0.000 A 
ATOM     14  C   UNL     1       3.158   7.257  17.859  0.00  0.00    +0.000 A 
ATOM     15  C   UNL     1       3.733   5.998  17.669  0.00  0.00    +0.000 A 
ATOM     16  C   UNL     1       3.521   4.972  18.598  0.00  0.00    +0.000 A 
ATOM     17  C   UNL     1       2.750   5.241  19.735  0.00  0.00    +0.000 A 
ATOM     18  C   UNL     1       2.176   6.504  19.923  0.00  0.00    +0.000 A 
BRANCH  16  19
ATOM     19  C   UNL     1       4.088   3.591  18.381  0.00  0.00    +0.000 C 
ATOM     20  F   UNL     1       5.059   3.254  19.274  0.00  0.00    +0.000 F 
ATOM     21  F   UNL     1       3.141   2.617  18.473  0.00  0.00    +0.000 F 
ATOM     22  F   UNL     1       4.651   3.450  17.149  0.00  0.00    +0.000 F 
ENDBRANCH  16  19
ENDBRANCH   3  13
BRANCH   5  23
ATOM     23  N   UNL     1       1.125  12.574  18.571  0.00  0.00    +0.000 N 
ATOM     24  C   UNL     1       1.806  13.556  19.276  0.00  0.00    +0.000 C 
ATOM     25  O   UNL     1       2.470  13.398  20.299  0.00  0.00    +0.000 OA
ATOM     26  H   UNL     1       0.422  12.869  17.904  0.00  0.00    +0.000 HD
BRANCH  24  27
ATOM     27  C   UNL     1       1.686  14.956  18.788  0.00  0.00    +0.000 A 
ATOM     28  C   UNL     1       2.816  15.517  18.168  0.00  0.00    +0.000 A 
ATOM     29  C   UNL     1       2.758  16.784  17.596  0.00  0.00    +0.000 A 
ATOM     30  C   UNL     1       1.564  17.501  17.633  0.00  0.00    +0.000 A 
ATOM     31  C   UNL     1       0.438  16.953  18.252  0.00  0.00    +0.000 A 
ATOM     32  C   UNL     1       0.492  15.680  18.834  0.00  0.00    +0.000 A 
ENDBRANCH  24  27
ENDBRANCH   5  23
TORSDOF 5
ENDMDL
MODEL 8
REMARK VINA RESULT:      -8.3      0.728      1.787
REMARK  Name = 
REMARK  6 active torsions:
REMARK  status: ('A' for Active; 'I' for Inactive)
REMARK    1  A    between atoms: C_1  and  C_2
REMARK    2  A    between atoms: C_5  and  C_6
REMARK    3  A    between atoms: C_8  and  C_9
REMARK    4  A    between atoms: C_12  and  C_13
REMARK    5  A    between atoms: C_20  and  N_21
REMARK    6  A    between atoms: C_22  and  C_24
REMARK                            x       y       z     vdW  Elec       q    Type
REMARK                         _______ _______ _______ _____ _____    ______ ____
ROOT
ATOM      1  C   UNL     1       0.399  10.569  19.846  0.00  0.00    +0.000 A 
ATOM      2  N   UNL     1       0.850   9.251  19.912  0.00  0.00    +0.000 NA
ATOM      3  C   UNL     1       1.702   8.996  18.941  0.00  0.00    +0.000 A 
ATOM      4  S   UNL     1       1.931  10.298  17.862  0.00  0.00    +0.000 S 
ATOM      5  C   UNL     1       0.991  11.333  18.848  0.00  0.00    +0.000 A 
ENDROOT
BRANCH   1  10
ATOM      6  C   UNL     1      -3.200  12.862  23.719  0.00  0.00    +0.000 C 
ATOM      7  C   UNL     1      -2.371  12.156  22.688  0.00  0.00    +0.000 A 
ATOM      8  C   UNL     1      -2.492  12.460  21.329  0.00  0.00    +0.000 A 
ATOM      9  C   UNL     1      -1.621  11.880  20.401  0.00  0.00    +0.000 A 
ATOM     10  C   UNL     1      -0.614  10.993  20.810  0.00  0.00    +0.000 A 
ATOM     11  C   UNL     1      -0.522  10.665  22.166  0.00  0.00    +0.000 A 
ATOM     12  C   UNL     1      -1.400  11.234  23.094  0.00  0.00    +0.000 A 
ENDBRANCH   1  10
BRANCH   3  13
ATOM     13  C   UNL     1       2.418   7.716  18.782  0.00  0.00    +0.000 A 
ATOM     14  C   UNL     1       2.318   6.755  19.800  0.00  0.00    +0.000 A 
ATOM     15  C   UNL     1       3.037   5.559  19.740  0.00  0.00    +0.000 A 
ATOM     16  C   UNL     1       3.879   5.290  18.655  0.00  0.00    +0.000 A 
ATOM     17  C   UNL     1       3.962   6.226  17.618  0.00  0.00    +0.000 A 
ATOM     18  C   UNL     1       3.240   7.423  17.680  0.00  0.00    +0.000 A 
BRANCH  16  19
ATOM     19  C   UNL     1       4.706   4.029  18.600  0.00  0.00    +0.000 C 
ATOM     20  F   UNL     1       4.320   3.085  19.501  0.00  0.00    +0.000 F 
ATOM     21  F   UNL     1       4.657   3.425  17.381  0.00  0.00    +0.000 F 
ATOM     22  F   UNL     1       6.025   4.263  18.849  0.00  0.00    +0.000 F 
ENDBRANCH  16  19
ENDBRANCH   3  13
BRANCH   5  23
ATOM     23  N   UNL     1       0.893  12.691  18.540  0.00  0.00    +0.000 N 
ATOM     24  C   UNL     1       1.419  13.706  19.325  0.00  0.00    +0.000 C 
ATOM     25  O   UNL     1       2.002  13.575  20.401  0.00  0.00    +0.000 OA
ATOM     26  H   UNL     1       0.229  12.945  17.819  0.00  0.00    +0.000 HD
BRANCH  24  27
ATOM     27  C   UNL     1       1.221  15.105  18.861  0.00  0.00    +0.000 A 
ATOM     28  C   UNL     1       2.354  15.790  18.389  0.00  0.00    +0.000 A 
ATOM     29  C   UNL     1       2.238  17.065  17.845  0.00  0.00    +0.000 A 
ATOM     30  C   UNL     1       0.984  17.666  17.760  0.00  0.00    +0.000 A 
ATOM     31  C   UNL     1      -0.147  16.994  18.231  0.00  0.00    +0.000 A 
ATOM     32  C   UNL     1      -0.036  15.711  18.785  0.00  0.00    +0.000 A 
ENDBRANCH  24  27
ENDBRANCH   5  23
TORSDOF 5
ENDMDL
MODEL 9
REMARK VINA RESULT:      -7.9      0.960      1.523
REMARK  Name = 
REMARK  6 active torsions:
REMARK  status: ('A' for Active; 'I' for Inactive)
REMARK    1  A    between atoms: C_1  and  C_2
REMARK    2  A    between atoms: C_5  and  C_6
REMARK    3  A    between atoms: C_8  and  C_9
REMARK    4  A    between atoms: C_12  and  C_13
REMARK    5  A    between atoms: C_20  and  N_21
REMARK    6  A    between atoms: C_22  and  C_24
REMARK                            x       y       z     vdW  Elec       q    Type
REMARK                         _______ _______ _______ _____ _____    ______ ____
ROOT
ATOM      1  C   UNL     1       0.146  11.050  20.095  0.00  0.00    +0.000 A 
ATOM      2  N   UNL     1       0.584   9.732  20.213  0.00  0.00    +0.000 NA
ATOM      3  C   UNL     1       1.345   9.395  19.193  0.00  0.00    +0.000 A 
ATOM      4  S   UNL     1       1.496  10.617  18.011  0.00  0.00    +0.000 S 
ATOM      5  C   UNL     1       0.659  11.734  19.000  0.00  0.00    +0.000 A 
ENDROOT
BRANCH   1  10
ATOM      6  C   UNL     1      -3.877  12.440  23.981  0.00  0.00    +0.000 C 
ATOM      7  C   UNL     1      -2.746  12.196  23.027  0.00  0.00    +0.000 A 
ATOM      8  C   UNL     1      -1.675  11.365  23.369  0.00  0.00    +0.000 A 
ATOM      9  C   UNL     1      -0.699  11.052  22.418  0.00  0.00    +0.000 A 
ATOM     10  C   UNL     1      -0.773  11.558  21.111  0.00  0.00    +0.000 A 
ATOM     11  C   UNL     1      -1.827  12.418  20.785  0.00  0.00    +0.000 A 
ATOM     12  C   UNL     1      -2.798  12.742  21.739  0.00  0.00    +0.000 A 
ENDBRANCH   1  10
BRANCH   3  13
ATOM     13  C   UNL     1       2.028   8.095  19.061  0.00  0.00    +0.000 A 
ATOM     14  C   UNL     1       1.890   7.153  20.092  0.00  0.00    +0.000 A 
ATOM     15  C   UNL     1       2.577   5.937  20.059  0.00  0.00    +0.000 A 
ATOM     16  C   UNL     1       3.424   5.628  18.988  0.00  0.00    +0.000 A 
ATOM     17  C   UNL     1       3.545   6.546  17.938  0.00  0.00    +0.000 A 
ATOM     18  C   UNL     1       2.854   7.763  17.974  0.00  0.00    +0.000 A 
BRANCH  16  19
ATOM     19  C   UNL     1       4.217   4.345  18.962  0.00  0.00    +0.000 C 
ATOM     20  F   UNL     1       3.621   3.323  19.636  0.00  0.00    +0.000 F 
ATOM     21  F   UNL     1       4.428   3.887  17.697  0.00  0.00    +0.000 F 
ATOM     22  F   UNL     1       5.452   4.487  19.519  0.00  0.00    +0.000 F 
ENDBRANCH  16  19
ENDBRANCH   3  13
BRANCH   5  23
ATOM     23  N   UNL     1       0.552  13.070  18.608  0.00  0.00    +0.000 N 
ATOM     24  C   UNL     1       1.153  14.126  19.278  0.00  0.00    +0.000 C 
ATOM     25  O   UNL     1       1.820  14.058  20.309  0.00  0.00    +0.000 OA
ATOM     26  H   UNL     1      -0.165  13.287  17.927  0.00  0.00    +0.000 HD
BRANCH  24  27
ATOM     27  C   UNL     1       0.933  15.494  18.736  0.00  0.00    +0.000 A 
ATOM     28  C   UNL     1      -0.398  15.924  18.602  0.00  0.00    +0.000 A 
ATOM     29  C   UNL     1      -0.689  17.223  18.197  0.00  0.00    +0.000 A 
ATOM     30  C   UNL     1       0.352  18.109  17.929  0.00  0.00    +0.000 A 
ATOM     31  C   UNL     1       1.679  17.688  18.054  0.00  0.00    +0.000 A 
ATOM     32  C   UNL     1       1.977  16.380  18.457  0.00  0.00    +0.000 A 
ENDBRANCH  24  27
ENDBRANCH   5  23
TORSDOF 5
ENDMDL
