MODEL 1
REMARK VINA RESULT:      -8.1      0.000      0.000
REMARK  Name = 
REMARK  10 active torsions:
REMARK  status: ('A' for Active; 'I' for Inactive)
REMARK    1  A    between atoms: C_1  and  C_2
REMARK    2  A    between atoms: C_2  and  C_3
REMARK    3  A    between atoms: C_2  and  C_4
REMARK    4  A    between atoms: C_8  and  C_9
REMARK    5  A    between atoms: C_9  and  N_10
REMARK    6  A    between atoms: N_10  and  C_11
REMARK    7  A    between atoms: C_15  and  C_16
REMARK    8  A    between atoms: C_16  and  C_17
REMARK    9  A    between atoms: C_20  and  O_21
REMARK   10  A    between atoms: C_25  and  O_26
REMARK                            x       y       z     vdW  Elec       q    Type
REMARK                         _______ _______ _______ _____ _____    ______ ____
ROOT
ATOM      1  C   UNL     1       7.355   6.714  17.388  0.00  0.00    +0.000 C 
ATOM      2  C   UNL     1       7.709   5.915  18.643  0.00  0.00    +0.000 C 
ATOM      3  O   UNL     1       7.319   4.551  18.466  0.00  0.00    +0.000 OA
ATOM      4  C   UNL     1       5.900   4.424  18.463  0.00  0.00    +0.000 C 
ATOM      5  C   UNL     1       5.280   5.160  17.275  0.00  0.00    +0.000 C 
ATOM      6  C   UNL     1       5.833   6.587  17.118  0.00  0.00    +0.000 C 
ENDROOT
BRANCH   1   7
ATOM      7  N   UNL     1       7.681   8.150  17.468  0.00  0.00    +0.000 NA
ATOM      8  H   UNL     1       8.079   8.450  16.574  0.00  0.00    +0.000 HD
BRANCH   7   9
ATOM      9  C   UNL     1       8.600   8.491  18.548  0.00  0.00    +0.000 C 
BRANCH   9  14
ATOM     10  C   UNL     1       9.504  11.956  19.905  0.00  0.00    +0.000 A 
ATOM     11  C   UNL     1       9.104  12.767  18.832  0.00  0.00    +0.000 A 
ATOM     12  C   UNL     1       8.572  12.201  17.673  0.00  0.00    +0.000 A 
ATOM     13  C   UNL     1       8.426  10.820  17.576  0.00  0.00    +0.000 A 
ATOM     14  C   UNL     1       8.823   9.984  18.628  0.00  0.00    +0.000 A 
ATOM     15  C   UNL     1       9.368  10.562  19.784  0.00  0.00    +0.000 A 
BRANCH  10  17
ATOM     16  C   UNL     1      10.401  14.027  21.050  0.00  0.00    +0.000 C 
ATOM     17  C   UNL     1      10.029  12.550  21.199  0.00  0.00    +0.000 C 
ATOM     18  C   UNL     1       9.024  12.351  22.336  0.00  0.00    +0.000 C 
ENDBRANCH  10  17
ENDBRANCH   9  14
ENDBRANCH   7   9
ENDBRANCH   1   7
BRANCH   6  19
ATOM     19  O   UNL     1       5.535   7.063  15.791  0.00  0.00    +0.000 OA
ATOM     20  H   UNL     1       6.260   7.651  15.519  0.00  0.00    +0.000 HD
ENDBRANCH   6  19
BRANCH   5  21
ATOM     21  C   UNL     1       3.729   5.121  17.305  0.00  0.00    +0.000 C 
BRANCH  21  22
ATOM     22  C   UNL     1       3.048   6.060  18.286  0.00  0.00    +0.000 A 
ATOM     23  C   UNL     1       2.746   5.648  19.587  0.00  0.00    +0.000 A 
ATOM     24  C   UNL     1       2.107   6.515  20.482  0.00  0.00    +0.000 A 
ATOM     25  C   UNL     1       1.762   7.801  20.081  0.00  0.00    +0.000 A 
ATOM     26  C   UNL     1       2.066   8.228  18.786  0.00  0.00    +0.000 A 
ATOM     27 BR   UNL     1       1.608   9.971  18.185  0.00  0.00    +0.000 Br
ATOM     28  C   UNL     1       2.708   7.366  17.898  0.00  0.00    +0.000 A 
BRANCH  25  29
ATOM     29  O   UNL     1       1.136   8.647  20.953  0.00  0.00    +0.000 OA
ATOM     30  H   UNL     1       1.713   9.407  21.133  0.00  0.00    +0.000 HD
ENDBRANCH  25  29
ENDBRANCH  21  22
ENDBRANCH   5  21
TORSDOF 8
ENDMDL
MODEL 2
REMARK VINA RESULT:      -8.0      5.290      9.566
REMARK  Name = 
REMARK  10 active torsions:
REMARK  status: ('A' for Active; 'I' for Inactive)
REMARK    1  A    between atoms: C_1  and  C_2
REMARK    2  A    between atoms: C_2  and  C_3
REMARK    3  A    between atoms: C_2  and  C_4
REMARK    4  A    between atoms: C_8  and  C_9
REMARK    5  A    between atoms: C_9  and  N_10
REMARK    6  A    between atoms: N_10  and  C_11
REMARK    7  A    between atoms: C_15  and  C_16
REMARK    8  A    between atoms: C_16  and  C_17
REMARK    9  A    between atoms: C_20  and  O_21
REMARK   10  A    between atoms: C_25  and  O_26
REMARK                            x       y       z     vdW  Elec       q    Type
REMARK                         _______ _______ _______ _____ _____    ______ ____
ROOT
ATOM      1  C   UNL     1       0.875  10.760  19.519  0.00  0.00    +0.000 C 
ATOM      2  C   UNL     1       0.369   9.984  20.736  0.00  0.00    +0.000 C 
ATOM      3  O   UNL     1       1.379   9.069  21.171  0.00  0.00    +0.000 OA
ATOM      4  C   UNL     1       1.546   8.010  20.232  0.00  0.00    +0.000 C 
ATOM      5  C   UNL     1       2.054   8.537  18.888  0.00  0.00    +0.000 C 
ATOM      6  C   UNL     1       1.256   9.758  18.399  0.00  0.00    +0.000 C 
ENDROOT
BRANCH   1   7
ATOM      7  N   UNL     1      -0.100  11.715  18.958  0.00  0.00    +0.000 NA
ATOM      8  H   UNL     1       0.203  12.667  19.180  0.00  0.00    +0.000 HD
BRANCH   7   9
ATOM      9  C   UNL     1      -1.465  11.516  19.431  0.00  0.00    +0.000 C 
BRANCH   9  14
ATOM     10  C   UNL     1      -4.712  11.488  17.401  0.00  0.00    +0.000 A 
ATOM     11  C   UNL     1      -4.248  10.986  16.177  0.00  0.00    +0.000 A 
ATOM     12  C   UNL     1      -2.898  10.683  15.998  0.00  0.00    +0.000 A 
ATOM     13  C   UNL     1      -1.997  10.871  17.044  0.00  0.00    +0.000 A 
ATOM     14  C   UNL     1      -2.431  11.378  18.277  0.00  0.00    +0.000 A 
ATOM     15  C   UNL     1      -3.788  11.691  18.441  0.00  0.00    +0.000 A 
BRANCH  10  17
ATOM     16  C   UNL     1      -6.827  10.739  18.571  0.00  0.00    +0.000 C 
ATOM     17  C   UNL     1      -6.184  11.769  17.640  0.00  0.00    +0.000 C 
ATOM     18  C   UNL     1      -6.387  13.190  18.173  0.00  0.00    +0.000 C 
ENDBRANCH  10  17
ENDBRANCH   9  14
ENDBRANCH   7   9
ENDBRANCH   1   7
BRANCH   6  19
ATOM     19  O   UNL     1       2.016  10.436  17.379  0.00  0.00    +0.000 OA
ATOM     20  H   UNL     1       2.144   9.812  16.644  0.00  0.00    +0.000 HD
ENDBRANCH   6  19
BRANCH   5  21
ATOM     21  C   UNL     1       2.148   7.417  17.818  0.00  0.00    +0.000 C 
BRANCH  21  22
ATOM     22  C   UNL     1       3.015   6.220  18.166  0.00  0.00    +0.000 A 
ATOM     23  C   UNL     1       2.445   4.977  18.454  0.00  0.00    +0.000 A 
ATOM     24  C   UNL     1       3.250   3.880  18.786  0.00  0.00    +0.000 A 
ATOM     25  C   UNL     1       4.632   4.020  18.836  0.00  0.00    +0.000 A 
ATOM     26  C   UNL     1       5.215   5.255  18.542  0.00  0.00    +0.000 A 
ATOM     27 BR   UNL     1       7.098   5.501  18.605  0.00  0.00    +0.000 Br
ATOM     28  C   UNL     1       4.413   6.344  18.206  0.00  0.00    +0.000 A 
BRANCH  25  29
ATOM     29  O   UNL     1       5.418   2.950  19.163  0.00  0.00    +0.000 OA
ATOM     30  H   UNL     1       5.962   3.175  19.935  0.00  0.00    +0.000 HD
ENDBRANCH  25  29
ENDBRANCH  21  22
ENDBRANCH   5  21
TORSDOF 8
ENDMDL
MODEL 3
REMARK VINA RESULT:      -7.9      3.866      6.017
REMARK  Name = 
REMARK  10 active torsions:
REMARK  status: ('A' for Active; 'I' for Inactive)
REMARK    1  A    between atoms: C_1  and  C_2
REMARK    2  A    between atoms: C_2  and  C_3
REMARK    3  A    between atoms: C_2  and  C_4
REMARK    4  A    between atoms: C_8  and  C_9
REMARK    5  A    between atoms: C_9  and  N_10
REMARK    6  A    between atoms: N_10  and  C_11
REMARK    7  A    between atoms: C_15  and  C_16
REMARK    8  A    between atoms: C_16  and  C_17
REMARK    9  A    between atoms: C_20  and  O_21
REMARK   10  A    between atoms: C_25  and  O_26
REMARK                            x       y       z     vdW  Elec       q    Type
REMARK                         _______ _______ _______ _____ _____    ______ ____
ROOT
ATOM      1  C   UNL     1       1.813   3.430  18.181  0.00  0.00    +0.000 C 
ATOM      2  C   UNL     1       1.640   2.498  19.381  0.00  0.00    +0.000 C 
ATOM      3  O   UNL     1       0.727   3.084  20.312  0.00  0.00    +0.000 OA
ATOM      4  C   UNL     1       1.306   4.223  20.944  0.00  0.00    +0.000 C 
ATOM      5  C   UNL     1       1.591   5.333  19.930  0.00  0.00    +0.000 C 
ATOM      6  C   UNL     1       2.316   4.810  18.678  0.00  0.00    +0.000 C 
ENDROOT
BRANCH   1   7
ATOM      7  N   UNL     1       2.764   2.943  17.164  0.00  0.00    +0.000 NA
ATOM      8  H   UNL     1       2.439   2.038  16.814  0.00  0.00    +0.000 HD
BRANCH   7   9
ATOM      9  C   UNL     1       4.135   2.815  17.646  0.00  0.00    +0.000 C 
BRANCH   9  14
ATOM     10  C   UNL     1       6.828   5.478  17.082  0.00  0.00    +0.000 A 
ATOM     11  C   UNL     1       6.657   5.733  15.713  0.00  0.00    +0.000 A 
ATOM     12  C   UNL     1       5.701   5.037  14.973  0.00  0.00    +0.000 A 
ATOM     13  C   UNL     1       4.900   4.082  15.594  0.00  0.00    +0.000 A 
ATOM     14  C   UNL     1       5.052   3.800  16.959  0.00  0.00    +0.000 A 
ATOM     15  C   UNL     1       6.024   4.498  17.690  0.00  0.00    +0.000 A 
BRANCH  10  17
ATOM     16  C   UNL     1       7.667   7.775  17.732  0.00  0.00    +0.000 C 
ATOM     17  C   UNL     1       7.818   6.264  17.921  0.00  0.00    +0.000 C 
ATOM     18  C   UNL     1       7.701   5.883  19.399  0.00  0.00    +0.000 C 
ENDBRANCH  10  17
ENDBRANCH   9  14
ENDBRANCH   7   9
ENDBRANCH   1   7
BRANCH   6  19
ATOM     19  O   UNL     1       2.188   5.782  17.622  0.00  0.00    +0.000 OA
ATOM     20  H   UNL     1       1.281   5.723  17.275  0.00  0.00    +0.000 HD
ENDBRANCH   6  19
BRANCH   5  21
ATOM     21  C   UNL     1       2.313   6.545  20.576  0.00  0.00    +0.000 C 
BRANCH  21  22
ATOM     22  C   UNL     1       1.618   7.889  20.455  0.00  0.00    +0.000 A 
ATOM     23  C   UNL     1       1.691   8.635  19.276  0.00  0.00    +0.000 A 
ATOM     24  C   UNL     1       1.058   9.880  19.175  0.00  0.00    +0.000 A 
ATOM     25  C   UNL     1       0.348  10.390  20.256  0.00  0.00    +0.000 A 
ATOM     26  C   UNL     1       0.259   9.651  21.438  0.00  0.00    +0.000 A 
ATOM     27 BR   UNL     1      -0.691  10.306  22.947  0.00  0.00    +0.000 Br
ATOM     28  C   UNL     1       0.885   8.409  21.534  0.00  0.00    +0.000 A 
BRANCH  25  29
ATOM     29  O   UNL     1      -0.269  11.606  20.159  0.00  0.00    +0.000 OA
ATOM     30  H   UNL     1       0.324  12.232  19.711  0.00  0.00    +0.000 HD
ENDBRANCH  25  29
ENDBRANCH  21  22
ENDBRANCH   5  21
TORSDOF 8
ENDMDL
MODEL 4
REMARK VINA RESULT:      -7.9      5.268      7.269
REMARK  Name = 
REMARK  10 active torsions:
REMARK  status: ('A' for Active; 'I' for Inactive)
REMARK    1  A    between atoms: C_1  and  C_2
REMARK    2  A    between atoms: C_2  and  C_3
REMARK    3  A    between atoms: C_2  and  C_4
REMARK    4  A    between atoms: C_8  and  C_9
REMARK    5  A    between atoms: C_9  and  N_10
REMARK    6  A    between atoms: N_10  and  C_11
REMARK    7  A    between atoms: C_15  and  C_16
REMARK    8  A    between atoms: C_16  and  C_17
REMARK    9  A    between atoms: C_20  and  O_21
REMARK   10  A    between atoms: C_25  and  O_26
REMARK                            x       y       z     vdW  Elec       q    Type
REMARK                         _______ _______ _______ _____ _____    ______ ____
ROOT
ATOM      1  C   UNL     1       2.010   3.517  18.146  0.00  0.00    +0.000 C 
ATOM      2  C   UNL     1       1.961   2.558  19.337  0.00  0.00    +0.000 C 
ATOM      3  O   UNL     1       1.045   3.058  20.314  0.00  0.00    +0.000 OA
ATOM      4  C   UNL     1       1.559   4.231  20.940  0.00  0.00    +0.000 C 
ATOM      5  C   UNL     1       1.713   5.373  19.934  0.00  0.00    +0.000 C 
ATOM      6  C   UNL     1       2.424   4.925  18.645  0.00  0.00    +0.000 C 
ENDROOT
BRANCH   1   7
ATOM      7  N   UNL     1       2.953   3.119  17.083  0.00  0.00    +0.000 NA
ATOM      8  H   UNL     1       2.698   2.187  16.747  0.00  0.00    +0.000 HD
BRANCH   7   9
ATOM      9  C   UNL     1       4.351   3.121  17.498  0.00  0.00    +0.000 C 
BRANCH   9  14
ATOM     10  C   UNL     1       6.122   3.992  14.217  0.00  0.00    +0.000 A 
ATOM     11  C   UNL     1       6.946   5.046  14.639  0.00  0.00    +0.000 A 
ATOM     12  C   UNL     1       6.913   5.489  15.962  0.00  0.00    +0.000 A 
ATOM     13  C   UNL     1       6.062   4.878  16.880  0.00  0.00    +0.000 A 
ATOM     14  C   UNL     1       5.223   3.827  16.486  0.00  0.00    +0.000 A 
ATOM     15  C   UNL     1       5.255   3.399  15.151  0.00  0.00    +0.000 A 
BRANCH  10  17
ATOM     16  C   UNL     1       4.820   3.495  12.105  0.00  0.00    +0.000 C 
ATOM     17  C   UNL     1       6.182   3.453  12.800  0.00  0.00    +0.000 C 
ATOM     18  C   UNL     1       7.238   4.198  11.979  0.00  0.00    +0.000 C 
ENDBRANCH  10  17
ENDBRANCH   9  14
ENDBRANCH   7   9
ENDBRANCH   1   7
BRANCH   6  19
ATOM     19  O   UNL     1       2.177   5.898  17.611  0.00  0.00    +0.000 OA
ATOM     20  H   UNL     1       2.183   6.777  18.026  0.00  0.00    +0.000 HD
ENDBRANCH   6  19
BRANCH   5  21
ATOM     21  C   UNL     1       2.365   6.629  20.569  0.00  0.00    +0.000 C 
BRANCH  21  22
ATOM     22  C   UNL     1       1.582   7.925  20.463  0.00  0.00    +0.000 A 
ATOM     23  C   UNL     1       1.542   8.648  19.267  0.00  0.00    +0.000 A 
ATOM     24  C   UNL     1       0.827   9.848  19.179  0.00  0.00    +0.000 A 
ATOM     25  C   UNL     1       0.147  10.338  20.289  0.00  0.00    +0.000 A 
ATOM     26  C   UNL     1       0.171   9.621  21.488  0.00  0.00    +0.000 A 
ATOM     27 BR   UNL     1      -0.734  10.249  23.036  0.00  0.00    +0.000 Br
ATOM     28  C   UNL     1       0.879   8.422  21.572  0.00  0.00    +0.000 A 
BRANCH  25  29
ATOM     29  O   UNL     1      -0.549  11.511  20.204  0.00  0.00    +0.000 OA
ATOM     30  H   UNL     1       0.072  12.243  20.062  0.00  0.00    +0.000 HD
ENDBRANCH  25  29
ENDBRANCH  21  22
ENDBRANCH   5  21
TORSDOF 8
ENDMDL
MODEL 5
REMARK VINA RESULT:      -7.8      4.926      9.370
REMARK  Name = 
REMARK  10 active torsions:
REMARK  status: ('A' for Active; 'I' for Inactive)
REMARK    1  A    between atoms: C_1  and  C_2
REMARK    2  A    between atoms: C_2  and  C_3
REMARK    3  A    between atoms: C_2  and  C_4
REMARK    4  A    between atoms: C_8  and  C_9
REMARK    5  A    between atoms: C_9  and  N_10
REMARK    6  A    between atoms: N_10  and  C_11
REMARK    7  A    between atoms: C_15  and  C_16
REMARK    8  A    between atoms: C_16  and  C_17
REMARK    9  A    between atoms: C_20  and  O_21
REMARK   10  A    between atoms: C_25  and  O_26
REMARK                            x       y       z     vdW  Elec       q    Type
REMARK                         _______ _______ _______ _____ _____    ______ ____
ROOT
ATOM      1  C   UNL     1       1.201   9.697  18.899  0.00  0.00    +0.000 C 
ATOM      2  C   UNL     1       0.607   9.307  20.253  0.00  0.00    +0.000 C 
ATOM      3  O   UNL     1       1.566   8.549  20.994  0.00  0.00    +0.000 OA
ATOM      4  C   UNL     1       1.760   7.263  20.410  0.00  0.00    +0.000 C 
ATOM      5  C   UNL     1       2.357   7.377  19.007  0.00  0.00    +0.000 C 
ATOM      6  C   UNL     1       1.621   8.412  18.139  0.00  0.00    +0.000 C 
ENDROOT
BRANCH   1   7
ATOM      7  N   UNL     1       0.284  10.458  18.028  0.00  0.00    +0.000 NA
ATOM      8  H   UNL     1       0.836  11.058  17.411  0.00  0.00    +0.000 HD
BRANCH   7   9
ATOM      9  C   UNL     1      -0.689  11.267  18.754  0.00  0.00    +0.000 C 
BRANCH   9  14
ATOM     10  C   UNL     1      -4.452  11.554  18.110  0.00  0.00    +0.000 A 
ATOM     11  C   UNL     1      -4.512  11.196  16.756  0.00  0.00    +0.000 A 
ATOM     12  C   UNL     1      -3.348  10.889  16.049  0.00  0.00    +0.000 A 
ATOM     13  C   UNL     1      -2.113  10.929  16.691  0.00  0.00    +0.000 A 
ATOM     14  C   UNL     1      -2.021  11.290  18.042  0.00  0.00    +0.000 A 
ATOM     15  C   UNL     1      -3.196  11.609  18.739  0.00  0.00    +0.000 A 
BRANCH  10  17
ATOM     16  C   UNL     1      -6.134  13.301  18.834  0.00  0.00    +0.000 C 
ATOM     17  C   UNL     1      -5.708  11.833  18.916  0.00  0.00    +0.000 C 
ATOM     18  C   UNL     1      -6.848  10.908  18.483  0.00  0.00    +0.000 C 
ENDBRANCH  10  17
ENDBRANCH   9  14
ENDBRANCH   7   9
ENDBRANCH   1   7
BRANCH   6  19
ATOM     19  O   UNL     1       2.454   8.762  17.017  0.00  0.00    +0.000 OA
ATOM     20  H   UNL     1       1.953   9.384  16.461  0.00  0.00    +0.000 HD
ENDBRANCH   6  19
BRANCH   5  21
ATOM     21  C   UNL     1       2.485   5.996  18.310  0.00  0.00    +0.000 C 
BRANCH  21  22
ATOM     22  C   UNL     1       3.852   5.643  17.754  0.00  0.00    +0.000 A 
ATOM     23  C   UNL     1       4.078   4.419  17.119  0.00  0.00    +0.000 A 
ATOM     24  C   UNL     1       5.345   4.094  16.619  0.00  0.00    +0.000 A 
ATOM     25  C   UNL     1       6.399   4.991  16.754  0.00  0.00    +0.000 A 
ATOM     26  C   UNL     1       6.185   6.222  17.379  0.00  0.00    +0.000 A 
ATOM     27 BR   UNL     1       7.591   7.480  17.597  0.00  0.00    +0.000 Br
ATOM     28  C   UNL     1       4.921   6.546  17.871  0.00  0.00    +0.000 A 
BRANCH  25  29
ATOM     29  O   UNL     1       7.636   4.674  16.268  0.00  0.00    +0.000 OA
ATOM     30  H   UNL     1       8.117   4.153  16.932  0.00  0.00    +0.000 HD
ENDBRANCH  25  29
ENDBRANCH  21  22
ENDBRANCH   5  21
TORSDOF 8
ENDMDL
MODEL 6
REMARK VINA RESULT:      -7.8      5.183      9.137
REMARK  Name = 
REMARK  10 active torsions:
REMARK  status: ('A' for Active; 'I' for Inactive)
REMARK    1  A    between atoms: C_1  and  C_2
REMARK    2  A    between atoms: C_2  and  C_3
REMARK    3  A    between atoms: C_2  and  C_4
REMARK    4  A    between atoms: C_8  and  C_9
REMARK    5  A    between atoms: C_9  and  N_10
REMARK    6  A    between atoms: N_10  and  C_11
REMARK    7  A    between atoms: C_15  and  C_16
REMARK    8  A    between atoms: C_16  and  C_17
REMARK    9  A    between atoms: C_20  and  O_21
REMARK   10  A    between atoms: C_25  and  O_26
REMARK                            x       y       z     vdW  Elec       q    Type
REMARK                         _______ _______ _______ _____ _____    ______ ____
ROOT
ATOM      1  C   UNL     1       1.239   9.744  19.100  0.00  0.00    +0.000 C 
ATOM      2  C   UNL     1       0.610   9.256  20.406  0.00  0.00    +0.000 C 
ATOM      3  O   UNL     1       1.555   8.454  21.119  0.00  0.00    +0.000 OA
ATOM      4  C   UNL     1       1.776   7.214  20.453  0.00  0.00    +0.000 C 
ATOM      5  C   UNL     1       2.411   7.430  19.078  0.00  0.00    +0.000 C 
ATOM      6  C   UNL     1       1.690   8.518  18.265  0.00  0.00    +0.000 C 
ENDROOT
BRANCH   1   7
ATOM      7  N   UNL     1       0.340  10.558  18.259  0.00  0.00    +0.000 NA
ATOM      8  H   UNL     1       0.763  10.669  17.334  0.00  0.00    +0.000 HD
BRANCH   7   9
ATOM      9  C   UNL     1       0.033  11.871  18.815  0.00  0.00    +0.000 C 
BRANCH   9  14
ATOM     10  C   UNL     1      -3.774  11.689  18.457  0.00  0.00    +0.000 A 
ATOM     11  C   UNL     1      -4.176  12.387  19.605  0.00  0.00    +0.000 A 
ATOM     12  C   UNL     1      -3.231  12.890  20.499  0.00  0.00    +0.000 A 
ATOM     13  C   UNL     1      -1.872  12.707  20.252  0.00  0.00    +0.000 A 
ATOM     14  C   UNL     1      -1.441  12.008  19.117  0.00  0.00    +0.000 A 
ATOM     15  C   UNL     1      -2.400  11.496  18.232  0.00  0.00    +0.000 A 
BRANCH  10  17
ATOM     16  C   UNL     1      -6.006  12.094  17.336  0.00  0.00    +0.000 C 
ATOM     17  C   UNL     1      -4.780  11.185  17.439  0.00  0.00    +0.000 C 
ATOM     18  C   UNL     1      -4.121  10.998  16.069  0.00  0.00    +0.000 C 
ENDBRANCH  10  17
ENDBRANCH   9  14
ENDBRANCH   7   9
ENDBRANCH   1   7
BRANCH   6  19
ATOM     19  O   UNL     1       2.552   8.952  17.193  0.00  0.00    +0.000 OA
ATOM     20  H   UNL     1       2.281   9.853  16.945  0.00  0.00    +0.000 HD
ENDBRANCH   6  19
BRANCH   5  21
ATOM     21  C   UNL     1       2.569   6.102  18.291  0.00  0.00    +0.000 C 
BRANCH  21  22
ATOM     22  C   UNL     1       3.989   5.609  18.075  0.00  0.00    +0.000 A 
ATOM     23  C   UNL     1       4.888   5.511  19.141  0.00  0.00    +0.000 A 
ATOM     24  C   UNL     1       6.200   5.067  18.933  0.00  0.00    +0.000 A 
ATOM     25  C   UNL     1       6.624   4.720  17.655  0.00  0.00    +0.000 A 
ATOM     26  C   UNL     1       5.733   4.804  16.582  0.00  0.00    +0.000 A 
ATOM     27 BR   UNL     1       6.264   4.350  14.816  0.00  0.00    +0.000 Br
ATOM     28  C   UNL     1       4.425   5.241  16.792  0.00  0.00    +0.000 A 
BRANCH  25  29
ATOM     29  O   UNL     1       7.905   4.288  17.451  0.00  0.00    +0.000 OA
ATOM     30  H   UNL     1       8.460   5.042  17.196  0.00  0.00    +0.000 HD
ENDBRANCH  25  29
ENDBRANCH  21  22
ENDBRANCH   5  21
TORSDOF 8
ENDMDL
MODEL 7
REMARK VINA RESULT:      -7.7      3.979      6.085
REMARK  Name = 
REMARK  10 active torsions:
REMARK  status: ('A' for Active; 'I' for Inactive)
REMARK    1  A    between atoms: C_1  and  C_2
REMARK    2  A    between atoms: C_2  and  C_3
REMARK    3  A    between atoms: C_2  and  C_4
REMARK    4  A    between atoms: C_8  and  C_9
REMARK    5  A    between atoms: C_9  and  N_10
REMARK    6  A    between atoms: N_10  and  C_11
REMARK    7  A    between atoms: C_15  and  C_16
REMARK    8  A    between atoms: C_16  and  C_17
REMARK    9  A    between atoms: C_20  and  O_21
REMARK   10  A    between atoms: C_25  and  O_26
REMARK                            x       y       z     vdW  Elec       q    Type
REMARK                         _______ _______ _______ _____ _____    ______ ____
ROOT
ATOM      1  C   UNL     1       1.784   3.132  18.526  0.00  0.00    +0.000 C 
ATOM      2  C   UNL     1       1.876   2.379  19.855  0.00  0.00    +0.000 C 
ATOM      3  O   UNL     1       1.104   3.064  20.844  0.00  0.00    +0.000 OA
ATOM      4  C   UNL     1       1.714   4.302  21.199  0.00  0.00    +0.000 C 
ATOM      5  C   UNL     1       1.754   5.261  20.008  0.00  0.00    +0.000 C 
ATOM      6  C   UNL     1       2.282   4.586  18.731  0.00  0.00    +0.000 C 
ENDROOT
BRANCH   1   7
ATOM      7  N   UNL     1       2.573   2.534  17.432  0.00  0.00    +0.000 NA
ATOM      8  H   UNL     1       2.180   1.617  17.204  0.00  0.00    +0.000 HD
BRANCH   7   9
ATOM      9  C   UNL     1       3.994   2.393  17.733  0.00  0.00    +0.000 C 
BRANCH   9  14
ATOM     10  C   UNL     1       6.231   5.483  17.401  0.00  0.00    +0.000 A 
ATOM     11  C   UNL     1       6.171   5.699  16.017  0.00  0.00    +0.000 A 
ATOM     12  C   UNL     1       5.437   4.844  15.195  0.00  0.00    +0.000 A 
ATOM     13  C   UNL     1       4.749   3.767  15.747  0.00  0.00    +0.000 A 
ATOM     14  C   UNL     1       4.796   3.521  17.126  0.00  0.00    +0.000 A 
ATOM     15  C   UNL     1       5.547   4.380  17.942  0.00  0.00    +0.000 A 
BRANCH  10  17
ATOM     16  C   UNL     1       7.993   5.708  19.204  0.00  0.00    +0.000 C 
ATOM     17  C   UNL     1       6.972   6.433  18.324  0.00  0.00    +0.000 C 
ATOM     18  C   UNL     1       7.639   7.556  17.526  0.00  0.00    +0.000 C 
ENDBRANCH  10  17
ENDBRANCH   9  14
ENDBRANCH   7   9
ENDBRANCH   1   7
BRANCH   6  19
ATOM     19  O   UNL     1       1.917   5.388  17.591  0.00  0.00    +0.000 OA
ATOM     20  H   UNL     1       1.421   6.157  17.919  0.00  0.00    +0.000 HD
ENDBRANCH   6  19
BRANCH   5  21
ATOM     21  C   UNL     1       2.504   6.578  20.341  0.00  0.00    +0.000 C 
BRANCH  21  22
ATOM     22  C   UNL     1       1.905   7.856  19.783  0.00  0.00    +0.000 A 
ATOM     23  C   UNL     1       2.143   8.248  18.463  0.00  0.00    +0.000 A 
ATOM     24  C   UNL     1       1.598   9.434  17.958  0.00  0.00    +0.000 A 
ATOM     25  C   UNL     1       0.811  10.242  18.772  0.00  0.00    +0.000 A 
ATOM     26  C   UNL     1       0.558   9.858  20.091  0.00  0.00    +0.000 A 
ATOM     27 BR   UNL     1      -0.503  10.929  21.248  0.00  0.00    +0.000 Br
ATOM     28  C   UNL     1       1.097   8.673  20.591  0.00  0.00    +0.000 A 
BRANCH  25  29
ATOM     29  O   UNL     1       0.280  11.402  18.281  0.00  0.00    +0.000 OA
ATOM     30  H   UNL     1       0.355  12.098  18.953  0.00  0.00    +0.000 HD
ENDBRANCH  25  29
ENDBRANCH  21  22
ENDBRANCH   5  21
TORSDOF 8
ENDMDL
MODEL 8
REMARK VINA RESULT:      -7.6      2.566      3.489
REMARK  Name = 
REMARK  10 active torsions:
REMARK  status: ('A' for Active; 'I' for Inactive)
REMARK    1  A    between atoms: C_1  and  C_2
REMARK    2  A    between atoms: C_2  and  C_3
REMARK    3  A    between atoms: C_2  and  C_4
REMARK    4  A    between atoms: C_8  and  C_9
REMARK    5  A    between atoms: C_9  and  N_10
REMARK    6  A    between atoms: N_10  and  C_11
REMARK    7  A    between atoms: C_15  and  C_16
REMARK    8  A    between atoms: C_16  and  C_17
REMARK    9  A    between atoms: C_20  and  O_21
REMARK   10  A    between atoms: C_25  and  O_26
REMARK                            x       y       z     vdW  Elec       q    Type
REMARK                         _______ _______ _______ _____ _____    ______ ____
ROOT
ATOM      1  C   UNL     1       7.743   7.252  17.774  0.00  0.00    +0.000 C 
ATOM      2  C   UNL     1       8.083   6.343  18.956  0.00  0.00    +0.000 C 
ATOM      3  O   UNL     1       7.576   5.030  18.708  0.00  0.00    +0.000 OA
ATOM      4  C   UNL     1       6.152   5.015  18.764  0.00  0.00    +0.000 C 
ATOM      5  C   UNL     1       5.545   5.879  17.658  0.00  0.00    +0.000 C 
ATOM      6  C   UNL     1       6.206   7.266  17.569  0.00  0.00    +0.000 C 
ENDROOT
BRANCH   1   7
ATOM      7  N   UNL     1       8.189   8.650  17.933  0.00  0.00    +0.000 NA
ATOM      8  H   UNL     1       8.716   8.926  17.101  0.00  0.00    +0.000 HD
BRANCH   7   9
ATOM      9  C   UNL     1       9.001   8.882  19.123  0.00  0.00    +0.000 C 
BRANCH   9  14
ATOM     10  C   UNL     1      10.028  12.499  18.397  0.00  0.00    +0.000 A 
ATOM     11  C   UNL     1       9.962  13.050  19.685  0.00  0.00    +0.000 A 
ATOM     12  C   UNL     1       9.567  12.271  20.773  0.00  0.00    +0.000 A 
ATOM     13  C   UNL     1       9.240  10.930  20.587  0.00  0.00    +0.000 A 
ATOM     14  C   UNL     1       9.290  10.353  19.311  0.00  0.00    +0.000 A 
ATOM     15  C   UNL     1       9.676  11.149  18.223  0.00  0.00    +0.000 A 
BRANCH  10  17
ATOM     16  C   UNL     1      10.345  14.814  17.426  0.00  0.00    +0.000 C 
ATOM     17  C   UNL     1      10.512  13.308  17.208  0.00  0.00    +0.000 C 
ATOM     18  C   UNL     1      11.965  12.963  16.871  0.00  0.00    +0.000 C 
ENDBRANCH  10  17
ENDBRANCH   9  14
ENDBRANCH   7   9
ENDBRANCH   1   7
BRANCH   6  19
ATOM     19  O   UNL     1       5.892   7.855  16.292  0.00  0.00    +0.000 OA
ATOM     20  H   UNL     1       6.696   7.819  15.746  0.00  0.00    +0.000 HD
ENDBRANCH   6  19
BRANCH   5  21
ATOM     21  C   UNL     1       3.999   5.961  17.760  0.00  0.00    +0.000 C 
BRANCH  21  22
ATOM     22  C   UNL     1       3.275   4.672  18.108  0.00  0.00    +0.000 A 
ATOM     23  C   UNL     1       3.054   3.686  17.143  0.00  0.00    +0.000 A 
ATOM     24  C   UNL     1       2.376   2.505  17.468  0.00  0.00    +0.000 A 
ATOM     25  C   UNL     1       1.910   2.302  18.763  0.00  0.00    +0.000 A 
ATOM     26  C   UNL     1       2.132   3.277  19.739  0.00  0.00    +0.000 A 
ATOM     27 BR   UNL     1       1.508   3.054  21.520  0.00  0.00    +0.000 Br
ATOM     28  C   UNL     1       2.812   4.449  19.415  0.00  0.00    +0.000 A 
BRANCH  25  29
ATOM     29  O   UNL     1       1.245   1.151  19.080  0.00  0.00    +0.000 OA
ATOM     30  H   UNL     1       1.140   1.097  20.044  0.00  0.00    +0.000 HD
ENDBRANCH  25  29
ENDBRANCH  21  22
ENDBRANCH   5  21
TORSDOF 8
ENDMDL
MODEL 9
REMARK VINA RESULT:      -7.6      5.856      8.990
REMARK  Name = 
REMARK  10 active torsions:
REMARK  status: ('A' for Active; 'I' for Inactive)
REMARK    1  A    between atoms: C_1  and  C_2
REMARK    2  A    between atoms: C_2  and  C_3
REMARK    3  A    between atoms: C_2  and  C_4
REMARK    4  A    between atoms: C_8  and  C_9
REMARK    5  A    between atoms: C_9  and  N_10
REMARK    6  A    between atoms: N_10  and  C_11
REMARK    7  A    between atoms: C_15  and  C_16
REMARK    8  A    between atoms: C_16  and  C_17
REMARK    9  A    between atoms: C_20  and  O_21
REMARK   10  A    between atoms: C_25  and  O_26
REMARK                            x       y       z     vdW  Elec       q    Type
REMARK                         _______ _______ _______ _____ _____    ______ ____
ROOT
ATOM      1  C   UNL     1       0.627   9.673  20.429  0.00  0.00    +0.000 C 
ATOM      2  C   UNL     1       0.778  10.591  19.215  0.00  0.00    +0.000 C 
ATOM      3  O   UNL     1       0.609   9.828  18.018  0.00  0.00    +0.000 OA
ATOM      4  C   UNL     1       1.708   8.943  17.818  0.00  0.00    +0.000 C 
ATOM      5  C   UNL     1       1.788   7.899  18.933  0.00  0.00    +0.000 C 
ATOM      6  C   UNL     1       1.668   8.528  20.332  0.00  0.00    +0.000 C 
ENDROOT
BRANCH   1   7
ATOM      7  N   UNL     1       0.817  10.347  21.728  0.00  0.00    +0.000 NA
ATOM      8  H   UNL     1       1.591   9.898  22.224  0.00  0.00    +0.000 HD
BRANCH   7   9
ATOM      9  C   UNL     1      -0.370  10.346  22.577  0.00  0.00    +0.000 C 
BRANCH   9  14
ATOM     10  C   UNL     1      -2.919  13.145  23.151  0.00  0.00    +0.000 A 
ATOM     11  C   UNL     1      -2.220  14.243  22.631  0.00  0.00    +0.000 A 
ATOM     12  C   UNL     1      -0.929  14.089  22.123  0.00  0.00    +0.000 A 
ATOM     13  C   UNL     1      -0.326  12.834  22.123  0.00  0.00    +0.000 A 
ATOM     14  C   UNL     1      -0.998  11.719  22.642  0.00  0.00    +0.000 A 
ATOM     15  C   UNL     1      -2.290  11.888  23.161  0.00  0.00    +0.000 A 
BRANCH  10  17
ATOM     16  C   UNL     1      -5.374  13.038  22.546  0.00  0.00    +0.000 C 
ATOM     17  C   UNL     1      -4.345  13.274  23.654  0.00  0.00    +0.000 C 
ATOM     18  C   UNL     1      -4.592  12.336  24.838  0.00  0.00    +0.000 C 
ENDBRANCH  10  17
ENDBRANCH   9  14
ENDBRANCH   7   9
ENDBRANCH   1   7
BRANCH   6  19
ATOM     19  O   UNL     1       1.343   7.495  21.284  0.00  0.00    +0.000 OA
ATOM     20  H   UNL     1       0.693   7.864  21.907  0.00  0.00    +0.000 HD
ENDBRANCH   6  19
BRANCH   5  21
ATOM     21  C   UNL     1       3.035   6.987  18.794  0.00  0.00    +0.000 C 
BRANCH  21  22
ATOM     22  C   UNL     1       2.778   5.490  18.768  0.00  0.00    +0.000 A 
ATOM     23  C   UNL     1       2.904   4.757  17.585  0.00  0.00    +0.000 A 
ATOM     24  C   UNL     1       2.654   3.379  17.566  0.00  0.00    +0.000 A 
ATOM     25  C   UNL     1       2.272   2.724  18.732  0.00  0.00    +0.000 A 
ATOM     26  C   UNL     1       2.151   3.444  19.923  0.00  0.00    +0.000 A 
ATOM     27 BR   UNL     1       1.624   2.599  21.541  0.00  0.00    +0.000 Br
ATOM     28  C   UNL     1       2.406   4.814  19.942  0.00  0.00    +0.000 A 
BRANCH  25  29
ATOM     29  O   UNL     1       2.025   1.380  18.713  0.00  0.00    +0.000 OA
ATOM     30  H   UNL     1       2.182   1.037  17.819  0.00  0.00    +0.000 HD
ENDBRANCH  25  29
ENDBRANCH  21  22
ENDBRANCH   5  21
TORSDOF 8
ENDMDL
