MODEL 1
REMARK VINA RESULT:      -8.0      0.000      0.000
REMARK  Name = 
REMARK  7 active torsions:
REMARK  status: ('A' for Active; 'I' for Inactive)
REMARK    1  A    between atoms: C_5  and  C_6
REMARK    2  A    between atoms: C_6  and  N_7
REMARK    3  A    between atoms: C_8  and  C_10
REMARK    4  A    between atoms: C_15  and  C_17
REMARK    5  A    between atoms: C_17  and  N_18
REMARK    6  A    between atoms: C_17  and  C_19
REMARK    7  A    between atoms: C_19  and  C_20
REMARK                            x       y       z     vdW  Elec       q    Type
REMARK                         _______ _______ _______ _____ _____    ______ ____
ROOT
ATOM      1  C   UNL     1       2.176   4.226  19.660  0.00  0.00    +0.000 C 
ATOM      2  C   UNL     1       1.215   4.252  20.864  0.00  0.00    +0.000 C 
ATOM      3  C   UNL     1       1.391   2.896  21.515  0.00  0.00    +0.000 C 
ATOM      4  C   UNL     1       2.825   2.518  21.201  0.00  0.00    +0.000 C 
ATOM      5  N   UNL     1       3.314   3.467  20.203  0.00  0.00    +0.000 N 
ATOM      6  C   UNL     1       4.469   3.065  19.542  0.00  0.00    +0.000 C 
ATOM      7  O   UNL     1       5.049   2.020  19.874  0.00  0.00    +0.000 OA
ENDROOT
BRANCH   1   9
ATOM      8  N   UNL     1       2.044   6.676  20.081  0.00  0.00    +0.000 N 
ATOM      9  C   UNL     1       2.210   5.679  19.143  0.00  0.00    +0.000 C 
ATOM     10  O   UNL     1       2.195   5.905  17.934  0.00  0.00    +0.000 OA
ATOM     11  H   UNL     1       2.437   6.480  20.997  0.00  0.00    +0.000 HD
BRANCH   8  12
ATOM     12  C   UNL     1       1.977   8.062  19.653  0.00  0.00    +0.000 C 
BRANCH  12  17
ATOM     13  N   UNL     1      -1.176  11.137  23.203  0.00  0.00    +0.000 N 
ATOM     14  C   UNL     1      -0.398  10.432  22.287  0.00  0.00    +0.000 A 
ATOM     15  C   UNL     1      -0.551  10.639  20.923  0.00  0.00    +0.000 A 
ATOM     16  C   UNL     1       0.220   9.893  20.029  0.00  0.00    +0.000 A 
ATOM     17  C   UNL     1       1.122   8.949  20.515  0.00  0.00    +0.000 A 
ATOM     18  C   UNL     1       1.243   8.867  21.902  0.00  0.00    +0.000 A 
ATOM     19  N   UNL     1       0.505   9.578  22.789  0.00  0.00    +0.000 NA
ATOM     20  H   UNL     1      -2.165  11.013  23.018  0.00  0.00    +0.000 HD
ATOM     21  H   UNL     1      -0.920  10.792  24.124  0.00  0.00    +0.000 HD
ENDBRANCH  12  17
ENDBRANCH   8  12
ENDBRANCH   1   9
BRANCH   6  22
ATOM     22  C   UNL     1       5.195   3.992  18.545  0.00  0.00    +0.000 C 
BRANCH  22  23
ATOM     23  N   UNL     1       5.051   3.420  17.178  0.00  0.00    +0.000 NA
ATOM     24  H   UNL     1       4.508   2.555  17.283  0.00  0.00    +0.000 HD
ATOM     25  H   UNL     1       4.441   4.041  16.644  0.00  0.00    +0.000 HD
ENDBRANCH  22  23
BRANCH  22  26
ATOM     26  C   UNL     1       6.630   4.411  18.876  0.00  0.00    +0.000 C 
BRANCH  26  27
ATOM     27  C   UNL     1       6.993   5.802  18.414  0.00  0.00    +0.000 A 
ATOM     28  C   UNL     1       8.106   6.458  18.958  0.00  0.00    +0.000 A 
ATOM     29  C   UNL     1       8.423   7.759  18.570  0.00  0.00    +0.000 A 
ATOM     30  C   UNL     1       7.644   8.412  17.618  0.00  0.00    +0.000 A 
ATOM     31  C   UNL     1       6.555   7.759  17.044  0.00  0.00    +0.000 A 
ATOM     32  C   UNL     1       6.232   6.459  17.436  0.00  0.00    +0.000 A 
ENDBRANCH  26  27
ENDBRANCH  22  26
ENDBRANCH   6  22
TORSDOF 7
ENDMDL
MODEL 2
REMARK VINA RESULT:      -7.8      1.188      1.630
REMARK  Name = 
REMARK  7 active torsions:
REMARK  status: ('A' for Active; 'I' for Inactive)
REMARK    1  A    between atoms: C_5  and  C_6
REMARK    2  A    between atoms: C_6  and  N_7
REMARK    3  A    between atoms: C_8  and  C_10
REMARK    4  A    between atoms: C_15  and  C_17
REMARK    5  A    between atoms: C_17  and  N_18
REMARK    6  A    between atoms: C_17  and  C_19
REMARK    7  A    between atoms: C_19  and  C_20
REMARK                            x       y       z     vdW  Elec       q    Type
REMARK                         _______ _______ _______ _____ _____    ______ ____
ROOT
ATOM      1  C   UNL     1       2.110   4.385  19.894  0.00  0.00    +0.000 C 
ATOM      2  C   UNL     1       2.101   4.425  21.434  0.00  0.00    +0.000 C 
ATOM      3  C   UNL     1       2.361   2.993  21.850  0.00  0.00    +0.000 C 
ATOM      4  C   UNL     1       3.204   2.429  20.723  0.00  0.00    +0.000 C 
ATOM      5  N   UNL     1       3.166   3.395  19.629  0.00  0.00    +0.000 N 
ATOM      6  C   UNL     1       3.579   2.892  18.400  0.00  0.00    +0.000 C 
ATOM      7  O   UNL     1       4.022   1.736  18.314  0.00  0.00    +0.000 OA
ENDROOT
BRANCH   1   9
ATOM      8  N   UNL     1       1.927   6.806  20.443  0.00  0.00    +0.000 N 
ATOM      9  C   UNL     1       2.111   5.864  19.453  0.00  0.00    +0.000 C 
ATOM     10  O   UNL     1       2.088   6.152  18.259  0.00  0.00    +0.000 OA
ATOM     11  H   UNL     1       2.327   6.571  21.347  0.00  0.00    +0.000 HD
BRANCH   8  12
ATOM     12  C   UNL     1       1.829   8.211  20.089  0.00  0.00    +0.000 C 
BRANCH  12  17
ATOM     13  N   UNL     1      -1.584  11.552  23.120  0.00  0.00    +0.000 N 
ATOM     14  C   UNL     1      -0.758  10.679  22.415  0.00  0.00    +0.000 A 
ATOM     15  C   UNL     1      -0.057   9.680  23.077  0.00  0.00    +0.000 A 
ATOM     16  C   UNL     1       0.789   8.843  22.347  0.00  0.00    +0.000 A 
ATOM     17  C   UNL     1       0.924   9.024  20.973  0.00  0.00    +0.000 A 
ATOM     18  C   UNL     1       0.126  10.013  20.399  0.00  0.00    +0.000 A 
ATOM     19  N   UNL     1      -0.700  10.839  21.086  0.00  0.00    +0.000 NA
ATOM     20  H   UNL     1      -1.077  12.021  23.861  0.00  0.00    +0.000 HD
ATOM     21  H   UNL     1      -1.953  12.212  22.441  0.00  0.00    +0.000 HD
ENDBRANCH  12  17
ENDBRANCH   8  12
ENDBRANCH   1   9
BRANCH   6  22
ATOM     22  C   UNL     1       3.721   3.799  17.160  0.00  0.00    +0.000 C 
BRANCH  22  23
ATOM     23  N   UNL     1       2.616   3.482  16.215  0.00  0.00    +0.000 NA
ATOM     24  H   UNL     1       2.330   2.517  16.419  0.00  0.00    +0.000 HD
ATOM     25  H   UNL     1       1.808   4.049  16.479  0.00  0.00    +0.000 HD
ENDBRANCH  22  23
BRANCH  22  26
ATOM     26  C   UNL     1       5.093   3.872  16.483  0.00  0.00    +0.000 C 
BRANCH  26  27
ATOM     27  C   UNL     1       6.019   4.911  17.068  0.00  0.00    +0.000 A 
ATOM     28  C   UNL     1       6.935   4.556  18.068  0.00  0.00    +0.000 A 
ATOM     29  C   UNL     1       7.764   5.518  18.644  0.00  0.00    +0.000 A 
ATOM     30  C   UNL     1       7.703   6.841  18.214  0.00  0.00    +0.000 A 
ATOM     31  C   UNL     1       6.821   7.200  17.196  0.00  0.00    +0.000 A 
ATOM     32  C   UNL     1       5.986   6.240  16.622  0.00  0.00    +0.000 A 
ENDBRANCH  26  27
ENDBRANCH  22  26
ENDBRANCH   6  22
TORSDOF 7
ENDMDL
MODEL 3
REMARK VINA RESULT:      -7.8      1.459      1.844
REMARK  Name = 
REMARK  7 active torsions:
REMARK  status: ('A' for Active; 'I' for Inactive)
REMARK    1  A    between atoms: C_5  and  C_6
REMARK    2  A    between atoms: C_6  and  N_7
REMARK    3  A    between atoms: C_8  and  C_10
REMARK    4  A    between atoms: C_15  and  C_17
REMARK    5  A    between atoms: C_17  and  N_18
REMARK    6  A    between atoms: C_17  and  C_19
REMARK    7  A    between atoms: C_19  and  C_20
REMARK                            x       y       z     vdW  Elec       q    Type
REMARK                         _______ _______ _______ _____ _____    ______ ____
ROOT
ATOM      1  C   UNL     1       1.883   4.297  18.850  0.00  0.00    +0.000 C 
ATOM      2  C   UNL     1       0.854   4.017  19.962  0.00  0.00    +0.000 C 
ATOM      3  C   UNL     1       0.575   2.532  19.852  0.00  0.00    +0.000 C 
ATOM      4  C   UNL     1       1.869   1.953  19.313  0.00  0.00    +0.000 C 
ATOM      5  N   UNL     1       2.701   3.075  18.886  0.00  0.00    +0.000 N 
ATOM      6  C   UNL     1       3.755   2.726  18.050  0.00  0.00    +0.000 C 
ATOM      7  O   UNL     1       3.982   1.534  17.793  0.00  0.00    +0.000 OA
ENDROOT
BRANCH   1   9
ATOM      8  N   UNL     1       2.046   6.687  18.170  0.00  0.00    +0.000 N 
ATOM      9  C   UNL     1       2.375   5.736  19.113  0.00  0.00    +0.000 C 
ATOM     10  O   UNL     1       3.175   5.959  20.019  0.00  0.00    +0.000 OA
ATOM     11  H   UNL     1       1.144   6.560  17.722  0.00  0.00    +0.000 HD
BRANCH   8  12
ATOM     12  C   UNL     1       2.550   8.042  18.309  0.00  0.00    +0.000 C 
BRANCH  12  17
ATOM     13  N   UNL     1      -1.267  11.544  20.581  0.00  0.00    +0.000 N 
ATOM     14  C   UNL     1      -0.309  10.731  19.979  0.00  0.00    +0.000 A 
ATOM     15  C   UNL     1      -0.023  10.855  18.626  0.00  0.00    +0.000 A 
ATOM     16  C   UNL     1       0.917  10.003  18.047  0.00  0.00    +0.000 A 
ATOM     17  C   UNL     1       1.550   9.038  18.827  0.00  0.00    +0.000 A 
ATOM     18  C   UNL     1       1.238   9.041  20.186  0.00  0.00    +0.000 A 
ATOM     19  N   UNL     1       0.327   9.856  20.772  0.00  0.00    +0.000 NA
ATOM     20  H   UNL     1      -2.160  11.473  20.107  0.00  0.00    +0.000 HD
ATOM     21  H   UNL     1      -1.331  11.247  21.550  0.00  0.00    +0.000 HD
ENDBRANCH  12  17
ENDBRANCH   8  12
ENDBRANCH   1   9
BRANCH   6  22
ATOM     22  C   UNL     1       4.807   3.760  17.599  0.00  0.00    +0.000 C 
BRANCH  22  23
ATOM     23  N   UNL     1       5.450   3.266  16.351  0.00  0.00    +0.000 NA
ATOM     24  H   UNL     1       4.710   2.809  15.806  0.00  0.00    +0.000 HD
ATOM     25  H   UNL     1       5.713   4.080  15.793  0.00  0.00    +0.000 HD
ENDBRANCH  22  23
BRANCH  22  26
ATOM     26  C   UNL     1       5.814   4.254  18.642  0.00  0.00    +0.000 C 
BRANCH  26  27
ATOM     27  C   UNL     1       6.449   5.584  18.311  0.00  0.00    +0.000 A 
ATOM     28  C   UNL     1       5.836   6.449  17.395  0.00  0.00    +0.000 A 
ATOM     29  C   UNL     1       6.436   7.659  17.050  0.00  0.00    +0.000 A 
ATOM     30  C   UNL     1       7.646   8.029  17.634  0.00  0.00    +0.000 A 
ATOM     31  C   UNL     1       8.248   7.193  18.572  0.00  0.00    +0.000 A 
ATOM     32  C   UNL     1       7.652   5.978  18.913  0.00  0.00    +0.000 A 
ENDBRANCH  26  27
ENDBRANCH  22  26
ENDBRANCH   6  22
TORSDOF 7
ENDMDL
MODEL 4
REMARK VINA RESULT:      -7.8      1.793      2.469
REMARK  Name = 
REMARK  7 active torsions:
REMARK  status: ('A' for Active; 'I' for Inactive)
REMARK    1  A    between atoms: C_5  and  C_6
REMARK    2  A    between atoms: C_6  and  N_7
REMARK    3  A    between atoms: C_8  and  C_10
REMARK    4  A    between atoms: C_15  and  C_17
REMARK    5  A    between atoms: C_17  and  N_18
REMARK    6  A    between atoms: C_17  and  C_19
REMARK    7  A    between atoms: C_19  and  C_20
REMARK                            x       y       z     vdW  Elec       q    Type
REMARK                         _______ _______ _______ _____ _____    ______ ____
ROOT
ATOM      1  C   UNL     1       2.093   3.930  19.756  0.00  0.00    +0.000 C 
ATOM      2  C   UNL     1       1.134   3.961  20.962  0.00  0.00    +0.000 C 
ATOM      3  C   UNL     1       1.417   2.671  21.702  0.00  0.00    +0.000 C 
ATOM      4  C   UNL     1       2.877   2.388  21.405  0.00  0.00    +0.000 C 
ATOM      5  N   UNL     1       3.288   3.303  20.342  0.00  0.00    +0.000 N 
ATOM      6  C   UNL     1       4.471   2.949  19.703  0.00  0.00    +0.000 C 
ATOM      7  O   UNL     1       5.133   1.980  20.102  0.00  0.00    +0.000 OA
ENDROOT
BRANCH   1   9
ATOM      8  N   UNL     1       2.252   6.404  19.988  0.00  0.00    +0.000 N 
ATOM      9  C   UNL     1       2.010   5.343  19.141  0.00  0.00    +0.000 C 
ATOM     10  O   UNL     1       1.565   5.496  18.006  0.00  0.00    +0.000 OA
ATOM     11  H   UNL     1       2.943   6.232  20.713  0.00  0.00    +0.000 HD
BRANCH   8  12
ATOM     12  C   UNL     1       2.106   7.763  19.498  0.00  0.00    +0.000 C 
BRANCH  12  17
ATOM     13  N   UNL     1      -0.879  11.471  22.555  0.00  0.00    +0.000 N 
ATOM     14  C   UNL     1      -0.170  10.508  21.839  0.00  0.00    +0.000 A 
ATOM     15  C   UNL     1       0.288   9.357  22.464  0.00  0.00    +0.000 A 
ATOM     16  C   UNL     1       1.024   8.427  21.727  0.00  0.00    +0.000 A 
ATOM     17  C   UNL     1       1.295   8.669  20.383  0.00  0.00    +0.000 A 
ATOM     18  C   UNL     1       0.733   9.824  19.837  0.00  0.00    +0.000 A 
ATOM     19  N   UNL     1       0.018  10.741  20.532  0.00  0.00    +0.000 NA
ATOM     20  H   UNL     1      -0.355  11.789  23.361  0.00  0.00    +0.000 HD
ATOM     21  H   UNL     1      -1.071  12.230  21.906  0.00  0.00    +0.000 HD
ENDBRANCH  12  17
ENDBRANCH   8  12
ENDBRANCH   1   9
BRANCH   6  22
ATOM     22  C   UNL     1       5.119   3.861  18.641  0.00  0.00    +0.000 C 
BRANCH  22  23
ATOM     23  N   UNL     1       5.279   5.223  19.221  0.00  0.00    +0.000 NA
ATOM     24  H   UNL     1       4.331   5.580  19.385  0.00  0.00    +0.000 HD
ATOM     25  H   UNL     1       5.676   5.117  20.156  0.00  0.00    +0.000 HD
ENDBRANCH  22  23
BRANCH  22  26
ATOM     26  C   UNL     1       4.504   3.872  17.238  0.00  0.00    +0.000 C 
BRANCH  26  27
ATOM     27  C   UNL     1       5.478   4.210  16.135  0.00  0.00    +0.000 A 
ATOM     28  C   UNL     1       5.142   3.962  14.797  0.00  0.00    +0.000 A 
ATOM     29  C   UNL     1       6.052   4.230  13.775  0.00  0.00    +0.000 A 
ATOM     30  C   UNL     1       7.301   4.768  14.076  0.00  0.00    +0.000 A 
ATOM     31  C   UNL     1       7.634   5.051  15.400  0.00  0.00    +0.000 A 
ATOM     32  C   UNL     1       6.727   4.777  16.424  0.00  0.00    +0.000 A 
ENDBRANCH  26  27
ENDBRANCH  22  26
ENDBRANCH   6  22
TORSDOF 7
ENDMDL
MODEL 5
REMARK VINA RESULT:      -7.8      1.938      2.583
REMARK  Name = 
REMARK  7 active torsions:
REMARK  status: ('A' for Active; 'I' for Inactive)
REMARK    1  A    between atoms: C_5  and  C_6
REMARK    2  A    between atoms: C_6  and  N_7
REMARK    3  A    between atoms: C_8  and  C_10
REMARK    4  A    between atoms: C_15  and  C_17
REMARK    5  A    between atoms: C_17  and  N_18
REMARK    6  A    between atoms: C_17  and  C_19
REMARK    7  A    between atoms: C_19  and  C_20
REMARK                            x       y       z     vdW  Elec       q    Type
REMARK                         _______ _______ _______ _____ _____    ______ ____
ROOT
ATOM      1  C   UNL     1       2.062   3.789  19.375  0.00  0.00    +0.000 C 
ATOM      2  C   UNL     1       0.987   4.011  20.456  0.00  0.00    +0.000 C 
ATOM      3  C   UNL     1       1.228   2.903  21.460  0.00  0.00    +0.000 C 
ATOM      4  C   UNL     1       2.717   2.634  21.362  0.00  0.00    +0.000 C 
ATOM      5  N   UNL     1       3.208   3.341  20.182  0.00  0.00    +0.000 N 
ATOM      6  C   UNL     1       4.458   2.923  19.738  0.00  0.00    +0.000 C 
ATOM      7  O   UNL     1       5.101   2.080  20.380  0.00  0.00    +0.000 OA
ENDROOT
BRANCH   1   9
ATOM      8  N   UNL     1       2.624   6.182  18.977  0.00  0.00    +0.000 N 
ATOM      9  C   UNL     1       2.006   5.050  18.488  0.00  0.00    +0.000 C 
ATOM     10  O   UNL     1       1.282   5.074  17.494  0.00  0.00    +0.000 OA
ATOM     11  H   UNL     1       3.462   6.015  19.527  0.00  0.00    +0.000 HD
BRANCH   8  12
ATOM     12  C   UNL     1       2.535   7.427  18.235  0.00  0.00    +0.000 C 
BRANCH  12  17
ATOM     13  N   UNL     1      -0.729  11.152  20.967  0.00  0.00    +0.000 N 
ATOM     14  C   UNL     1       0.095  10.284  20.254  0.00  0.00    +0.000 A 
ATOM     15  C   UNL     1       0.294  10.458  18.891  0.00  0.00    +0.000 A 
ATOM     16  C   UNL     1       1.099   9.552  18.199  0.00  0.00    +0.000 A 
ATOM     17  C   UNL     1       1.682   8.485  18.878  0.00  0.00    +0.000 A 
ATOM     18  C   UNL     1       1.470   8.441  20.256  0.00  0.00    +0.000 A 
ATOM     19  N   UNL     1       0.692   9.306  20.950  0.00  0.00    +0.000 NA
ATOM     20  H   UNL     1      -1.656  11.197  20.560  0.00  0.00    +0.000 HD
ATOM     21  H   UNL     1      -0.754  10.807  21.923  0.00  0.00    +0.000 HD
ENDBRANCH  12  17
ENDBRANCH   8  12
ENDBRANCH   1   9
BRANCH   6  22
ATOM     22  C   UNL     1       5.186   3.639  18.581  0.00  0.00    +0.000 C 
BRANCH  22  23
ATOM     23  N   UNL     1       5.435   5.051  18.983  0.00  0.00    +0.000 NA
ATOM     24  H   UNL     1       5.966   5.011  19.861  0.00  0.00    +0.000 HD
ATOM     25  H   UNL     1       6.087   5.455  18.309  0.00  0.00    +0.000 HD
ENDBRANCH  22  23
BRANCH  22  26
ATOM     26  C   UNL     1       4.593   3.507  17.175  0.00  0.00    +0.000 C 
BRANCH  26  27
ATOM     27  C   UNL     1       5.505   3.984  16.070  0.00  0.00    +0.000 A 
ATOM     28  C   UNL     1       5.140   3.802  14.729  0.00  0.00    +0.000 A 
ATOM     29  C   UNL     1       5.996   4.199  13.701  0.00  0.00    +0.000 A 
ATOM     30  C   UNL     1       7.215   4.801  14.002  0.00  0.00    +0.000 A 
ATOM     31  C   UNL     1       7.574   5.018  15.331  0.00  0.00    +0.000 A 
ATOM     32  C   UNL     1       6.722   4.615  16.361  0.00  0.00    +0.000 A 
ENDBRANCH  26  27
ENDBRANCH  22  26
ENDBRANCH   6  22
TORSDOF 7
ENDMDL
MODEL 6
REMARK VINA RESULT:      -7.8      1.727      2.140
REMARK  Name = 
REMARK  7 active torsions:
REMARK  status: ('A' for Active; 'I' for Inactive)
REMARK    1  A    between atoms: C_5  and  C_6
REMARK    2  A    between atoms: C_6  and  N_7
REMARK    3  A    between atoms: C_8  and  C_10
REMARK    4  A    between atoms: C_15  and  C_17
REMARK    5  A    between atoms: C_17  and  N_18
REMARK    6  A    between atoms: C_17  and  C_19
REMARK    7  A    between atoms: C_19  and  C_20
REMARK                            x       y       z     vdW  Elec       q    Type
REMARK                         _______ _______ _______ _____ _____    ______ ____
ROOT
ATOM      1  C   UNL     1       2.085   3.908  19.636  0.00  0.00    +0.000 C 
ATOM      2  C   UNL     1       1.077   3.944  20.801  0.00  0.00    +0.000 C 
ATOM      3  C   UNL     1       1.373   2.689  21.595  0.00  0.00    +0.000 C 
ATOM      4  C   UNL     1       2.853   2.448  21.365  0.00  0.00    +0.000 C 
ATOM      5  N   UNL     1       3.275   3.342  20.290  0.00  0.00    +0.000 N 
ATOM      6  C   UNL     1       4.494   3.009  19.710  0.00  0.00    +0.000 C 
ATOM      7  O   UNL     1       5.172   2.076  20.166  0.00  0.00    +0.000 OA
ENDROOT
BRANCH   1   9
ATOM      8  N   UNL     1       2.297   6.386  19.756  0.00  0.00    +0.000 N 
ATOM      9  C   UNL     1       1.980   5.297  18.972  0.00  0.00    +0.000 C 
ATOM     10  O   UNL     1       1.458   5.413  17.865  0.00  0.00    +0.000 OA
ATOM     11  H   UNL     1       3.035   6.230  20.437  0.00  0.00    +0.000 HD
BRANCH   8  12
ATOM     12  C   UNL     1       2.137   7.727  19.223  0.00  0.00    +0.000 C 
BRANCH  12  17
ATOM     13  N   UNL     1      -0.811  10.964  22.805  0.00  0.00    +0.000 N 
ATOM     14  C   UNL     1      -0.068  10.222  21.889  0.00  0.00    +0.000 A 
ATOM     15  C   UNL     1       0.004  10.609  20.558  0.00  0.00    +0.000 A 
ATOM     16  C   UNL     1       0.729   9.826  19.658  0.00  0.00    +0.000 A 
ATOM     17  C   UNL     1       1.361   8.668  20.102  0.00  0.00    +0.000 A 
ATOM     18  C   UNL     1       1.279   8.405  21.470  0.00  0.00    +0.000 A 
ATOM     19  N   UNL     1       0.580   9.148  22.362  0.00  0.00    +0.000 NA
ATOM     20  H   UNL     1      -1.771  11.069  22.500  0.00  0.00    +0.000 HD
ATOM     21  H   UNL     1      -0.750  10.472  23.692  0.00  0.00    +0.000 HD
ENDBRANCH  12  17
ENDBRANCH   8  12
ENDBRANCH   1   9
BRANCH   6  22
ATOM     22  C   UNL     1       5.155   3.909  18.644  0.00  0.00    +0.000 C 
BRANCH  22  23
ATOM     23  N   UNL     1       5.368   5.259  19.233  0.00  0.00    +0.000 NA
ATOM     24  H   UNL     1       5.271   5.929  18.462  0.00  0.00    +0.000 HD
ATOM     25  H   UNL     1       4.577   5.459  19.847  0.00  0.00    +0.000 HD
ENDBRANCH  22  23
BRANCH  22  26
ATOM     26  C   UNL     1       4.517   3.952  17.252  0.00  0.00    +0.000 C 
BRANCH  26  27
ATOM     27  C   UNL     1       5.492   4.216  16.130  0.00  0.00    +0.000 A 
ATOM     28  C   UNL     1       6.716   4.846  16.394  0.00  0.00    +0.000 A 
ATOM     29  C   UNL     1       7.604   5.134  15.358  0.00  0.00    +0.000 A 
ATOM     30  C   UNL     1       7.289   4.777  14.049  0.00  0.00    +0.000 A 
ATOM     31  C   UNL     1       6.090   4.119  13.779  0.00  0.00    +0.000 A 
ATOM     32  C   UNL     1       5.197   3.836  14.813  0.00  0.00    +0.000 A 
ENDBRANCH  26  27
ENDBRANCH  22  26
ENDBRANCH   6  22
TORSDOF 7
ENDMDL
MODEL 7
REMARK VINA RESULT:      -7.7      1.617      1.826
REMARK  Name = 
REMARK  7 active torsions:
REMARK  status: ('A' for Active; 'I' for Inactive)
REMARK    1  A    between atoms: C_5  and  C_6
REMARK    2  A    between atoms: C_6  and  N_7
REMARK    3  A    between atoms: C_8  and  C_10
REMARK    4  A    between atoms: C_15  and  C_17
REMARK    5  A    between atoms: C_17  and  N_18
REMARK    6  A    between atoms: C_17  and  C_19
REMARK    7  A    between atoms: C_19  and  C_20
REMARK                            x       y       z     vdW  Elec       q    Type
REMARK                         _______ _______ _______ _____ _____    ______ ____
ROOT
ATOM      1  C   UNL     1       1.884   4.300  18.845  0.00  0.00    +0.000 C 
ATOM      2  C   UNL     1       0.848   4.000  19.946  0.00  0.00    +0.000 C 
ATOM      3  C   UNL     1       0.577   2.516  19.813  0.00  0.00    +0.000 C 
ATOM      4  C   UNL     1       1.877   1.950  19.277  0.00  0.00    +0.000 C 
ATOM      5  N   UNL     1       2.707   3.081  18.871  0.00  0.00    +0.000 N 
ATOM      6  C   UNL     1       3.769   2.748  18.037  0.00  0.00    +0.000 C 
ATOM      7  O   UNL     1       4.003   1.560  17.766  0.00  0.00    +0.000 OA
ENDROOT
BRANCH   1   9
ATOM      8  N   UNL     1       2.060   6.695  18.188  0.00  0.00    +0.000 N 
ATOM      9  C   UNL     1       2.368   5.737  19.131  0.00  0.00    +0.000 C 
ATOM     10  O   UNL     1       3.146   5.954  20.058  0.00  0.00    +0.000 OA
ATOM     11  H   UNL     1       1.169   6.570  17.717  0.00  0.00    +0.000 HD
BRANCH   8  12
ATOM     12  C   UNL     1       2.559   8.049  18.349  0.00  0.00    +0.000 C 
BRANCH  12  17
ATOM     13  N   UNL     1      -0.992  11.920  20.450  0.00  0.00    +0.000 N 
ATOM     14  C   UNL     1      -0.147  10.921  19.971  0.00  0.00    +0.000 A 
ATOM     15  C   UNL     1       0.257   9.881  20.797  0.00  0.00    +0.000 A 
ATOM     16  C   UNL     1       1.131   8.913  20.297  0.00  0.00    +0.000 A 
ATOM     17  C   UNL     1       1.590   9.007  18.986  0.00  0.00    +0.000 A 
ATOM     18  C   UNL     1       1.072  10.054  18.224  0.00  0.00    +0.000 A 
ATOM     19  N   UNL     1       0.225  11.006  18.686  0.00  0.00    +0.000 NA
ATOM     20  H   UNL     1      -0.606  12.362  21.276  0.00  0.00    +0.000 HD
ATOM     21  H   UNL     1      -1.113  12.584  19.690  0.00  0.00    +0.000 HD
ENDBRANCH  12  17
ENDBRANCH   8  12
ENDBRANCH   1   9
BRANCH   6  22
ATOM     22  C   UNL     1       4.820   3.793  17.608  0.00  0.00    +0.000 C 
BRANCH  22  23
ATOM     23  N   UNL     1       5.561   3.261  16.432  0.00  0.00    +0.000 NA
ATOM     24  H   UNL     1       6.302   2.659  16.806  0.00  0.00    +0.000 HD
ATOM     25  H   UNL     1       4.938   2.622  15.935  0.00  0.00    +0.000 HD
ENDBRANCH  22  23
BRANCH  22  26
ATOM     26  C   UNL     1       5.739   4.366  18.691  0.00  0.00    +0.000 C 
BRANCH  26  27
ATOM     27  C   UNL     1       6.421   5.657  18.307  0.00  0.00    +0.000 A 
ATOM     28  C   UNL     1       7.664   5.990  18.862  0.00  0.00    +0.000 A 
ATOM     29  C   UNL     1       8.281   7.200  18.547  0.00  0.00    +0.000 A 
ATOM     30  C   UNL     1       7.674   8.082  17.657  0.00  0.00    +0.000 A 
ATOM     31  C   UNL     1       6.455   7.747  17.071  0.00  0.00    +0.000 A 
ATOM     32  C   UNL     1       5.832   6.540  17.391  0.00  0.00    +0.000 A 
ENDBRANCH  26  27
ENDBRANCH  22  26
ENDBRANCH   6  22
TORSDOF 7
ENDMDL
MODEL 8
REMARK VINA RESULT:      -7.7      2.106      2.585
REMARK  Name = 
REMARK  7 active torsions:
REMARK  status: ('A' for Active; 'I' for Inactive)
REMARK    1  A    between atoms: C_5  and  C_6
REMARK    2  A    between atoms: C_6  and  N_7
REMARK    3  A    between atoms: C_8  and  C_10
REMARK    4  A    between atoms: C_15  and  C_17
REMARK    5  A    between atoms: C_17  and  N_18
REMARK    6  A    between atoms: C_17  and  C_19
REMARK    7  A    between atoms: C_19  and  C_20
REMARK                            x       y       z     vdW  Elec       q    Type
REMARK                         _______ _______ _______ _____ _____    ______ ____
ROOT
ATOM      1  C   UNL     1       2.067   3.616  19.592  0.00  0.00    +0.000 C 
ATOM      2  C   UNL     1       1.033   3.922  20.692  0.00  0.00    +0.000 C 
ATOM      3  C   UNL     1       1.217   2.808  21.702  0.00  0.00    +0.000 C 
ATOM      4  C   UNL     1       2.681   2.434  21.575  0.00  0.00    +0.000 C 
ATOM      5  N   UNL     1       3.196   3.096  20.379  0.00  0.00    +0.000 N 
ATOM      6  C   UNL     1       4.403   2.588  19.913  0.00  0.00    +0.000 C 
ATOM      7  O   UNL     1       4.999   1.707  20.550  0.00  0.00    +0.000 OA
ENDROOT
BRANCH   1   9
ATOM      8  N   UNL     1       2.694   5.995  19.206  0.00  0.00    +0.000 N 
ATOM      9  C   UNL     1       2.080   4.871  18.694  0.00  0.00    +0.000 C 
ATOM     10  O   UNL     1       1.409   4.900  17.664  0.00  0.00    +0.000 OA
ATOM     11  H   UNL     1       3.499   5.817  19.800  0.00  0.00    +0.000 HD
BRANCH   8  12
ATOM     12  C   UNL     1       2.667   7.236  18.452  0.00  0.00    +0.000 C 
BRANCH  12  17
ATOM     13  N   UNL     1      -0.345  11.588  20.448  0.00  0.00    +0.000 N 
ATOM     14  C   UNL     1       0.365  10.477  19.999  0.00  0.00    +0.000 A 
ATOM     15  C   UNL     1       0.704   9.454  20.875  0.00  0.00    +0.000 A 
ATOM     16  C   UNL     1       1.444   8.369  20.402  0.00  0.00    +0.000 A 
ATOM     17  C   UNL     1       1.838   8.330  19.067  0.00  0.00    +0.000 A 
ATOM     18  C   UNL     1       1.390   9.375  18.260  0.00  0.00    +0.000 A 
ATOM     19  N   UNL     1       0.673  10.440  18.695  0.00  0.00    +0.000 NA
ATOM     20  H   UNL     1       0.128  12.039  21.222  0.00  0.00    +0.000 HD
ATOM     21  H   UNL     1      -0.439  12.211  19.651  0.00  0.00    +0.000 HD
ENDBRANCH  12  17
ENDBRANCH   8  12
ENDBRANCH   1   9
BRANCH   6  22
ATOM     22  C   UNL     1       5.155   3.242  18.735  0.00  0.00    +0.000 C 
BRANCH  22  23
ATOM     23  N   UNL     1       5.639   4.581  19.170  0.00  0.00    +0.000 NA
ATOM     24  H   UNL     1       4.853   5.028  19.655  0.00  0.00    +0.000 HD
ATOM     25  H   UNL     1       6.340   4.437  19.898  0.00  0.00    +0.000 HD
ENDBRANCH  22  23
BRANCH  22  26
ATOM     26  C   UNL     1       4.460   3.264  17.370  0.00  0.00    +0.000 C 
BRANCH  26  27
ATOM     27  C   UNL     1       5.159   4.109  16.332  0.00  0.00    +0.000 A 
ATOM     28  C   UNL     1       4.871   5.476  16.226  0.00  0.00    +0.000 A 
ATOM     29  C   UNL     1       5.478   6.255  15.242  0.00  0.00    +0.000 A 
ATOM     30  C   UNL     1       6.397   5.681  14.366  0.00  0.00    +0.000 A 
ATOM     31  C   UNL     1       6.718   4.330  14.483  0.00  0.00    +0.000 A 
ATOM     32  C   UNL     1       6.105   3.548  15.463  0.00  0.00    +0.000 A 
ENDBRANCH  26  27
ENDBRANCH  22  26
ENDBRANCH   6  22
TORSDOF 7
ENDMDL
MODEL 9
REMARK VINA RESULT:      -7.7      1.829      2.327
REMARK  Name = 
REMARK  7 active torsions:
REMARK  status: ('A' for Active; 'I' for Inactive)
REMARK    1  A    between atoms: C_5  and  C_6
REMARK    2  A    between atoms: C_6  and  N_7
REMARK    3  A    between atoms: C_8  and  C_10
REMARK    4  A    between atoms: C_15  and  C_17
REMARK    5  A    between atoms: C_17  and  N_18
REMARK    6  A    between atoms: C_17  and  C_19
REMARK    7  A    between atoms: C_19  and  C_20
REMARK                            x       y       z     vdW  Elec       q    Type
REMARK                         _______ _______ _______ _____ _____    ______ ____
ROOT
ATOM      1  C   UNL     1       2.158   4.288  19.657  0.00  0.00    +0.000 C 
ATOM      2  C   UNL     1       1.198   4.226  20.861  0.00  0.00    +0.000 C 
ATOM      3  C   UNL     1       1.400   2.839  21.433  0.00  0.00    +0.000 C 
ATOM      4  C   UNL     1       2.841   2.508  21.097  0.00  0.00    +0.000 C 
ATOM      5  N   UNL     1       3.310   3.522  20.156  0.00  0.00    +0.000 N 
ATOM      6  C   UNL     1       4.472   3.181  19.473  0.00  0.00    +0.000 C 
ATOM      7  O   UNL     1       5.073   2.130  19.745  0.00  0.00    +0.000 OA
ENDROOT
BRANCH   1   9
ATOM      8  N   UNL     1       2.028   6.709  20.224  0.00  0.00    +0.000 N 
ATOM      9  C   UNL     1       2.162   5.769  19.224  0.00  0.00    +0.000 C 
ATOM     10  O   UNL     1       2.098   6.063  18.032  0.00  0.00    +0.000 OA
ATOM     11  H   UNL     1       2.459   6.464  21.111  0.00  0.00    +0.000 HD
BRANCH   8  12
ATOM     12  C   UNL     1       1.937   8.117  19.879  0.00  0.00    +0.000 C 
BRANCH  12  17
ATOM     13  N   UNL     1      -1.286  11.497  23.071  0.00  0.00    +0.000 N 
ATOM     14  C   UNL     1      -0.535  10.615  22.298  0.00  0.00    +0.000 A 
ATOM     15  C   UNL     1      -0.445   9.273  22.642  0.00  0.00    +0.000 A 
ATOM     16  C   UNL     1       0.343   8.421  21.866  0.00  0.00    +0.000 A 
ATOM     17  C   UNL     1       1.031   8.926  20.766  0.00  0.00    +0.000 A 
ATOM     18  C   UNL     1       0.820  10.273  20.471  0.00  0.00    +0.000 A 
ATOM     19  N   UNL     1       0.063  11.120  21.210  0.00  0.00    +0.000 NA
ATOM     20  H   UNL     1      -0.986  11.484  24.039  0.00  0.00    +0.000 HD
ATOM     21  H   UNL     1      -1.170  12.416  22.654  0.00  0.00    +0.000 HD
ENDBRANCH  12  17
ENDBRANCH   8  12
ENDBRANCH   1   9
BRANCH   6  22
ATOM     22  C   UNL     1       5.178   4.177  18.530  0.00  0.00    +0.000 C 
BRANCH  22  23
ATOM     23  N   UNL     1       5.517   5.401  19.306  0.00  0.00    +0.000 NA
ATOM     24  H   UNL     1       5.539   6.174  18.631  0.00  0.00    +0.000 HD
ATOM     25  H   UNL     1       4.723   5.615  19.912  0.00  0.00    +0.000 HD
ENDBRANCH  22  23
BRANCH  22  26
ATOM     26  C   UNL     1       4.512   4.481  17.184  0.00  0.00    +0.000 C 
BRANCH  26  27
ATOM     27  C   UNL     1       5.466   4.517  16.014  0.00  0.00    +0.000 A 
ATOM     28  C   UNL     1       6.698   5.174  16.130  0.00  0.00    +0.000 A 
ATOM     29  C   UNL     1       7.566   5.251  15.041  0.00  0.00    +0.000 A 
ATOM     30  C   UNL     1       7.222   4.654  13.830  0.00  0.00    +0.000 A 
ATOM     31  C   UNL     1       6.014   3.969  13.713  0.00  0.00    +0.000 A 
ATOM     32  C   UNL     1       5.141   3.897  14.799  0.00  0.00    +0.000 A 
ENDBRANCH  26  27
ENDBRANCH  22  26
ENDBRANCH   6  22
TORSDOF 7
ENDMDL
