MODEL 1
REMARK VINA RESULT:      -8.3      0.000      0.000
REMARK  Name = 
REMARK  13 active torsions:
REMARK  status: ('A' for Active; 'I' for Inactive)
REMARK    1  A    between atoms: C_1  and  C_2
REMARK    2  A    between atoms: C_4  and  N_5
REMARK    3  A    between atoms: N_6  and  C_7
REMARK    4  A    between atoms: C_15  and  O_16
REMARK    5  A    between atoms: O_16  and  C_17
REMARK    6  A    between atoms: C_17  and  C_18
REMARK    7  A    between atoms: C_18  and  C_19
REMARK    8  A    between atoms: C_22  and  O_23
REMARK    9  A    between atoms: O_23  and  C_24
REMARK   10  A    between atoms: C_24  and  C_25
REMARK   11  A    between atoms: C_24  and  C_26
REMARK   12  A    between atoms: C_24  and  C_27
REMARK   13  A    between atoms: C_27  and  O_29
REMARK                            x       y       z     vdW  Elec       q    Type
REMARK                         _______ _______ _______ _____ _____    ______ ____
ROOT
ATOM      1  O   UNL     1       0.839   7.519  21.274  0.00  0.00    +0.000 OA
ENDROOT
BRANCH   1   8
ATOM      2  C   UNL     1      -0.290   9.703  22.875  0.00  0.00    +0.000 C 
ATOM      3  C   UNL     1       0.192   9.842  21.456  0.00  0.00    +0.000 A 
ATOM      4  C   UNL     1       0.017  11.103  20.841  0.00  0.00    +0.000 A 
ATOM      5  C   UNL     1       0.383  11.331  19.513  0.00  0.00    +0.000 A 
ATOM      6  C   UNL     1       1.108  10.340  18.864  0.00  0.00    +0.000 A 
ATOM      7  C   UNL     1       1.348   9.111  19.476  0.00  0.00    +0.000 A 
ATOM      8  C   UNL     1       0.811   8.802  20.737  0.00  0.00    +0.000 A 
BRANCH   5   9
ATOM      9  N   UNL     1       0.150  12.530  18.822  0.00  0.00    +0.000 NA
ATOM     10  N   UNL     1      -0.851  12.733  18.094  0.00  0.00    +0.000 NA
BRANCH  10  11
ATOM     11  C   UNL     1      -1.947  11.854  17.978  0.00  0.00    +0.000 A 
ATOM     12  C   UNL     1      -3.096  12.158  18.725  0.00  0.00    +0.000 A 
ATOM     13  C   UNL     1      -4.258  11.392  18.612  0.00  0.00    +0.000 A 
ATOM     14  C   UNL     1      -4.285  10.298  17.751  0.00  0.00    +0.000 A 
ATOM     15  C   UNL     1      -3.156   9.984  16.995  0.00  0.00    +0.000 A 
ATOM     16  C   UNL     1      -2.005  10.774  17.088  0.00  0.00    +0.000 A 
ENDBRANCH  10  11
ENDBRANCH   5   9
ENDBRANCH   1   8
BRANCH   1  17
ATOM     17  C   UNL     1       1.878   6.685  20.720  0.00  0.00    +0.000 C 
BRANCH  17  18
ATOM     18  C   UNL     1       1.489   5.246  20.359  0.00  0.00    +0.000 C 
BRANCH  18  19
ATOM     19  C   UNL     1       2.514   4.714  19.360  0.00  0.00    +0.000 A 
ATOM     20  C   UNL     1       3.885   4.936  19.526  0.00  0.00    +0.000 A 
ATOM     21  C   UNL     1       4.803   4.560  18.526  0.00  0.00    +0.000 A 
ATOM     22  C   UNL     1       4.380   3.937  17.347  0.00  0.00    +0.000 A 
ATOM     23  C   UNL     1       3.014   3.719  17.185  0.00  0.00    +0.000 A 
ATOM     24  C   UNL     1       2.093   4.104  18.173  0.00  0.00    +0.000 A 
BRANCH  22  25
ATOM     25  O   UNL     1       5.362   3.661  16.431  0.00  0.00    +0.000 OA
BRANCH  25  26
ATOM     26  C   UNL     1       5.964   4.693  15.608  0.00  0.00    +0.000 C 
ATOM     27  C   UNL     1       6.449   4.150  14.262  0.00  0.00    +0.000 C 
ATOM     28  C   UNL     1       5.111   5.967  15.524  0.00  0.00    +0.000 C 
BRANCH  26  29
ATOM     29  C   UNL     1       7.251   5.155  16.342  0.00  0.00    +0.000 C 
ATOM     30  O   UNL     1       7.618   6.311  16.436  0.00  0.00    +0.000 OA
BRANCH  29  31
ATOM     31  O   UNL     1       7.954   4.136  16.899  0.00  0.00    +0.000 OA
ATOM     32  H   UNL     1       8.219   3.508  16.190  0.00  0.00    +0.000 HD
ENDBRANCH  29  31
ENDBRANCH  26  29
ENDBRANCH  25  26
ENDBRANCH  22  25
ENDBRANCH  18  19
ENDBRANCH  17  18
ENDBRANCH   1  17
TORSDOF 10
ENDMDL
MODEL 2
REMARK VINA RESULT:      -7.9      0.609      1.300
REMARK  Name = 
REMARK  13 active torsions:
REMARK  status: ('A' for Active; 'I' for Inactive)
REMARK    1  A    between atoms: C_1  and  C_2
REMARK    2  A    between atoms: C_4  and  N_5
REMARK    3  A    between atoms: N_6  and  C_7
REMARK    4  A    between atoms: C_15  and  O_16
REMARK    5  A    between atoms: O_16  and  C_17
REMARK    6  A    between atoms: C_17  and  C_18
REMARK    7  A    between atoms: C_18  and  C_19
REMARK    8  A    between atoms: C_22  and  O_23
REMARK    9  A    between atoms: O_23  and  C_24
REMARK   10  A    between atoms: C_24  and  C_25
REMARK   11  A    between atoms: C_24  and  C_26
REMARK   12  A    between atoms: C_24  and  C_27
REMARK   13  A    between atoms: C_27  and  O_29
REMARK                            x       y       z     vdW  Elec       q    Type
REMARK                         _______ _______ _______ _____ _____    ______ ____
ROOT
ATOM      1  O   UNL     1       0.593   7.302  21.098  0.00  0.00    +0.000 OA
ENDROOT
BRANCH   1   8
ATOM      2  C   UNL     1       0.228   9.518  22.987  0.00  0.00    +0.000 C 
ATOM      3  C   UNL     1       0.587   9.681  21.535  0.00  0.00    +0.000 A 
ATOM      4  C   UNL     1       0.684  11.004  21.043  0.00  0.00    +0.000 A 
ATOM      5  C   UNL     1       0.964  11.271  19.702  0.00  0.00    +0.000 A 
ATOM      6  C   UNL     1       1.342  10.205  18.896  0.00  0.00    +0.000 A 
ATOM      7  C   UNL     1       1.315   8.898  19.379  0.00  0.00    +0.000 A 
ATOM      8  C   UNL     1       0.844   8.601  20.669  0.00  0.00    +0.000 A 
BRANCH   5   9
ATOM      9  N   UNL     1       0.982  12.557  19.139  0.00  0.00    +0.000 NA
ATOM     10  N   UNL     1      -0.025  13.111  18.634  0.00  0.00    +0.000 NA
BRANCH  10  11
ATOM     11  C   UNL     1      -1.334  12.593  18.687  0.00  0.00    +0.000 A 
ATOM     12  C   UNL     1      -2.136  12.982  19.771  0.00  0.00    +0.000 A 
ATOM     13  C   UNL     1      -3.472  12.586  19.865  0.00  0.00    +0.000 A 
ATOM     14  C   UNL     1      -4.026  11.780  18.874  0.00  0.00    +0.000 A 
ATOM     15  C   UNL     1      -3.248  11.388  17.786  0.00  0.00    +0.000 A 
ATOM     16  C   UNL     1      -1.920  11.815  17.679  0.00  0.00    +0.000 A 
ENDBRANCH  10  11
ENDBRANCH   5   9
ENDBRANCH   1   8
BRANCH   1  17
ATOM     17  C   UNL     1       1.750   6.443  21.044  0.00  0.00    +0.000 C 
BRANCH  17  18
ATOM     18  C   UNL     1       1.531   5.021  20.512  0.00  0.00    +0.000 C 
BRANCH  18  19
ATOM     19  C   UNL     1       2.519   4.785  19.372  0.00  0.00    +0.000 A 
ATOM     20  C   UNL     1       2.109   4.261  18.141  0.00  0.00    +0.000 A 
ATOM     21  C   UNL     1       3.052   3.920  17.152  0.00  0.00    +0.000 A 
ATOM     22  C   UNL     1       4.424   4.110  17.358  0.00  0.00    +0.000 A 
ATOM     23  C   UNL     1       4.828   4.630  18.584  0.00  0.00    +0.000 A 
ATOM     24  C   UNL     1       3.892   4.960  19.579  0.00  0.00    +0.000 A 
BRANCH  22  25
ATOM     25  O   UNL     1       5.243   3.697  16.340  0.00  0.00    +0.000 OA
BRANCH  25  26
ATOM     26  C   UNL     1       5.957   4.633  15.493  0.00  0.00    +0.000 C 
ATOM     27  C   UNL     1       6.404   3.997  14.175  0.00  0.00    +0.000 C 
ATOM     28  C   UNL     1       5.237   5.982  15.350  0.00  0.00    +0.000 C 
BRANCH  26  29
ATOM     29  C   UNL     1       7.273   4.992  16.233  0.00  0.00    +0.000 C 
ATOM     30  O   UNL     1       8.012   4.184  16.764  0.00  0.00    +0.000 OA
BRANCH  29  31
ATOM     31  O   UNL     1       7.551   6.320  16.235  0.00  0.00    +0.000 OA
ATOM     32  H   UNL     1       7.802   6.593  15.323  0.00  0.00    +0.000 HD
ENDBRANCH  29  31
ENDBRANCH  26  29
ENDBRANCH  25  26
ENDBRANCH  22  25
ENDBRANCH  18  19
ENDBRANCH  17  18
ENDBRANCH   1  17
TORSDOF 10
ENDMDL
MODEL 3
REMARK VINA RESULT:      -7.9      1.235      2.185
REMARK  Name = 
REMARK  13 active torsions:
REMARK  status: ('A' for Active; 'I' for Inactive)
REMARK    1  A    between atoms: C_1  and  C_2
REMARK    2  A    between atoms: C_4  and  N_5
REMARK    3  A    between atoms: N_6  and  C_7
REMARK    4  A    between atoms: C_15  and  O_16
REMARK    5  A    between atoms: O_16  and  C_17
REMARK    6  A    between atoms: C_17  and  C_18
REMARK    7  A    between atoms: C_18  and  C_19
REMARK    8  A    between atoms: C_22  and  O_23
REMARK    9  A    between atoms: O_23  and  C_24
REMARK   10  A    between atoms: C_24  and  C_25
REMARK   11  A    between atoms: C_24  and  C_26
REMARK   12  A    between atoms: C_24  and  C_27
REMARK   13  A    between atoms: C_27  and  O_29
REMARK                            x       y       z     vdW  Elec       q    Type
REMARK                         _______ _______ _______ _____ _____    ______ ____
ROOT
ATOM      1  O   UNL     1       2.272   6.718  20.096  0.00  0.00    +0.000 OA
ENDROOT
BRANCH   1   8
ATOM      2  C   UNL     1       2.654   8.058  17.514  0.00  0.00    +0.000 C 
ATOM      3  C   UNL     1       1.921   8.652  18.687  0.00  0.00    +0.000 A 
ATOM      4  C   UNL     1       1.449   9.977  18.543  0.00  0.00    +0.000 A 
ATOM      5  C   UNL     1       0.798  10.643  19.584  0.00  0.00    +0.000 A 
ATOM      6  C   UNL     1       0.447   9.903  20.705  0.00  0.00    +0.000 A 
ATOM      7  C   UNL     1       0.848   8.575  20.839  0.00  0.00    +0.000 A 
ATOM      8  C   UNL     1       1.673   7.956  19.885  0.00  0.00    +0.000 A 
BRANCH   5   9
ATOM      9  N   UNL     1       0.390  11.985  19.531  0.00  0.00    +0.000 NA
ATOM     10  N   UNL     1      -0.590  12.391  18.861  0.00  0.00    +0.000 NA
BRANCH  10  11
ATOM     11  C   UNL     1      -1.500  11.553  18.187  0.00  0.00    +0.000 A 
ATOM     12  C   UNL     1      -1.666  11.761  16.809  0.00  0.00    +0.000 A 
ATOM     13  C   UNL     1      -2.484  10.928  16.042  0.00  0.00    +0.000 A 
ATOM     14  C   UNL     1      -3.160   9.872  16.649  0.00  0.00    +0.000 A 
ATOM     15  C   UNL     1      -3.002   9.644  18.016  0.00  0.00    +0.000 A 
ATOM     16  C   UNL     1      -2.155  10.462  18.773  0.00  0.00    +0.000 A 
ENDBRANCH  10  11
ENDBRANCH   5   9
ENDBRANCH   1   8
BRANCH   1  17
ATOM     17  C   UNL     1       1.558   5.884  21.032  0.00  0.00    +0.000 C 
BRANCH  17  18
ATOM     18  C   UNL     1       1.397   4.406  20.657  0.00  0.00    +0.000 C 
BRANCH  18  19
ATOM     19  C   UNL     1       2.361   4.099  19.513  0.00  0.00    +0.000 A 
ATOM     20  C   UNL     1       3.707   3.797  19.748  0.00  0.00    +0.000 A 
ATOM     21  C   UNL     1       4.611   3.654  18.677  0.00  0.00    +0.000 A 
ATOM     22  C   UNL     1       4.193   3.790  17.348  0.00  0.00    +0.000 A 
ATOM     23  C   UNL     1       2.853   4.091  17.119  0.00  0.00    +0.000 A 
ATOM     24  C   UNL     1       1.950   4.248  18.184  0.00  0.00    +0.000 A 
BRANCH  22  25
ATOM     25  O   UNL     1       5.175   3.674  16.399  0.00  0.00    +0.000 OA
BRANCH  25  26
ATOM     26  C   UNL     1       6.144   4.725  16.157  0.00  0.00    +0.000 C 
ATOM     27  C   UNL     1       5.502   6.114  16.152  0.00  0.00    +0.000 C 
ATOM     28  C   UNL     1       7.401   4.595  17.028  0.00  0.00    +0.000 C 
BRANCH  26  29
ATOM     29  C   UNL     1       6.672   4.521  14.711  0.00  0.00    +0.000 C 
ATOM     30  O   UNL     1       6.275   3.667  13.942  0.00  0.00    +0.000 OA
BRANCH  29  31
ATOM     31  O   UNL     1       7.637   5.408  14.355  0.00  0.00    +0.000 OA
ATOM     32  H   UNL     1       7.580   6.193  14.944  0.00  0.00    +0.000 HD
ENDBRANCH  29  31
ENDBRANCH  26  29
ENDBRANCH  25  26
ENDBRANCH  22  25
ENDBRANCH  18  19
ENDBRANCH  17  18
ENDBRANCH   1  17
TORSDOF 10
ENDMDL
MODEL 4
REMARK VINA RESULT:      -7.8      0.637      1.668
REMARK  Name = 
REMARK  13 active torsions:
REMARK  status: ('A' for Active; 'I' for Inactive)
REMARK    1  A    between atoms: C_1  and  C_2
REMARK    2  A    between atoms: C_4  and  N_5
REMARK    3  A    between atoms: N_6  and  C_7
REMARK    4  A    between atoms: C_15  and  O_16
REMARK    5  A    between atoms: O_16  and  C_17
REMARK    6  A    between atoms: C_17  and  C_18
REMARK    7  A    between atoms: C_18  and  C_19
REMARK    8  A    between atoms: C_22  and  O_23
REMARK    9  A    between atoms: O_23  and  C_24
REMARK   10  A    between atoms: C_24  and  C_25
REMARK   11  A    between atoms: C_24  and  C_26
REMARK   12  A    between atoms: C_24  and  C_27
REMARK   13  A    between atoms: C_27  and  O_29
REMARK                            x       y       z     vdW  Elec       q    Type
REMARK                         _______ _______ _______ _____ _____    ______ ____
ROOT
ATOM      1  O   UNL     1       2.001   7.607  20.554  0.00  0.00    +0.000 OA
ENDROOT
BRANCH   1   8
ATOM      2  C   UNL     1       2.303   8.768  17.876  0.00  0.00    +0.000 C 
ATOM      3  C   UNL     1       1.561   9.417  19.013  0.00  0.00    +0.000 A 
ATOM      4  C   UNL     1       1.036  10.710  18.779  0.00  0.00    +0.000 A 
ATOM      5  C   UNL     1       0.372  11.426  19.778  0.00  0.00    +0.000 A 
ATOM      6  C   UNL     1       0.062  10.757  20.955  0.00  0.00    +0.000 A 
ATOM      7  C   UNL     1       0.515   9.458  21.180  0.00  0.00    +0.000 A 
ATOM      8  C   UNL     1       1.353   8.803  20.262  0.00  0.00    +0.000 A 
BRANCH   5   9
ATOM      9  N   UNL     1      -0.088  12.744  19.634  0.00  0.00    +0.000 NA
ATOM     10  N   UNL     1      -1.158  13.050  19.053  0.00  0.00    +0.000 NA
BRANCH  10  11
ATOM     11  C   UNL     1      -2.113  12.122  18.594  0.00  0.00    +0.000 A 
ATOM     12  C   UNL     1      -3.366  12.124  19.225  0.00  0.00    +0.000 A 
ATOM     13  C   UNL     1      -4.402  11.297  18.785  0.00  0.00    +0.000 A 
ATOM     14  C   UNL     1      -4.195  10.443  17.705  0.00  0.00    +0.000 A 
ATOM     15  C   UNL     1      -2.959  10.430  17.061  0.00  0.00    +0.000 A 
ATOM     16  C   UNL     1      -1.935  11.284  17.485  0.00  0.00    +0.000 A 
ENDBRANCH  10  11
ENDBRANCH   5   9
ENDBRANCH   1   8
BRANCH   1  17
ATOM     17  C   UNL     1       1.105   6.487  20.707  0.00  0.00    +0.000 C 
BRANCH  17  18
ATOM     18  C   UNL     1       1.748   5.106  20.884  0.00  0.00    +0.000 C 
BRANCH  18  19
ATOM     19  C   UNL     1       2.667   4.855  19.690  0.00  0.00    +0.000 A 
ATOM     20  C   UNL     1       2.177   4.359  18.477  0.00  0.00    +0.000 A 
ATOM     21  C   UNL     1       3.056   4.002  17.436  0.00  0.00    +0.000 A 
ATOM     22  C   UNL     1       4.441   4.149  17.571  0.00  0.00    +0.000 A 
ATOM     23  C   UNL     1       4.925   4.643  18.779  0.00  0.00    +0.000 A 
ATOM     24  C   UNL     1       4.053   4.987  19.826  0.00  0.00    +0.000 A 
BRANCH  22  25
ATOM     25  O   UNL     1       5.193   3.725  16.506  0.00  0.00    +0.000 OA
BRANCH  25  26
ATOM     26  C   UNL     1       5.802   4.652  15.571  0.00  0.00    +0.000 C 
ATOM     27  C   UNL     1       6.167   3.980  14.245  0.00  0.00    +0.000 C 
ATOM     28  C   UNL     1       5.024   5.968  15.437  0.00  0.00    +0.000 C 
BRANCH  26  29
ATOM     29  C   UNL     1       7.159   5.083  16.189  0.00  0.00    +0.000 C 
ATOM     30  O   UNL     1       7.528   6.235  16.315  0.00  0.00    +0.000 OA
BRANCH  29  31
ATOM     31  O   UNL     1       7.923   4.040  16.603  0.00  0.00    +0.000 OA
ATOM     32  H   UNL     1       7.660   3.235  16.102  0.00  0.00    +0.000 HD
ENDBRANCH  29  31
ENDBRANCH  26  29
ENDBRANCH  25  26
ENDBRANCH  22  25
ENDBRANCH  18  19
ENDBRANCH  17  18
ENDBRANCH   1  17
TORSDOF 10
ENDMDL
MODEL 5
REMARK VINA RESULT:      -7.7      3.741      9.211
REMARK  Name = 
REMARK  13 active torsions:
REMARK  status: ('A' for Active; 'I' for Inactive)
REMARK    1  A    between atoms: C_1  and  C_2
REMARK    2  A    between atoms: C_4  and  N_5
REMARK    3  A    between atoms: N_6  and  C_7
REMARK    4  A    between atoms: C_15  and  O_16
REMARK    5  A    between atoms: O_16  and  C_17
REMARK    6  A    between atoms: C_17  and  C_18
REMARK    7  A    between atoms: C_18  and  C_19
REMARK    8  A    between atoms: C_22  and  O_23
REMARK    9  A    between atoms: O_23  and  C_24
REMARK   10  A    between atoms: C_24  and  C_25
REMARK   11  A    between atoms: C_24  and  C_26
REMARK   12  A    between atoms: C_24  and  C_27
REMARK   13  A    between atoms: C_27  and  O_29
REMARK                            x       y       z     vdW  Elec       q    Type
REMARK                         _______ _______ _______ _____ _____    ______ ____
ROOT
ATOM      1  O   UNL     1       1.966   7.168  21.270  0.00  0.00    +0.000 OA
ENDROOT
BRANCH   1   8
ATOM      2  C   UNL     1       2.124   4.239  21.366  0.00  0.00    +0.000 C 
ATOM      3  C   UNL     1       2.496   5.078  20.174  0.00  0.00    +0.000 A 
ATOM      4  C   UNL     1       3.023   4.398  19.051  0.00  0.00    +0.000 A 
ATOM      5  C   UNL     1       3.446   5.081  17.909  0.00  0.00    +0.000 A 
ATOM      6  C   UNL     1       3.153   6.436  17.821  0.00  0.00    +0.000 A 
ATOM      7  C   UNL     1       2.574   7.114  18.892  0.00  0.00    +0.000 A 
ATOM      8  C   UNL     1       2.328   6.475  20.119  0.00  0.00    +0.000 A 
BRANCH   5   9
ATOM      9  N   UNL     1       4.060   4.471  16.805  0.00  0.00    +0.000 NA
ATOM     10  N   UNL     1       5.241   4.703  16.447  0.00  0.00    +0.000 NA
BRANCH  10  11
ATOM     11  C   UNL     1       6.157   5.488  17.174  0.00  0.00    +0.000 A 
ATOM     12  C   UNL     1       6.812   4.877  18.254  0.00  0.00    +0.000 A 
ATOM     13  C   UNL     1       7.797   5.551  18.981  0.00  0.00    +0.000 A 
ATOM     14  C   UNL     1       8.135   6.858  18.642  0.00  0.00    +0.000 A 
ATOM     15  C   UNL     1       7.500   7.481  17.568  0.00  0.00    +0.000 A 
ATOM     16  C   UNL     1       6.539   6.790  16.822  0.00  0.00    +0.000 A 
ENDBRANCH  10  11
ENDBRANCH   5   9
ENDBRANCH   1   8
BRANCH   1  17
ATOM     17  C   UNL     1       0.766   7.954  21.116  0.00  0.00    +0.000 C 
BRANCH  17  18
ATOM     18  C   UNL     1       0.911   9.473  21.276  0.00  0.00    +0.000 C 
BRANCH  18  19
ATOM     19  C   UNL     1       0.086  10.146  20.182  0.00  0.00    +0.000 A 
ATOM     20  C   UNL     1      -0.875  11.118  20.478  0.00  0.00    +0.000 A 
ATOM     21  C   UNL     1      -1.722  11.626  19.474  0.00  0.00    +0.000 A 
ATOM     22  C   UNL     1      -1.618  11.192  18.147  0.00  0.00    +0.000 A 
ATOM     23  C   UNL     1      -0.661  10.224  17.856  0.00  0.00    +0.000 A 
ATOM     24  C   UNL     1       0.176   9.704  18.857  0.00  0.00    +0.000 A 
BRANCH  22  25
ATOM     25  O   UNL     1      -2.528  11.727  17.271  0.00  0.00    +0.000 OA
BRANCH  25  26
ATOM     26  C   UNL     1      -3.730  11.018  16.877  0.00  0.00    +0.000 C 
ATOM     27  C   UNL     1      -3.913   9.712  17.654  0.00  0.00    +0.000 C 
ATOM     28  C   UNL     1      -4.971  11.921  16.827  0.00  0.00    +0.000 C 
BRANCH  26  29
ATOM     29  C   UNL     1      -3.528  10.582  15.401  0.00  0.00    +0.000 C 
ATOM     30  O   UNL     1      -2.458  10.571  14.822  0.00  0.00    +0.000 OA
BRANCH  29  31
ATOM     31  O   UNL     1      -4.675  10.193  14.788  0.00  0.00    +0.000 OA
ATOM     32  H   UNL     1      -5.013   9.383  15.232  0.00  0.00    +0.000 HD
ENDBRANCH  29  31
ENDBRANCH  26  29
ENDBRANCH  25  26
ENDBRANCH  22  25
ENDBRANCH  18  19
ENDBRANCH  17  18
ENDBRANCH   1  17
TORSDOF 10
ENDMDL
MODEL 6
REMARK VINA RESULT:      -7.7      6.792      9.831
REMARK  Name = 
REMARK  13 active torsions:
REMARK  status: ('A' for Active; 'I' for Inactive)
REMARK    1  A    between atoms: C_1  and  C_2
REMARK    2  A    between atoms: C_4  and  N_5
REMARK    3  A    between atoms: N_6  and  C_7
REMARK    4  A    between atoms: C_15  and  O_16
REMARK    5  A    between atoms: O_16  and  C_17
REMARK    6  A    between atoms: C_17  and  C_18
REMARK    7  A    between atoms: C_18  and  C_19
REMARK    8  A    between atoms: C_22  and  O_23
REMARK    9  A    between atoms: O_23  and  C_24
REMARK   10  A    between atoms: C_24  and  C_25
REMARK   11  A    between atoms: C_24  and  C_26
REMARK   12  A    between atoms: C_24  and  C_27
REMARK   13  A    between atoms: C_27  and  O_29
REMARK                            x       y       z     vdW  Elec       q    Type
REMARK                         _______ _______ _______ _____ _____    ______ ____
ROOT
ATOM      1  O   UNL     1       8.040   7.473  17.047  0.00  0.00    +0.000 OA
ENDROOT
BRANCH   1   8
ATOM      2  C   UNL     1       7.956   5.671  19.361  0.00  0.00    +0.000 C 
ATOM      3  C   UNL     1       7.014   5.605  18.190  0.00  0.00    +0.000 A 
ATOM      4  C   UNL     1       6.071   4.550  18.185  0.00  0.00    +0.000 A 
ATOM      5  C   UNL     1       5.181   4.365  17.124  0.00  0.00    +0.000 A 
ATOM      6  C   UNL     1       5.109   5.361  16.159  0.00  0.00    +0.000 A 
ATOM      7  C   UNL     1       5.987   6.443  16.181  0.00  0.00    +0.000 A 
ATOM      8  C   UNL     1       7.016   6.535  17.133  0.00  0.00    +0.000 A 
BRANCH   5   9
ATOM      9  N   UNL     1       4.289   3.286  17.021  0.00  0.00    +0.000 NA
ATOM     10  N   UNL     1       3.313   3.112  17.791  0.00  0.00    +0.000 NA
BRANCH  10  11
ATOM     11  C   UNL     1       2.890   4.035  18.767  0.00  0.00    +0.000 A 
ATOM     12  C   UNL     1       2.413   5.275  18.316  0.00  0.00    +0.000 A 
ATOM     13  C   UNL     1       1.896   6.221  19.204  0.00  0.00    +0.000 A 
ATOM     14  C   UNL     1       1.857   5.942  20.567  0.00  0.00    +0.000 A 
ATOM     15  C   UNL     1       2.320   4.714  21.035  0.00  0.00    +0.000 A 
ATOM     16  C   UNL     1       2.806   3.756  20.138  0.00  0.00    +0.000 A 
ENDBRANCH  10  11
ENDBRANCH   5   9
ENDBRANCH   1   8
BRANCH   1  17
ATOM     17  C   UNL     1       7.726   8.728  17.684  0.00  0.00    +0.000 C 
BRANCH  17  18
ATOM     18  C   UNL     1       8.730   9.246  18.723  0.00  0.00    +0.000 C 
BRANCH  18  19
ATOM     19  C   UNL     1       9.193  10.633  18.285  0.00  0.00    +0.000 A 
ATOM     20  C   UNL     1      10.522  11.045  18.431  0.00  0.00    +0.000 A 
ATOM     21  C   UNL     1      10.900  12.372  18.152  0.00  0.00    +0.000 A 
ATOM     22  C   UNL     1       9.970  13.315  17.702  0.00  0.00    +0.000 A 
ATOM     23  C   UNL     1       8.648  12.902  17.558  0.00  0.00    +0.000 A 
ATOM     24  C   UNL     1       8.262  11.583  17.848  0.00  0.00    +0.000 A 
BRANCH  22  25
ATOM     25  O   UNL     1      10.451  14.584  17.508  0.00  0.00    +0.000 OA
BRANCH  25  26
ATOM     26  C   UNL     1      10.098  15.687  18.383  0.00  0.00    +0.000 C 
ATOM     27  C   UNL     1       8.796  16.369  17.956  0.00  0.00    +0.000 C 
ATOM     28  C   UNL     1      10.181  15.322  19.872  0.00  0.00    +0.000 C 
BRANCH  26  29
ATOM     29  C   UNL     1      11.197  16.768  18.203  0.00  0.00    +0.000 C 
ATOM     30  O   UNL     1      11.527  17.251  17.137  0.00  0.00    +0.000 OA
BRANCH  29  31
ATOM     31  O   UNL     1      11.774  17.155  19.370  0.00  0.00    +0.000 OA
ATOM     32  H   UNL     1      11.391  18.019  19.643  0.00  0.00    +0.000 HD
ENDBRANCH  29  31
ENDBRANCH  26  29
ENDBRANCH  25  26
ENDBRANCH  22  25
ENDBRANCH  18  19
ENDBRANCH  17  18
ENDBRANCH   1  17
TORSDOF 10
ENDMDL
MODEL 7
REMARK VINA RESULT:      -7.6      0.988      1.808
REMARK  Name = 
REMARK  13 active torsions:
REMARK  status: ('A' for Active; 'I' for Inactive)
REMARK    1  A    between atoms: C_1  and  C_2
REMARK    2  A    between atoms: C_4  and  N_5
REMARK    3  A    between atoms: N_6  and  C_7
REMARK    4  A    between atoms: C_15  and  O_16
REMARK    5  A    between atoms: O_16  and  C_17
REMARK    6  A    between atoms: C_17  and  C_18
REMARK    7  A    between atoms: C_18  and  C_19
REMARK    8  A    between atoms: C_22  and  O_23
REMARK    9  A    between atoms: O_23  and  C_24
REMARK   10  A    between atoms: C_24  and  C_25
REMARK   11  A    between atoms: C_24  and  C_26
REMARK   12  A    between atoms: C_24  and  C_27
REMARK   13  A    between atoms: C_27  and  O_29
REMARK                            x       y       z     vdW  Elec       q    Type
REMARK                         _______ _______ _______ _____ _____    ______ ____
ROOT
ATOM      1  O   UNL     1       1.758   7.342  19.712  0.00  0.00    +0.000 OA
ENDROOT
BRANCH   1   8
ATOM      2  C   UNL     1       2.092   9.400  17.648  0.00  0.00    +0.000 C 
ATOM      3  C   UNL     1       1.474   9.635  19.000  0.00  0.00    +0.000 A 
ATOM      4  C   UNL     1       1.094  10.962  19.309  0.00  0.00    +0.000 A 
ATOM      5  C   UNL     1       0.556  11.303  20.551  0.00  0.00    +0.000 A 
ATOM      6  C   UNL     1       0.215  10.269  21.413  0.00  0.00    +0.000 A 
ATOM      7  C   UNL     1       0.522   8.946  21.100  0.00  0.00    +0.000 A 
ATOM      8  C   UNL     1       1.243   8.614  19.940  0.00  0.00    +0.000 A 
BRANCH   5   9
ATOM      9  N   UNL     1       0.247  12.614  20.947  0.00  0.00    +0.000 NA
ATOM     10  N   UNL     1      -0.774  13.235  20.565  0.00  0.00    +0.000 NA
BRANCH  10  11
ATOM     11  C   UNL     1      -1.820  12.669  19.811  0.00  0.00    +0.000 A 
ATOM     12  C   UNL     1      -3.109  12.712  20.365  0.00  0.00    +0.000 A 
ATOM     13  C   UNL     1      -4.220  12.250  19.656  0.00  0.00    +0.000 A 
ATOM     14  C   UNL     1      -4.055  11.725  18.377  0.00  0.00    +0.000 A 
ATOM     15  C   UNL     1      -2.785  11.679  17.806  0.00  0.00    +0.000 A 
ATOM     16  C   UNL     1      -1.679  12.175  18.507  0.00  0.00    +0.000 A 
ENDBRANCH  10  11
ENDBRANCH   5   9
ENDBRANCH   1   8
BRANCH   1  17
ATOM     17  C   UNL     1       1.685   6.475  20.863  0.00  0.00    +0.000 C 
BRANCH  17  18
ATOM     18  C   UNL     1       1.435   4.986  20.592  0.00  0.00    +0.000 C 
BRANCH  18  19
ATOM     19  C   UNL     1       2.443   4.519  19.544  0.00  0.00    +0.000 A 
ATOM     20  C   UNL     1       3.822   4.585  19.771  0.00  0.00    +0.000 A 
ATOM     21  C   UNL     1       4.737   4.281  18.744  0.00  0.00    +0.000 A 
ATOM     22  C   UNL     1       4.301   3.887  17.474  0.00  0.00    +0.000 A 
ATOM     23  C   UNL     1       2.928   3.823  17.252  0.00  0.00    +0.000 A 
ATOM     24  C   UNL     1       2.011   4.138  18.269  0.00  0.00    +0.000 A 
BRANCH  22  25
ATOM     25  O   UNL     1       5.286   3.663  16.547  0.00  0.00    +0.000 OA
BRANCH  25  26
ATOM     26  C   UNL     1       5.867   4.735  15.762  0.00  0.00    +0.000 C 
ATOM     27  C   UNL     1       6.205   4.290  14.337  0.00  0.00    +0.000 C 
ATOM     28  C   UNL     1       5.076   6.047  15.860  0.00  0.00    +0.000 C 
BRANCH  26  29
ATOM     29  C   UNL     1       7.234   5.076  16.412  0.00  0.00    +0.000 C 
ATOM     30  O   UNL     1       7.977   4.263  16.929  0.00  0.00    +0.000 OA
BRANCH  29  31
ATOM     31  O   UNL     1       7.553   6.394  16.348  0.00  0.00    +0.000 OA
ATOM     32  H   UNL     1       7.462   6.787  17.245  0.00  0.00    +0.000 HD
ENDBRANCH  29  31
ENDBRANCH  26  29
ENDBRANCH  25  26
ENDBRANCH  22  25
ENDBRANCH  18  19
ENDBRANCH  17  18
ENDBRANCH   1  17
TORSDOF 10
ENDMDL
MODEL 8
REMARK VINA RESULT:      -7.6      6.719      9.563
REMARK  Name = 
REMARK  13 active torsions:
REMARK  status: ('A' for Active; 'I' for Inactive)
REMARK    1  A    between atoms: C_1  and  C_2
REMARK    2  A    between atoms: C_4  and  N_5
REMARK    3  A    between atoms: N_6  and  C_7
REMARK    4  A    between atoms: C_15  and  O_16
REMARK    5  A    between atoms: O_16  and  C_17
REMARK    6  A    between atoms: C_17  and  C_18
REMARK    7  A    between atoms: C_18  and  C_19
REMARK    8  A    between atoms: C_22  and  O_23
REMARK    9  A    between atoms: O_23  and  C_24
REMARK   10  A    between atoms: C_24  and  C_25
REMARK   11  A    between atoms: C_24  and  C_26
REMARK   12  A    between atoms: C_24  and  C_27
REMARK   13  A    between atoms: C_27  and  O_29
REMARK                            x       y       z     vdW  Elec       q    Type
REMARK                         _______ _______ _______ _____ _____    ______ ____
ROOT
ATOM      1  O   UNL     1       8.113   7.436  17.028  0.00  0.00    +0.000 OA
ENDROOT
BRANCH   1   8
ATOM      2  C   UNL     1       7.869   5.553  19.265  0.00  0.00    +0.000 C 
ATOM      3  C   UNL     1       6.918   5.628  18.101  0.00  0.00    +0.000 A 
ATOM      4  C   UNL     1       5.877   4.672  18.061  0.00  0.00    +0.000 A 
ATOM      5  C   UNL     1       4.967   4.619  17.003  0.00  0.00    +0.000 A 
ATOM      6  C   UNL     1       4.986   5.658  16.082  0.00  0.00    +0.000 A 
ATOM      7  C   UNL     1       5.965   6.648  16.141  0.00  0.00    +0.000 A 
ATOM      8  C   UNL     1       7.004   6.599  17.085  0.00  0.00    +0.000 A 
BRANCH   5   9
ATOM      9  N   UNL     1       3.973   3.638  16.863  0.00  0.00    +0.000 NA
ATOM     10  N   UNL     1       2.941   3.584  17.575  0.00  0.00    +0.000 NA
BRANCH  10  11
ATOM     11  C   UNL     1       2.561   4.568  18.508  0.00  0.00    +0.000 A 
ATOM     12  C   UNL     1       2.461   4.174  19.852  0.00  0.00    +0.000 A 
ATOM     13  C   UNL     1       2.170   5.097  20.859  0.00  0.00    +0.000 A 
ATOM     14  C   UNL     1       1.965   6.435  20.533  0.00  0.00    +0.000 A 
ATOM     15  C   UNL     1       2.066   6.848  19.205  0.00  0.00    +0.000 A 
ATOM     16  C   UNL     1       2.390   5.925  18.204  0.00  0.00    +0.000 A 
ENDBRANCH  10  11
ENDBRANCH   5   9
ENDBRANCH   1   8
BRANCH   1  17
ATOM     17  C   UNL     1       7.911   8.707  17.681  0.00  0.00    +0.000 C 
BRANCH  17  18
ATOM     18  C   UNL     1       8.701   8.954  18.972  0.00  0.00    +0.000 C 
BRANCH  18  19
ATOM     19  C   UNL     1       9.219  10.390  18.943  0.00  0.00    +0.000 A 
ATOM     20  C   UNL     1      10.124  10.865  19.898  0.00  0.00    +0.000 A 
ATOM     21  C   UNL     1      10.481  12.226  19.939  0.00  0.00    +0.000 A 
ATOM     22  C   UNL     1       9.962  13.143  19.018  0.00  0.00    +0.000 A 
ATOM     23  C   UNL     1       9.061  12.668  18.070  0.00  0.00    +0.000 A 
ATOM     24  C   UNL     1       8.690  11.313  18.033  0.00  0.00    +0.000 A 
BRANCH  22  25
ATOM     25  O   UNL     1      10.351  14.447  19.190  0.00  0.00    +0.000 OA
BRANCH  25  26
ATOM     26  C   UNL     1      11.270  15.106  18.281  0.00  0.00    +0.000 C 
ATOM     27  C   UNL     1      12.281  15.986  19.019  0.00  0.00    +0.000 C 
ATOM     28  C   UNL     1      11.878  14.151  17.245  0.00  0.00    +0.000 C 
BRANCH  26  29
ATOM     29  C   UNL     1      10.426  16.091  17.429  0.00  0.00    +0.000 C 
ATOM     30  O   UNL     1      10.742  16.502  16.328  0.00  0.00    +0.000 OA
BRANCH  29  31
ATOM     31  O   UNL     1       9.263  16.464  18.022  0.00  0.00    +0.000 OA
ATOM     32  H   UNL     1       8.518  16.270  17.409  0.00  0.00    +0.000 HD
ENDBRANCH  29  31
ENDBRANCH  26  29
ENDBRANCH  25  26
ENDBRANCH  22  25
ENDBRANCH  18  19
ENDBRANCH  17  18
ENDBRANCH   1  17
TORSDOF 10
ENDMDL
MODEL 9
REMARK VINA RESULT:      -7.6      3.865      9.411
REMARK  Name = 
REMARK  13 active torsions:
REMARK  status: ('A' for Active; 'I' for Inactive)
REMARK    1  A    between atoms: C_1  and  C_2
REMARK    2  A    between atoms: C_4  and  N_5
REMARK    3  A    between atoms: N_6  and  C_7
REMARK    4  A    between atoms: C_15  and  O_16
REMARK    5  A    between atoms: O_16  and  C_17
REMARK    6  A    between atoms: C_17  and  C_18
REMARK    7  A    between atoms: C_18  and  C_19
REMARK    8  A    between atoms: C_22  and  O_23
REMARK    9  A    between atoms: O_23  and  C_24
REMARK   10  A    between atoms: C_24  and  C_25
REMARK   11  A    between atoms: C_24  and  C_26
REMARK   12  A    between atoms: C_24  and  C_27
REMARK   13  A    between atoms: C_27  and  O_29
REMARK                            x       y       z     vdW  Elec       q    Type
REMARK                         _______ _______ _______ _____ _____    ______ ____
ROOT
ATOM      1  O   UNL     1       1.860   6.250  20.751  0.00  0.00    +0.000 OA
ENDROOT
BRANCH   1   8
ATOM      2  C   UNL     1       2.483   3.416  21.183  0.00  0.00    +0.000 C 
ATOM      3  C   UNL     1       2.800   4.180  19.926  0.00  0.00    +0.000 A 
ATOM      4  C   UNL     1       3.511   3.489  18.917  0.00  0.00    +0.000 A 
ATOM      5  C   UNL     1       3.900   4.114  17.731  0.00  0.00    +0.000 A 
ATOM      6  C   UNL     1       3.399   5.384  17.476  0.00  0.00    +0.000 A 
ATOM      7  C   UNL     1       2.642   6.060  18.432  0.00  0.00    +0.000 A 
ATOM      8  C   UNL     1       2.413   5.516  19.706  0.00  0.00    +0.000 A 
BRANCH   5   9
ATOM      9  N   UNL     1       4.684   3.508  16.738  0.00  0.00    +0.000 NA
ATOM     10  N   UNL     1       5.848   3.875  16.448  0.00  0.00    +0.000 NA
BRANCH  10  11
ATOM     11  C   UNL     1       6.585   4.839  17.164  0.00  0.00    +0.000 A 
ATOM     12  C   UNL     1       6.749   6.098  16.564  0.00  0.00    +0.000 A 
ATOM     13  C   UNL     1       7.393   7.142  17.232  0.00  0.00    +0.000 A 
ATOM     14  C   UNL     1       7.894   6.938  18.515  0.00  0.00    +0.000 A 
ATOM     15  C   UNL     1       7.735   5.698  19.131  0.00  0.00    +0.000 A 
ATOM     16  C   UNL     1       7.060   4.665  18.470  0.00  0.00    +0.000 A 
ENDBRANCH  10  11
ENDBRANCH   5   9
ENDBRANCH   1   8
BRANCH   1  17
ATOM     17  C   UNL     1       2.225   7.646  20.730  0.00  0.00    +0.000 C 
BRANCH  17  18
ATOM     18  C   UNL     1       1.329   8.606  21.523  0.00  0.00    +0.000 C 
BRANCH  18  19
ATOM     19  C   UNL     1       0.520   9.432  20.526  0.00  0.00    +0.000 A 
ATOM     20  C   UNL     1      -0.576  10.203  20.928  0.00  0.00    +0.000 A 
ATOM     21  C   UNL     1      -1.392  10.846  19.978  0.00  0.00    +0.000 A 
ATOM     22  C   UNL     1      -1.127  10.753  18.607  0.00  0.00    +0.000 A 
ATOM     23  C   UNL     1      -0.036   9.985  18.211  0.00  0.00    +0.000 A 
ATOM     24  C   UNL     1       0.774   9.329  19.154  0.00  0.00    +0.000 A 
BRANCH  22  25
ATOM     25  O   UNL     1      -2.020  11.385  17.781  0.00  0.00    +0.000 OA
BRANCH  25  26
ATOM     26  C   UNL     1      -3.401  10.958  17.665  0.00  0.00    +0.000 C 
ATOM     27  C   UNL     1      -3.549   9.439  17.785  0.00  0.00    +0.000 C 
ATOM     28  C   UNL     1      -4.359  11.773  18.545  0.00  0.00    +0.000 C 
BRANCH  26  29
ATOM     29  C   UNL     1      -3.851  11.293  16.217  0.00  0.00    +0.000 C 
ATOM     30  O   UNL     1      -3.114  11.318  15.250  0.00  0.00    +0.000 OA
BRANCH  29  31
ATOM     31  O   UNL     1      -5.179  11.554  16.108  0.00  0.00    +0.000 OA
ATOM     32  H   UNL     1      -5.639  11.201  16.903  0.00  0.00    +0.000 HD
ENDBRANCH  29  31
ENDBRANCH  26  29
ENDBRANCH  25  26
ENDBRANCH  22  25
ENDBRANCH  18  19
ENDBRANCH  17  18
ENDBRANCH   1  17
TORSDOF 10
ENDMDL
