MODEL 1
REMARK VINA RESULT:      -6.5      0.000      0.000
REMARK  Name = 
REMARK  10 active torsions:
REMARK  status: ('A' for Active; 'I' for Inactive)
REMARK    1  A    between atoms: C_1  and  O_2
REMARK    2  A    between atoms: O_2  and  C_3
REMARK    3  A    between atoms: C_3  and  C_4
REMARK    4  A    between atoms: C_4  and  N_5
REMARK    5  A    between atoms: C_6  and  C_8
REMARK    6  A    between atoms: C_8  and  C_9
REMARK    7  A    between atoms: C_9  and  N_10
REMARK    8  A    between atoms: N_10  and  C_11
REMARK    9  A    between atoms: C_11  and  C_12
REMARK   10  A    between atoms: C_14  and  C_15
REMARK                            x       y       z     vdW  Elec       q    Type
REMARK                         _______ _______ _______ _____ _____    ______ ____
ROOT
ATOM      1  N   UNL     1       6.752   5.082  19.580  0.00  0.00    +0.000 NA
ATOM      2  H   UNL     1       6.337   5.962  19.891  0.00  0.00    +0.000 HD
ENDROOT
BRANCH   1   3
ATOM      3  C   UNL     1       7.711   5.341  18.503  0.00  0.00    +0.000 C 
BRANCH   3   4
ATOM      4  C   UNL     1       7.407   6.640  17.760  0.00  0.00    +0.000 C 
BRANCH   4   6
ATOM      5  N   UNL     1       7.496   5.411  15.680  0.00  0.00    +0.000 N 
ATOM      6  C   UNL     1       6.803   6.342  16.415  0.00  0.00    +0.000 C 
ATOM      7  O   UNL     1       5.796   6.900  15.993  0.00  0.00    +0.000 OA
ATOM      8  H   UNL     1       8.282   4.924  16.090  0.00  0.00    +0.000 HD
BRANCH   5   9
ATOM      9  C   UNL     1       7.018   5.024  14.363  0.00  0.00    +0.000 C 
BRANCH   9  10
ATOM     10  C   UNL     1       5.943   3.941  14.407  0.00  0.00    +0.000 C 
BRANCH  10  12
ATOM     11  C   UNL     1       6.816   3.753  12.227  0.00  0.00    +0.000 C 
ATOM     12  O   UNL     1       5.744   3.409  13.095  0.00  0.00    +0.000 OA
ENDBRANCH  10  12
ENDBRANCH   9  10
ENDBRANCH   5   9
ENDBRANCH   4   6
ENDBRANCH   3   4
ENDBRANCH   1   3
BRANCH   1  13
ATOM     13  C   UNL     1       5.677   4.201  19.120  0.00  0.00    +0.000 C 
BRANCH  13  14
ATOM     14  C   UNL     1       4.354   4.863  19.305  0.00  0.00    +0.000 A 
ATOM     15  C   UNL     1       4.027   6.175  19.063  0.00  0.00    +0.000 A 
ATOM     16  C   UNL     1       2.682   6.483  19.415  0.00  0.00    +0.000 A 
ATOM     17  C   UNL     1       2.021   5.361  19.889  0.00  0.00    +0.000 A 
ATOM     18  S   UNL     1       3.012   3.973  19.886  0.00  0.00    +0.000 S 
BRANCH  16  19
ATOM     19  C   UNL     1       2.021   7.771  19.301  0.00  0.00    +0.000 A 
ATOM     20  C   UNL     1       1.957   8.431  18.063  0.00  0.00    +0.000 A 
ATOM     21  C   UNL     1       1.316   9.666  17.965  0.00  0.00    +0.000 A 
ATOM     22  C   UNL     1       0.728  10.248  19.083  0.00  0.00    +0.000 A 
ATOM     23  C   UNL     1       0.788   9.588  20.321  0.00  0.00    +0.000 A 
ATOM     24  C   UNL     1       1.434   8.363  20.425  0.00  0.00    +0.000 A 
ENDBRANCH  16  19
ENDBRANCH  13  14
ENDBRANCH   1  13
TORSDOF 9
ENDMDL
MODEL 2
REMARK VINA RESULT:      -6.4      1.638      2.054
REMARK  Name = 
REMARK  10 active torsions:
REMARK  status: ('A' for Active; 'I' for Inactive)
REMARK    1  A    between atoms: C_1  and  O_2
REMARK    2  A    between atoms: O_2  and  C_3
REMARK    3  A    between atoms: C_3  and  C_4
REMARK    4  A    between atoms: C_4  and  N_5
REMARK    5  A    between atoms: C_6  and  C_8
REMARK    6  A    between atoms: C_8  and  C_9
REMARK    7  A    between atoms: C_9  and  N_10
REMARK    8  A    between atoms: N_10  and  C_11
REMARK    9  A    between atoms: C_11  and  C_12
REMARK   10  A    between atoms: C_14  and  C_15
REMARK                            x       y       z     vdW  Elec       q    Type
REMARK                         _______ _______ _______ _____ _____    ______ ____
ROOT
ATOM      1  N   UNL     1       5.547   3.905  17.758  0.00  0.00    +0.000 NA
ATOM      2  H   UNL     1       5.596   4.866  18.100  0.00  0.00    +0.000 HD
ENDROOT
BRANCH   1   3
ATOM      3  C   UNL     1       5.554   3.900  16.292  0.00  0.00    +0.000 C 
BRANCH   3   4
ATOM      4  C   UNL     1       6.232   5.141  15.715  0.00  0.00    +0.000 C 
BRANCH   4   6
ATOM      5  N   UNL     1       6.033   3.910  13.645  0.00  0.00    +0.000 N 
ATOM      6  C   UNL     1       6.753   4.855  14.333  0.00  0.00    +0.000 C 
ATOM      7  O   UNL     1       7.751   5.393  13.868  0.00  0.00    +0.000 OA
ATOM      8  H   UNL     1       5.178   3.538  14.036  0.00  0.00    +0.000 HD
BRANCH   5   9
ATOM      9  C   UNL     1       6.424   3.541  12.294  0.00  0.00    +0.000 C 
BRANCH   9  10
ATOM     10  C   UNL     1       5.442   2.582  11.625  0.00  0.00    +0.000 C 
BRANCH  10  12
ATOM     11  C   UNL     1       3.687   3.619  10.444  0.00  0.00    +0.000 C 
ATOM     12  O   UNL     1       4.119   3.118  11.703  0.00  0.00    +0.000 OA
ENDBRANCH  10  12
ENDBRANCH   9  10
ENDBRANCH   5   9
ENDBRANCH   4   6
ENDBRANCH   3   4
ENDBRANCH   1   3
BRANCH   1  13
ATOM     13  C   UNL     1       4.320   3.295  18.275  0.00  0.00    +0.000 C 
BRANCH  13  14
ATOM     14  C   UNL     1       3.468   4.326  18.930  0.00  0.00    +0.000 A 
ATOM     15  C   UNL     1       3.229   5.612  18.511  0.00  0.00    +0.000 A 
ATOM     16  C   UNL     1       2.414   6.347  19.419  0.00  0.00    +0.000 A 
ATOM     17  C   UNL     1       2.033   5.562  20.495  0.00  0.00    +0.000 A 
ATOM     18  S   UNL     1       2.641   3.972  20.387  0.00  0.00    +0.000 S 
BRANCH  16  19
ATOM     19  C   UNL     1       1.985   7.728  19.288  0.00  0.00    +0.000 A 
ATOM     20  C   UNL     1       2.173   8.421  18.081  0.00  0.00    +0.000 A 
ATOM     21  C   UNL     1       1.753   9.746  17.966  0.00  0.00    +0.000 A 
ATOM     22  C   UNL     1       1.138  10.388  19.036  0.00  0.00    +0.000 A 
ATOM     23  C   UNL     1       0.946   9.696  20.243  0.00  0.00    +0.000 A 
ATOM     24  C   UNL     1       1.372   8.380  20.364  0.00  0.00    +0.000 A 
ENDBRANCH  16  19
ENDBRANCH  13  14
ENDBRANCH   1  13
TORSDOF 9
ENDMDL
MODEL 3
REMARK VINA RESULT:      -6.3      0.993      1.093
REMARK  Name = 
REMARK  10 active torsions:
REMARK  status: ('A' for Active; 'I' for Inactive)
REMARK    1  A    between atoms: C_1  and  O_2
REMARK    2  A    between atoms: O_2  and  C_3
REMARK    3  A    between atoms: C_3  and  C_4
REMARK    4  A    between atoms: C_4  and  N_5
REMARK    5  A    between atoms: C_6  and  C_8
REMARK    6  A    between atoms: C_8  and  C_9
REMARK    7  A    between atoms: C_9  and  N_10
REMARK    8  A    between atoms: N_10  and  C_11
REMARK    9  A    between atoms: C_11  and  C_12
REMARK   10  A    between atoms: C_14  and  C_15
REMARK                            x       y       z     vdW  Elec       q    Type
REMARK                         _______ _______ _______ _____ _____    ______ ____
ROOT
ATOM      1  N   UNL     1       5.736   3.613  19.054  0.00  0.00    +0.000 NA
ATOM      2  H   UNL     1       5.812   3.121  19.946  0.00  0.00    +0.000 HD
ENDROOT
BRANCH   1   3
ATOM      3  C   UNL     1       6.058   5.030  19.241  0.00  0.00    +0.000 C 
BRANCH   3   4
ATOM      4  C   UNL     1       7.373   5.416  18.568  0.00  0.00    +0.000 C 
BRANCH   4   6
ATOM      5  N   UNL     1       6.270   5.081  16.443  0.00  0.00    +0.000 N 
ATOM      6  C   UNL     1       7.120   5.885  17.161  0.00  0.00    +0.000 C 
ATOM      7  O   UNL     1       7.648   6.883  16.682  0.00  0.00    +0.000 OA
ATOM      8  H   UNL     1       5.803   4.305  16.895  0.00  0.00    +0.000 HD
BRANCH   5   9
ATOM      9  C   UNL     1       5.934   5.421  15.070  0.00  0.00    +0.000 C 
BRANCH   9  10
ATOM     10  C   UNL     1       5.436   4.227  14.260  0.00  0.00    +0.000 C 
BRANCH  10  12
ATOM     11  C   UNL     1       6.151   3.357  12.190  0.00  0.00    +0.000 C 
ATOM     12  O   UNL     1       6.524   3.655  13.529  0.00  0.00    +0.000 OA
ENDBRANCH  10  12
ENDBRANCH   9  10
ENDBRANCH   5   9
ENDBRANCH   4   6
ENDBRANCH   3   4
ENDBRANCH   1   3
BRANCH   1  13
ATOM     13  C   UNL     1       4.370   3.451  18.553  0.00  0.00    +0.000 C 
BRANCH  13  14
ATOM     14  C   UNL     1       3.481   4.497  19.134  0.00  0.00    +0.000 A 
ATOM     15  C   UNL     1       3.244   5.762  18.656  0.00  0.00    +0.000 A 
ATOM     16  C   UNL     1       2.386   6.522  19.502  0.00  0.00    +0.000 A 
ATOM     17  C   UNL     1       1.973   5.774  20.593  0.00  0.00    +0.000 A 
ATOM     18  S   UNL     1       2.603   4.189  20.571  0.00  0.00    +0.000 S 
BRANCH  16  19
ATOM     19  C   UNL     1       1.947   7.891  19.300  0.00  0.00    +0.000 A 
ATOM     20  C   UNL     1       2.192   8.545  18.082  0.00  0.00    +0.000 A 
ATOM     21  C   UNL     1       1.762   9.860  17.899  0.00  0.00    +0.000 A 
ATOM     22  C   UNL     1       1.080  10.528  18.910  0.00  0.00    +0.000 A 
ATOM     23  C   UNL     1       0.830   9.874  20.128  0.00  0.00    +0.000 A 
ATOM     24  C   UNL     1       1.266   8.569  20.318  0.00  0.00    +0.000 A 
ENDBRANCH  16  19
ENDBRANCH  13  14
ENDBRANCH   1  13
TORSDOF 9
ENDMDL
MODEL 4
REMARK VINA RESULT:      -6.1      1.563      2.477
REMARK  Name = 
REMARK  10 active torsions:
REMARK  status: ('A' for Active; 'I' for Inactive)
REMARK    1  A    between atoms: C_1  and  O_2
REMARK    2  A    between atoms: O_2  and  C_3
REMARK    3  A    between atoms: C_3  and  C_4
REMARK    4  A    between atoms: C_4  and  N_5
REMARK    5  A    between atoms: C_6  and  C_8
REMARK    6  A    between atoms: C_8  and  C_9
REMARK    7  A    between atoms: C_9  and  N_10
REMARK    8  A    between atoms: N_10  and  C_11
REMARK    9  A    between atoms: C_11  and  C_12
REMARK   10  A    between atoms: C_14  and  C_15
REMARK                            x       y       z     vdW  Elec       q    Type
REMARK                         _______ _______ _______ _____ _____    ______ ____
ROOT
ATOM      1  N   UNL     1       4.753   5.094  18.462  0.00  0.00    +0.000 NA
ATOM      2  H   UNL     1       4.843   4.165  18.049  0.00  0.00    +0.000 HD
ENDROOT
BRANCH   1   3
ATOM      3  C   UNL     1       5.991   5.447  19.163  0.00  0.00    +0.000 C 
BRANCH   3   4
ATOM      4  C   UNL     1       7.221   5.295  18.271  0.00  0.00    +0.000 C 
BRANCH   4   6
ATOM      5  N   UNL     1       7.295   4.679  15.934  0.00  0.00    +0.000 N 
ATOM      6  C   UNL     1       6.872   5.618  16.843  0.00  0.00    +0.000 C 
ATOM      7  O   UNL     1       6.288   6.643  16.510  0.00  0.00    +0.000 OA
ATOM      8  H   UNL     1       7.714   3.815  16.254  0.00  0.00    +0.000 HD
BRANCH   5   9
ATOM      9  C   UNL     1       7.020   4.862  14.519  0.00  0.00    +0.000 C 
BRANCH   9  10
ATOM     10  C   UNL     1       5.719   4.202  14.069  0.00  0.00    +0.000 C 
BRANCH  10  12
ATOM     11  C   UNL     1       6.994   3.923  12.109  0.00  0.00    +0.000 C 
ATOM     12  O   UNL     1       5.969   3.378  12.928  0.00  0.00    +0.000 OA
ENDBRANCH  10  12
ENDBRANCH   9  10
ENDBRANCH   5   9
ENDBRANCH   4   6
ENDBRANCH   3   4
ENDBRANCH   1   3
BRANCH   1  13
ATOM     13  C   UNL     1       3.617   5.079  19.387  0.00  0.00    +0.000 C 
BRANCH  13  14
ATOM     14  C   UNL     1       2.926   6.399  19.374  0.00  0.00    +0.000 A 
ATOM     15  C   UNL     1       2.203   6.982  20.386  0.00  0.00    +0.000 A 
ATOM     16  C   UNL     1       1.622   8.225  20.006  0.00  0.00    +0.000 A 
ATOM     17  C   UNL     1       1.961   8.557  18.704  0.00  0.00    +0.000 A 
ATOM     18  S   UNL     1       2.974   7.391  17.979  0.00  0.00    +0.000 S 
BRANCH  16  19
ATOM     19  C   UNL     1       0.792   9.090  20.825  0.00  0.00    +0.000 A 
ATOM     20  C   UNL     1       0.664   8.856  22.204  0.00  0.00    +0.000 A 
ATOM     21  C   UNL     1      -0.134   9.696  22.981  0.00  0.00    +0.000 A 
ATOM     22  C   UNL     1      -0.799  10.773  22.404  0.00  0.00    +0.000 A 
ATOM     23  C   UNL     1      -0.670  11.011  21.026  0.00  0.00    +0.000 A 
ATOM     24  C   UNL     1       0.115  10.171  20.247  0.00  0.00    +0.000 A 
ENDBRANCH  16  19
ENDBRANCH  13  14
ENDBRANCH   1  13
TORSDOF 9
ENDMDL
MODEL 5
REMARK VINA RESULT:      -6.1      2.272      4.013
REMARK  Name = 
REMARK  10 active torsions:
REMARK  status: ('A' for Active; 'I' for Inactive)
REMARK    1  A    between atoms: C_1  and  O_2
REMARK    2  A    between atoms: O_2  and  C_3
REMARK    3  A    between atoms: C_3  and  C_4
REMARK    4  A    between atoms: C_4  and  N_5
REMARK    5  A    between atoms: C_6  and  C_8
REMARK    6  A    between atoms: C_8  and  C_9
REMARK    7  A    between atoms: C_9  and  N_10
REMARK    8  A    between atoms: N_10  and  C_11
REMARK    9  A    between atoms: C_11  and  C_12
REMARK   10  A    between atoms: C_14  and  C_15
REMARK                            x       y       z     vdW  Elec       q    Type
REMARK                         _______ _______ _______ _____ _____    ______ ____
ROOT
ATOM      1  N   UNL     1       5.632   5.584  15.639  0.00  0.00    +0.000 NA
ATOM      2  H   UNL     1       5.353   5.766  14.675  0.00  0.00    +0.000 HD
ENDROOT
BRANCH   1   3
ATOM      3  C   UNL     1       7.018   5.109  15.672  0.00  0.00    +0.000 C 
BRANCH   3   4
ATOM      4  C   UNL     1       7.344   4.372  16.969  0.00  0.00    +0.000 C 
BRANCH   4   6
ATOM      5  N   UNL     1       7.861   6.645  17.611  0.00  0.00    +0.000 N 
ATOM      6  C   UNL     1       7.696   5.355  18.053  0.00  0.00    +0.000 C 
ATOM      7  O   UNL     1       7.853   5.033  19.225  0.00  0.00    +0.000 OA
ATOM      8  H   UNL     1       7.657   6.882  16.649  0.00  0.00    +0.000 HD
BRANCH   5   9
ATOM      9  C   UNL     1       8.197   7.698  18.555  0.00  0.00    +0.000 C 
BRANCH   9  10
ATOM     10  C   UNL     1       8.158   9.094  17.937  0.00  0.00    +0.000 C 
BRANCH  10  12
ATOM     11  C   UNL     1       9.548  10.991  18.061  0.00  0.00    +0.000 C 
ATOM     12  O   UNL     1       8.820  10.020  18.801  0.00  0.00    +0.000 OA
ENDBRANCH  10  12
ENDBRANCH   9  10
ENDBRANCH   5   9
ENDBRANCH   4   6
ENDBRANCH   3   4
ENDBRANCH   1   3
BRANCH   1  13
ATOM     13  C   UNL     1       4.725   4.582  16.202  0.00  0.00    +0.000 C 
BRANCH  13  14
ATOM     14  C   UNL     1       4.028   5.132  17.399  0.00  0.00    +0.000 A 
ATOM     15  C   UNL     1       3.348   6.320  17.505  0.00  0.00    +0.000 A 
ATOM     16  C   UNL     1       2.859   6.562  18.821  0.00  0.00    +0.000 A 
ATOM     17  C   UNL     1       3.166   5.509  19.668  0.00  0.00    +0.000 A 
ATOM     18  S   UNL     1       4.011   4.259  18.871  0.00  0.00    +0.000 S 
BRANCH  16  19
ATOM     19  C   UNL     1       2.114   7.721  19.278  0.00  0.00    +0.000 A 
ATOM     20  C   UNL     1       1.652   7.794  20.602  0.00  0.00    +0.000 A 
ATOM     21  C   UNL     1       0.941   8.914  21.032  0.00  0.00    +0.000 A 
ATOM     22  C   UNL     1       0.692   9.970  20.160  0.00  0.00    +0.000 A 
ATOM     23  C   UNL     1       1.156   9.901  18.837  0.00  0.00    +0.000 A 
ATOM     24  C   UNL     1       1.855   8.783  18.403  0.00  0.00    +0.000 A 
ENDBRANCH  16  19
ENDBRANCH  13  14
ENDBRANCH   1  13
TORSDOF 9
ENDMDL
MODEL 6
REMARK VINA RESULT:      -6.1      3.306      5.067
REMARK  Name = 
REMARK  10 active torsions:
REMARK  status: ('A' for Active; 'I' for Inactive)
REMARK    1  A    between atoms: C_1  and  O_2
REMARK    2  A    between atoms: O_2  and  C_3
REMARK    3  A    between atoms: C_3  and  C_4
REMARK    4  A    between atoms: C_4  and  N_5
REMARK    5  A    between atoms: C_6  and  C_8
REMARK    6  A    between atoms: C_8  and  C_9
REMARK    7  A    between atoms: C_9  and  N_10
REMARK    8  A    between atoms: N_10  and  C_11
REMARK    9  A    between atoms: C_11  and  C_12
REMARK   10  A    between atoms: C_14  and  C_15
REMARK                            x       y       z     vdW  Elec       q    Type
REMARK                         _______ _______ _______ _____ _____    ______ ____
ROOT
ATOM      1  N   UNL     1       3.852   6.336  17.768  0.00  0.00    +0.000 NA
ATOM      2  H   UNL     1       3.154   6.071  17.072  0.00  0.00    +0.000 HD
ENDROOT
BRANCH   1   3
ATOM      3  C   UNL     1       4.961   5.378  17.747  0.00  0.00    +0.000 C 
BRANCH   3   4
ATOM      4  C   UNL     1       5.216   4.762  19.121  0.00  0.00    +0.000 C 
BRANCH   4   6
ATOM      5  N   UNL     1       3.611   3.165  18.276  0.00  0.00    +0.000 N 
ATOM      6  C   UNL     1       4.601   3.391  19.200  0.00  0.00    +0.000 C 
ATOM      7  O   UNL     1       4.930   2.556  20.034  0.00  0.00    +0.000 OA
ATOM      8  H   UNL     1       3.415   3.854  17.562  0.00  0.00    +0.000 HD
BRANCH   5   9
ATOM      9  C   UNL     1       2.934   1.878  18.237  0.00  0.00    +0.000 C 
BRANCH   9  10
ATOM     10  C   UNL     1       1.502   1.936  18.763  0.00  0.00    +0.000 C 
BRANCH  10  12
ATOM     11  C   UNL     1       1.124   3.178  20.729  0.00  0.00    +0.000 C 
ATOM     12  O   UNL     1       1.245   3.231  19.314  0.00  0.00    +0.000 OA
ENDBRANCH  10  12
ENDBRANCH   9  10
ENDBRANCH   5   9
ENDBRANCH   4   6
ENDBRANCH   3   4
ENDBRANCH   1   3
BRANCH   1  13
ATOM     13  C   UNL     1       3.208   6.358  19.083  0.00  0.00    +0.000 C 
BRANCH  13  14
ATOM     14  C   UNL     1       2.369   7.581  19.225  0.00  0.00    +0.000 A 
ATOM     15  C   UNL     1       1.723   8.034  20.350  0.00  0.00    +0.000 A 
ATOM     16  C   UNL     1       0.953   9.208  20.111  0.00  0.00    +0.000 A 
ATOM     17  C   UNL     1       1.075   9.624  18.794  0.00  0.00    +0.000 A 
ATOM     18  S   UNL     1       2.113   8.619  17.888  0.00  0.00    +0.000 S 
BRANCH  16  19
ATOM     19  C   UNL     1       0.143   9.934  21.072  0.00  0.00    +0.000 A 
ATOM     20  C   UNL     1      -0.054   9.424  22.366  0.00  0.00    +0.000 A 
ATOM     21  C   UNL     1      -0.832  10.132  23.282  0.00  0.00    +0.000 A 
ATOM     22  C   UNL     1      -1.408  11.349  22.929  0.00  0.00    +0.000 A 
ATOM     23  C   UNL     1      -1.210  11.861  21.637  0.00  0.00    +0.000 A 
ATOM     24  C   UNL     1      -0.445  11.154  20.719  0.00  0.00    +0.000 A 
ENDBRANCH  16  19
ENDBRANCH  13  14
ENDBRANCH   1  13
TORSDOF 9
ENDMDL
MODEL 7
REMARK VINA RESULT:      -6.0      2.737      4.266
REMARK  Name = 
REMARK  10 active torsions:
REMARK  status: ('A' for Active; 'I' for Inactive)
REMARK    1  A    between atoms: C_1  and  O_2
REMARK    2  A    between atoms: O_2  and  C_3
REMARK    3  A    between atoms: C_3  and  C_4
REMARK    4  A    between atoms: C_4  and  N_5
REMARK    5  A    between atoms: C_6  and  C_8
REMARK    6  A    between atoms: C_8  and  C_9
REMARK    7  A    between atoms: C_9  and  N_10
REMARK    8  A    between atoms: N_10  and  C_11
REMARK    9  A    between atoms: C_11  and  C_12
REMARK   10  A    between atoms: C_14  and  C_15
REMARK                            x       y       z     vdW  Elec       q    Type
REMARK                         _______ _______ _______ _____ _____    ______ ____
ROOT
ATOM      1  N   UNL     1       2.750   5.514  20.264  0.00  0.00    +0.000 NA
ATOM      2  H   UNL     1       3.499   5.608  20.951  0.00  0.00    +0.000 HD
ENDROOT
BRANCH   1   3
ATOM      3  C   UNL     1       2.674   4.125  19.801  0.00  0.00    +0.000 C 
BRANCH   3   4
ATOM      4  C   UNL     1       2.365   4.032  18.308  0.00  0.00    +0.000 C 
BRANCH   4   6
ATOM      5  N   UNL     1       4.336   4.191  16.918  0.00  0.00    +0.000 N 
ATOM      6  C   UNL     1       3.490   3.340  17.586  0.00  0.00    +0.000 C 
ATOM      7  O   UNL     1       3.627   2.123  17.567  0.00  0.00    +0.000 OA
ATOM      8  H   UNL     1       4.229   5.192  17.012  0.00  0.00    +0.000 HD
BRANCH   5   9
ATOM      9  C   UNL     1       5.470   3.656  16.182  0.00  0.00    +0.000 C 
BRANCH   9  10
ATOM     10  C   UNL     1       6.514   4.714  15.834  0.00  0.00    +0.000 C 
BRANCH  10  12
ATOM     11  C   UNL     1       7.677   4.690  17.882  0.00  0.00    +0.000 C 
ATOM     12  O   UNL     1       7.746   4.407  16.490  0.00  0.00    +0.000 OA
ENDBRANCH  10  12
ENDBRANCH   9  10
ENDBRANCH   5   9
ENDBRANCH   4   6
ENDBRANCH   3   4
ENDBRANCH   1   3
BRANCH   1  13
ATOM     13  C   UNL     1       3.031   6.420  19.148  0.00  0.00    +0.000 C 
BRANCH  13  14
ATOM     14  C   UNL     1       2.205   7.655  19.267  0.00  0.00    +0.000 A 
ATOM     15  C   UNL     1       1.564   8.135  20.382  0.00  0.00    +0.000 A 
ATOM     16  C   UNL     1       0.807   9.313  20.121  0.00  0.00    +0.000 A 
ATOM     17  C   UNL     1       0.934   9.704  18.797  0.00  0.00    +0.000 A 
ATOM     18  S   UNL     1       1.962   8.670  17.910  0.00  0.00    +0.000 S 
BRANCH  16  19
ATOM     19  C   UNL     1       0.004  10.065  21.068  0.00  0.00    +0.000 A 
ATOM     20  C   UNL     1      -0.653  11.240  20.670  0.00  0.00    +0.000 A 
ATOM     21  C   UNL     1      -1.424  11.953  21.588  0.00  0.00    +0.000 A 
ATOM     22  C   UNL     1      -1.558  11.503  22.898  0.00  0.00    +0.000 A 
ATOM     23  C   UNL     1      -0.905  10.327  23.298  0.00  0.00    +0.000 A 
ATOM     24  C   UNL     1      -0.128   9.621  22.389  0.00  0.00    +0.000 A 
ENDBRANCH  16  19
ENDBRANCH  13  14
ENDBRANCH   1  13
TORSDOF 9
ENDMDL
MODEL 8
REMARK VINA RESULT:      -6.0      2.239      4.016
REMARK  Name = 
REMARK  10 active torsions:
REMARK  status: ('A' for Active; 'I' for Inactive)
REMARK    1  A    between atoms: C_1  and  O_2
REMARK    2  A    between atoms: O_2  and  C_3
REMARK    3  A    between atoms: C_3  and  C_4
REMARK    4  A    between atoms: C_4  and  N_5
REMARK    5  A    between atoms: C_6  and  C_8
REMARK    6  A    between atoms: C_8  and  C_9
REMARK    7  A    between atoms: C_9  and  N_10
REMARK    8  A    between atoms: N_10  and  C_11
REMARK    9  A    between atoms: C_11  and  C_12
REMARK   10  A    between atoms: C_14  and  C_15
REMARK                            x       y       z     vdW  Elec       q    Type
REMARK                         _______ _______ _______ _____ _____    ______ ____
ROOT
ATOM      1  N   UNL     1       4.817   4.856  17.225  0.00  0.00    +0.000 NA
ATOM      2  H   UNL     1       5.537   4.958  17.941  0.00  0.00    +0.000 HD
ENDROOT
BRANCH   1   3
ATOM      3  C   UNL     1       5.378   4.176  16.053  0.00  0.00    +0.000 C 
BRANCH   3   4
ATOM      4  C   UNL     1       6.887   4.377  15.939  0.00  0.00    +0.000 C 
BRANCH   4   6
ATOM      5  N   UNL     1       7.504   6.441  17.035  0.00  0.00    +0.000 N 
ATOM      6  C   UNL     1       7.414   5.077  17.163  0.00  0.00    +0.000 C 
ATOM      7  O   UNL     1       7.762   4.483  18.177  0.00  0.00    +0.000 OA
ATOM      8  H   UNL     1       7.145   6.899  16.208  0.00  0.00    +0.000 HD
BRANCH   5   9
ATOM      9  C   UNL     1       7.993   7.243  18.145  0.00  0.00    +0.000 C 
BRANCH   9  10
ATOM     10  C   UNL     1       8.028   8.738  17.837  0.00  0.00    +0.000 C 
BRANCH  10  12
ATOM     11  C   UNL     1       9.145  10.742  18.370  0.00  0.00    +0.000 C 
ATOM     12  O   UNL     1       8.895   9.398  18.762  0.00  0.00    +0.000 OA
ENDBRANCH  10  12
ENDBRANCH   9  10
ENDBRANCH   5   9
ENDBRANCH   4   6
ENDBRANCH   3   4
ENDBRANCH   1   3
BRANCH   1  13
ATOM     13  C   UNL     1       4.327   6.189  16.869  0.00  0.00    +0.000 C 
BRANCH  13  14
ATOM     14  C   UNL     1       3.421   6.706  17.933  0.00  0.00    +0.000 A 
ATOM     15  C   UNL     1       2.686   7.866  17.923  0.00  0.00    +0.000 A 
ATOM     16  C   UNL     1       1.977   8.082  19.139  0.00  0.00    +0.000 A 
ATOM     17  C   UNL     1       2.182   7.038  20.028  0.00  0.00    +0.000 A 
ATOM     18  S   UNL     1       3.195   5.826  19.384  0.00  0.00    +0.000 S 
BRANCH  16  19
ATOM     19  C   UNL     1       1.122   9.209  19.466  0.00  0.00    +0.000 A 
ATOM     20  C   UNL     1       0.493   9.287  20.719  0.00  0.00    +0.000 A 
ATOM     21  C   UNL     1      -0.323  10.376  21.022  0.00  0.00    +0.000 A 
ATOM     22  C   UNL     1      -0.514  11.396  20.095  0.00  0.00    +0.000 A 
ATOM     23  C   UNL     1       0.116  11.322  18.843  0.00  0.00    +0.000 A 
ATOM     24  C   UNL     1       0.921  10.234  18.533  0.00  0.00    +0.000 A 
ENDBRANCH  16  19
ENDBRANCH  13  14
ENDBRANCH   1  13
TORSDOF 9
ENDMDL
MODEL 9
REMARK VINA RESULT:      -6.0      3.055      7.196
REMARK  Name = 
REMARK  10 active torsions:
REMARK  status: ('A' for Active; 'I' for Inactive)
REMARK    1  A    between atoms: C_1  and  O_2
REMARK    2  A    between atoms: O_2  and  C_3
REMARK    3  A    between atoms: C_3  and  C_4
REMARK    4  A    between atoms: C_4  and  N_5
REMARK    5  A    between atoms: C_6  and  C_8
REMARK    6  A    between atoms: C_8  and  C_9
REMARK    7  A    between atoms: C_9  and  N_10
REMARK    8  A    between atoms: N_10  and  C_11
REMARK    9  A    between atoms: C_11  and  C_12
REMARK   10  A    between atoms: C_14  and  C_15
REMARK                            x       y       z     vdW  Elec       q    Type
REMARK                         _______ _______ _______ _____ _____    ______ ____
ROOT
ATOM      1  N   UNL     1       2.997   6.657  17.966  0.00  0.00    +0.000 NA
ATOM      2  H   UNL     1       2.645   6.698  17.008  0.00  0.00    +0.000 HD
ENDROOT
BRANCH   1   3
ATOM      3  C   UNL     1       2.093   7.388  18.858  0.00  0.00    +0.000 C 
BRANCH   3   4
ATOM      4  C   UNL     1       2.156   6.870  20.293  0.00  0.00    +0.000 C 
BRANCH   4   6
ATOM      5  N   UNL     1       1.117   4.700  20.530  0.00  0.00    +0.000 N 
ATOM      6  C   UNL     1       2.293   5.371  20.301  0.00  0.00    +0.000 C 
ATOM      7  O   UNL     1       3.364   4.795  20.145  0.00  0.00    +0.000 OA
ATOM      8  H   UNL     1       0.245   5.208  20.587  0.00  0.00    +0.000 HD
BRANCH   5   9
ATOM      9  C   UNL     1       1.105   3.247  20.558  0.00  0.00    +0.000 C 
BRANCH   9  10
ATOM     10  C   UNL     1       0.903   2.621  19.180  0.00  0.00    +0.000 C 
BRANCH  10  12
ATOM     11  C   UNL     1       2.658   2.180  17.672  0.00  0.00    +0.000 C 
ATOM     12  O   UNL     1       2.011   1.772  18.871  0.00  0.00    +0.000 OA
ENDBRANCH  10  12
ENDBRANCH   9  10
ENDBRANCH   5   9
ENDBRANCH   4   6
ENDBRANCH   3   4
ENDBRANCH   1   3
BRANCH   1  13
ATOM     13  C   UNL     1       4.338   7.244  17.989  0.00  0.00    +0.000 C 
BRANCH  13  14
ATOM     14  C   UNL     1       5.280   6.408  17.192  0.00  0.00    +0.000 A 
ATOM     15  C   UNL     1       5.208   6.098  15.856  0.00  0.00    +0.000 A 
ATOM     16  C   UNL     1       6.245   5.218  15.435  0.00  0.00    +0.000 A 
ATOM     17  C   UNL     1       7.098   4.914  16.485  0.00  0.00    +0.000 A 
ATOM     18  S   UNL     1       6.651   5.698  17.933  0.00  0.00    +0.000 S 
BRANCH  16  19
ATOM     19  C   UNL     1       6.453   4.685  14.101  0.00  0.00    +0.000 A 
ATOM     20  C   UNL     1       7.510   5.154  13.304  0.00  0.00    +0.000 A 
ATOM     21  C   UNL     1       7.702   4.633  12.024  0.00  0.00    +0.000 A 
ATOM     22  C   UNL     1       6.860   3.641  11.531  0.00  0.00    +0.000 A 
ATOM     23  C   UNL     1       5.804   3.169  12.328  0.00  0.00    +0.000 A 
ATOM     24  C   UNL     1       5.604   3.693  13.598  0.00  0.00    +0.000 A 
ENDBRANCH  16  19
ENDBRANCH  13  14
ENDBRANCH   1  13
TORSDOF 9
ENDMDL
