MODEL 1
REMARK VINA RESULT:      -6.1      0.000      0.000
REMARK  Name = 
REMARK  5 active torsions:
REMARK  status: ('A' for Active; 'I' for Inactive)
REMARK    1  A    between atoms: C_1  and  C_2
REMARK    2  A    between atoms: C_2  and  C_3
REMARK    3  A    between atoms: C_7  and  C_8
REMARK    4  A    between atoms: C_7  and  O_9
REMARK    5  A    between atoms: C_10  and  O_11
REMARK                            x       y       z     vdW  Elec       q    Type
REMARK                         _______ _______ _______ _____ _____    ______ ____
ROOT
ATOM      1  C   UNL     1       3.121   7.039  18.017  0.00  0.00    +0.000 C 
ATOM      2  C   UNL     1       4.395   6.163  17.965  0.00  0.00    +0.000 C 
ATOM      3  C   UNL     1       4.518   5.508  19.341  0.00  0.00    +0.000 C 
ATOM      4  C   UNL     1       4.511   5.228  16.683  0.00  0.00    +0.000 C 
ATOM      5  C   UNL     1       5.001   6.497  15.930  0.00  0.00    +0.000 C 
ATOM      6  C   UNL     1       5.659   6.886  17.296  0.00  0.00    +0.000 C 
ATOM      7  C   UNL     1       7.045   6.211  17.392  0.00  0.00    +0.000 C 
ATOM      8  C   UNL     1       7.814   6.703  18.616  0.00  0.00    +0.000 C 
ATOM      9  C   UNL     1       6.904   4.662  17.369  0.00  0.00    +0.000 C 
ATOM     10  C   UNL     1       5.634   4.178  16.641  0.00  0.00    +0.000 C 
ENDROOT
BRANCH   7  11
ATOM     11  O   UNL     1       7.825   6.588  16.235  0.00  0.00    +0.000 OA
ATOM     12  H   UNL     1       8.762   6.586  16.499  0.00  0.00    +0.000 HD
ENDBRANCH   7  11
BRANCH   9  13
ATOM     13  O   UNL     1       8.047   4.067  16.751  0.00  0.00    +0.000 OA
ATOM     14  H   UNL     1       8.108   4.505  15.877  0.00  0.00    +0.000 HD
ENDBRANCH   9  13
TORSDOF 2
ENDMDL
MODEL 2
REMARK VINA RESULT:      -6.0      1.860      2.974
REMARK  Name = 
REMARK  5 active torsions:
REMARK  status: ('A' for Active; 'I' for Inactive)
REMARK    1  A    between atoms: C_1  and  C_2
REMARK    2  A    between atoms: C_2  and  C_3
REMARK    3  A    between atoms: C_7  and  C_8
REMARK    4  A    between atoms: C_7  and  O_9
REMARK    5  A    between atoms: C_10  and  O_11
REMARK                            x       y       z     vdW  Elec       q    Type
REMARK                         _______ _______ _______ _____ _____    ______ ____
ROOT
ATOM      1  C   UNL     1       1.423   4.429  17.794  0.00  0.00    +0.000 C 
ATOM      2  C   UNL     1       2.945   4.688  17.895  0.00  0.00    +0.000 C 
ATOM      3  C   UNL     1       3.107   6.191  18.131  0.00  0.00    +0.000 C 
ATOM      4  C   UNL     1       3.729   3.695  18.858  0.00  0.00    +0.000 C 
ATOM      5  C   UNL     1       3.685   2.682  17.680  0.00  0.00    +0.000 C 
ATOM      6  C   UNL     1       3.811   3.948  16.768  0.00  0.00    +0.000 C 
ATOM      7  C   UNL     1       5.305   4.306  16.615  0.00  0.00    +0.000 C 
ATOM      8  C   UNL     1       5.503   5.416  15.587  0.00  0.00    +0.000 C 
ATOM      9  C   UNL     1       5.927   4.665  17.996  0.00  0.00    +0.000 C 
ATOM     10  C   UNL     1       5.202   3.997  19.181  0.00  0.00    +0.000 C 
ENDROOT
BRANCH   7  11
ATOM     11  O   UNL     1       6.010   3.148  16.116  0.00  0.00    +0.000 OA
ATOM     12  H   UNL     1       6.536   3.434  15.347  0.00  0.00    +0.000 HD
ENDBRANCH   7  11
BRANCH   9  13
ATOM     13  O   UNL     1       7.307   4.298  18.030  0.00  0.00    +0.000 OA
ATOM     14  H   UNL     1       7.537   4.301  18.983  0.00  0.00    +0.000 HD
ENDBRANCH   9  13
TORSDOF 2
ENDMDL
MODEL 3
REMARK VINA RESULT:      -5.9      2.171      3.325
REMARK  Name = 
REMARK  5 active torsions:
REMARK  status: ('A' for Active; 'I' for Inactive)
REMARK    1  A    between atoms: C_1  and  C_2
REMARK    2  A    between atoms: C_2  and  C_3
REMARK    3  A    between atoms: C_7  and  C_8
REMARK    4  A    between atoms: C_7  and  O_9
REMARK    5  A    between atoms: C_10  and  O_11
REMARK                            x       y       z     vdW  Elec       q    Type
REMARK                         _______ _______ _______ _____ _____    ______ ____
ROOT
ATOM      1  C   UNL     1       7.472   7.540  17.443  0.00  0.00    +0.000 C 
ATOM      2  C   UNL     1       6.409   6.426  17.291  0.00  0.00    +0.000 C 
ATOM      3  C   UNL     1       5.164   7.102  16.716  0.00  0.00    +0.000 C 
ATOM      4  C   UNL     1       6.929   5.099  16.585  0.00  0.00    +0.000 C 
ATOM      5  C   UNL     1       7.542   4.728  17.965  0.00  0.00    +0.000 C 
ATOM      6  C   UNL     1       6.292   5.457  18.561  0.00  0.00    +0.000 C 
ATOM      7  C   UNL     1       5.118   4.456  18.634  0.00  0.00    +0.000 C 
ATOM      8  C   UNL     1       3.928   5.054  19.379  0.00  0.00    +0.000 C 
ATOM      9  C   UNL     1       4.731   3.961  17.210  0.00  0.00    +0.000 C 
ATOM     10  C   UNL     1       5.901   4.019  16.208  0.00  0.00    +0.000 C 
ENDROOT
BRANCH   7  11
ATOM     11  O   UNL     1       5.541   3.299  19.389  0.00  0.00    +0.000 OA
ATOM     12  H   UNL     1       4.753   2.930  19.827  0.00  0.00    +0.000 HD
ENDBRANCH   7  11
BRANCH   9  13
ATOM     13  O   UNL     1       4.236   2.622  17.266  0.00  0.00    +0.000 OA
ATOM     14  H   UNL     1       3.541   2.647  17.956  0.00  0.00    +0.000 HD
ENDBRANCH   9  13
TORSDOF 2
ENDMDL
MODEL 4
REMARK VINA RESULT:      -5.9      3.043      4.018
REMARK  Name = 
REMARK  5 active torsions:
REMARK  status: ('A' for Active; 'I' for Inactive)
REMARK    1  A    between atoms: C_1  and  C_2
REMARK    2  A    between atoms: C_2  and  C_3
REMARK    3  A    between atoms: C_7  and  C_8
REMARK    4  A    between atoms: C_7  and  O_9
REMARK    5  A    between atoms: C_10  and  O_11
REMARK                            x       y       z     vdW  Elec       q    Type
REMARK                         _______ _______ _______ _____ _____    ______ ____
ROOT
ATOM      1  C   UNL     1       0.435   2.825  19.032  0.00  0.00    +0.000 C 
ATOM      2  C   UNL     1       1.888   3.339  19.172  0.00  0.00    +0.000 C 
ATOM      3  C   UNL     1       1.849   4.443  20.229  0.00  0.00    +0.000 C 
ATOM      4  C   UNL     1       2.987   2.200  19.323  0.00  0.00    +0.000 C 
ATOM      5  C   UNL     1       2.884   2.038  17.781  0.00  0.00    +0.000 C 
ATOM      6  C   UNL     1       2.632   3.583  17.774  0.00  0.00    +0.000 C 
ATOM      7  C   UNL     1       3.994   4.310  17.767  0.00  0.00    +0.000 C 
ATOM      8  C   UNL     1       3.815   5.813  17.570  0.00  0.00    +0.000 C 
ATOM      9  C   UNL     1       4.800   3.977  19.056  0.00  0.00    +0.000 C 
ATOM     10  C   UNL     1       4.427   2.613  19.670  0.00  0.00    +0.000 C 
ENDROOT
BRANCH   7  11
ATOM     11  O   UNL     1       4.767   3.835  16.643  0.00  0.00    +0.000 OA
ATOM     12  H   UNL     1       4.247   3.139  16.203  0.00  0.00    +0.000 HD
ENDBRANCH   7  11
BRANCH   9  13
ATOM     13  O   UNL     1       6.202   3.996  18.784  0.00  0.00    +0.000 OA
ATOM     14  H   UNL     1       6.530   4.795  19.246  0.00  0.00    +0.000 HD
ENDBRANCH   9  13
TORSDOF 2
ENDMDL
MODEL 5
REMARK VINA RESULT:      -5.9      3.232      4.233
REMARK  Name = 
REMARK  5 active torsions:
REMARK  status: ('A' for Active; 'I' for Inactive)
REMARK    1  A    between atoms: C_1  and  C_2
REMARK    2  A    between atoms: C_2  and  C_3
REMARK    3  A    between atoms: C_7  and  C_8
REMARK    4  A    between atoms: C_7  and  O_9
REMARK    5  A    between atoms: C_10  and  O_11
REMARK                            x       y       z     vdW  Elec       q    Type
REMARK                         _______ _______ _______ _____ _____    ______ ____
ROOT
ATOM      1  C   UNL     1       1.467   5.856  20.493  0.00  0.00    +0.000 C 
ATOM      2  C   UNL     1       1.959   4.529  19.868  0.00  0.00    +0.000 C 
ATOM      3  C   UNL     1       1.080   3.427  20.462  0.00  0.00    +0.000 C 
ATOM      4  C   UNL     1       2.145   4.563  18.290  0.00  0.00    +0.000 C 
ATOM      5  C   UNL     1       3.501   5.272  18.568  0.00  0.00    +0.000 C 
ATOM      6  C   UNL     1       3.553   4.369  19.845  0.00  0.00    +0.000 C 
ATOM      7  C   UNL     1       4.164   3.002  19.465  0.00  0.00    +0.000 C 
ATOM      8  C   UNL     1       4.414   2.147  20.704  0.00  0.00    +0.000 C 
ATOM      9  C   UNL     1       3.270   2.275  18.419  0.00  0.00    +0.000 C 
ATOM     10  C   UNL     1       2.434   3.241  17.557  0.00  0.00    +0.000 C 
ENDROOT
BRANCH   7  11
ATOM     11  O   UNL     1       5.451   3.225  18.848  0.00  0.00    +0.000 OA
ATOM     12  H   UNL     1       5.573   4.188  18.765  0.00  0.00    +0.000 HD
ENDBRANCH   7  11
BRANCH   9  13
ATOM     13  O   UNL     1       4.072   1.463  17.559  0.00  0.00    +0.000 OA
ATOM     14  H   UNL     1       4.341   0.706  18.119  0.00  0.00    +0.000 HD
ENDBRANCH   9  13
TORSDOF 2
ENDMDL
MODEL 6
REMARK VINA RESULT:      -5.9      1.389      2.718
REMARK  Name = 
REMARK  5 active torsions:
REMARK  status: ('A' for Active; 'I' for Inactive)
REMARK    1  A    between atoms: C_1  and  C_2
REMARK    2  A    between atoms: C_2  and  C_3
REMARK    3  A    between atoms: C_7  and  C_8
REMARK    4  A    between atoms: C_7  and  O_9
REMARK    5  A    between atoms: C_10  and  O_11
REMARK                            x       y       z     vdW  Elec       q    Type
REMARK                         _______ _______ _______ _____ _____    ______ ____
ROOT
ATOM      1  C   UNL     1       2.331   5.547  18.243  0.00  0.00    +0.000 C 
ATOM      2  C   UNL     1       3.820   5.543  17.824  0.00  0.00    +0.000 C 
ATOM      3  C   UNL     1       4.161   6.987  17.453  0.00  0.00    +0.000 C 
ATOM      4  C   UNL     1       4.793   4.783  18.825  0.00  0.00    +0.000 C 
ATOM      5  C   UNL     1       4.299   3.473  18.148  0.00  0.00    +0.000 C 
ATOM      6  C   UNL     1       4.221   4.339  16.846  0.00  0.00    +0.000 C 
ATOM      7  C   UNL     1       5.610   4.353  16.172  0.00  0.00    +0.000 C 
ATOM      8  C   UNL     1       5.552   5.024  14.802  0.00  0.00    +0.000 C 
ATOM      9  C   UNL     1       6.666   5.012  17.106  0.00  0.00    +0.000 C 
ATOM     10  C   UNL     1       6.311   4.898  18.601  0.00  0.00    +0.000 C 
ENDROOT
BRANCH   7  11
ATOM     11  O   UNL     1       6.029   2.989  15.947  0.00  0.00    +0.000 OA
ATOM     12  H   UNL     1       5.266   2.413  16.131  0.00  0.00    +0.000 HD
ENDBRANCH   7  11
BRANCH   9  13
ATOM     13  O   UNL     1       7.953   4.431  16.890  0.00  0.00    +0.000 OA
ATOM     14  H   UNL     1       7.884   4.004  16.011  0.00  0.00    +0.000 HD
ENDBRANCH   9  13
TORSDOF 2
ENDMDL
MODEL 7
REMARK VINA RESULT:      -5.8      3.022      4.159
REMARK  Name = 
REMARK  5 active torsions:
REMARK  status: ('A' for Active; 'I' for Inactive)
REMARK    1  A    between atoms: C_1  and  C_2
REMARK    2  A    between atoms: C_2  and  C_3
REMARK    3  A    between atoms: C_7  and  C_8
REMARK    4  A    between atoms: C_7  and  O_9
REMARK    5  A    between atoms: C_10  and  O_11
REMARK                            x       y       z     vdW  Elec       q    Type
REMARK                         _______ _______ _______ _____ _____    ______ ____
ROOT
ATOM      1  C   UNL     1       3.146   6.508  18.173  0.00  0.00    +0.000 C 
ATOM      2  C   UNL     1       3.076   4.963  18.229  0.00  0.00    +0.000 C 
ATOM      3  C   UNL     1       1.591   4.602  18.174  0.00  0.00    +0.000 C 
ATOM      4  C   UNL     1       4.063   4.214  17.233  0.00  0.00    +0.000 C 
ATOM      5  C   UNL     1       5.173   4.492  18.286  0.00  0.00    +0.000 C 
ATOM      6  C   UNL     1       4.029   4.306  19.338  0.00  0.00    +0.000 C 
ATOM      7  C   UNL     1       3.882   2.802  19.654  0.00  0.00    +0.000 C 
ATOM      8  C   UNL     1       2.913   2.574  20.811  0.00  0.00    +0.000 C 
ATOM      9  C   UNL     1       3.473   2.010  18.379  0.00  0.00    +0.000 C 
ATOM     10  C   UNL     1       3.923   2.690  17.071  0.00  0.00    +0.000 C 
ENDROOT
BRANCH   7  11
ATOM     11  O   UNL     1       5.165   2.291  20.083  0.00  0.00    +0.000 OA
ATOM     12  H   UNL     1       5.837   2.637  19.469  0.00  0.00    +0.000 HD
ENDBRANCH   7  11
BRANCH   9  13
ATOM     13  O   UNL     1       4.009   0.687  18.421  0.00  0.00    +0.000 OA
ATOM     14  H   UNL     1       4.979   0.814  18.371  0.00  0.00    +0.000 HD
ENDBRANCH   9  13
TORSDOF 2
ENDMDL
MODEL 8
REMARK VINA RESULT:      -5.8      3.894      5.217
REMARK  Name = 
REMARK  5 active torsions:
REMARK  status: ('A' for Active; 'I' for Inactive)
REMARK    1  A    between atoms: C_1  and  C_2
REMARK    2  A    between atoms: C_2  and  C_3
REMARK    3  A    between atoms: C_7  and  C_8
REMARK    4  A    between atoms: C_7  and  O_9
REMARK    5  A    between atoms: C_10  and  O_11
REMARK                            x       y       z     vdW  Elec       q    Type
REMARK                         _______ _______ _______ _____ _____    ______ ____
ROOT
ATOM      1  C   UNL     1       1.519   5.961  20.736  0.00  0.00    +0.000 C 
ATOM      2  C   UNL     1       2.403   4.856  20.110  0.00  0.00    +0.000 C 
ATOM      3  C   UNL     1       3.708   5.538  19.697  0.00  0.00    +0.000 C 
ATOM      4  C   UNL     1       2.499   3.516  20.960  0.00  0.00    +0.000 C 
ATOM      5  C   UNL     1       1.113   3.155  20.356  0.00  0.00    +0.000 C 
ATOM      6  C   UNL     1       1.627   3.903  19.082  0.00  0.00    +0.000 C 
ATOM      7  C   UNL     1       2.440   2.915  18.217  0.00  0.00    +0.000 C 
ATOM      8  C   UNL     1       2.808   3.534  16.871  0.00  0.00    +0.000 C 
ATOM      9  C   UNL     1       3.689   2.407  18.993  0.00  0.00    +0.000 C 
ATOM     10  C   UNL     1       3.510   2.442  20.523  0.00  0.00    +0.000 C 
ENDROOT
BRANCH   7  11
ATOM     11  O   UNL     1       1.615   1.763  17.931  0.00  0.00    +0.000 OA
ATOM     12  H   UNL     1       1.230   1.463  18.773  0.00  0.00    +0.000 HD
ENDBRANCH   7  11
BRANCH   9  13
ATOM     13  O   UNL     1       4.014   1.074  18.594  0.00  0.00    +0.000 OA
ATOM     14  H   UNL     1       3.654   0.996  17.687  0.00  0.00    +0.000 HD
ENDBRANCH   9  13
TORSDOF 2
ENDMDL
MODEL 9
REMARK VINA RESULT:      -5.7      3.995      5.335
REMARK  Name = 
REMARK  5 active torsions:
REMARK  status: ('A' for Active; 'I' for Inactive)
REMARK    1  A    between atoms: C_1  and  C_2
REMARK    2  A    between atoms: C_2  and  C_3
REMARK    3  A    between atoms: C_7  and  C_8
REMARK    4  A    between atoms: C_7  and  O_9
REMARK    5  A    between atoms: C_10  and  O_11
REMARK                            x       y       z     vdW  Elec       q    Type
REMARK                         _______ _______ _______ _____ _____    ______ ____
ROOT
ATOM      1  C   UNL     1       4.112   4.066  16.680  0.00  0.00    +0.000 C 
ATOM      2  C   UNL     1       3.571   3.461  17.997  0.00  0.00    +0.000 C 
ATOM      3  C   UNL     1       2.690   2.278  17.592  0.00  0.00    +0.000 C 
ATOM      4  C   UNL     1       4.668   3.221  19.122  0.00  0.00    +0.000 C 
ATOM      5  C   UNL     1       4.540   4.740  19.427  0.00  0.00    +0.000 C 
ATOM      6  C   UNL     1       3.034   4.549  19.044  0.00  0.00    +0.000 C 
ATOM      7  C   UNL     1       2.259   4.069  20.291  0.00  0.00    +0.000 C 
ATOM      8  C   UNL     1       0.756   4.045  20.030  0.00  0.00    +0.000 C 
ATOM      9  C   UNL     1       2.795   2.690  20.773  0.00  0.00    +0.000 C 
ATOM     10  C   UNL     1       4.265   2.440  20.384  0.00  0.00    +0.000 C 
ENDROOT
BRANCH   7  11
ATOM     11  O   UNL     1       2.479   5.013  21.364  0.00  0.00    +0.000 OA
ATOM     12  H   UNL     1       3.380   4.866  21.703  0.00  0.00    +0.000 HD
ENDBRANCH   7  11
BRANCH   9  13
ATOM     13  O   UNL     1       2.664   2.573  22.190  0.00  0.00    +0.000 OA
ATOM     14  H   UNL     1       3.261   1.834  22.431  0.00  0.00    +0.000 HD
ENDBRANCH   9  13
TORSDOF 2
ENDMDL
