MODEL 1
REMARK VINA RESULT:      -6.8      0.000      0.000
REMARK  Name = 
REMARK  7 active torsions:
REMARK  status: ('A' for Active; 'I' for Inactive)
REMARK    1  A    between atoms: C_1  and  O_2
REMARK    2  A    between atoms: O_2  and  C_3
REMARK    3  A    between atoms: C_6  and  C_7
REMARK    4  A    between atoms: C_15  and  O_16
REMARK    5  A    between atoms: O_16  and  C_17
REMARK    6  A    between atoms: C_19  and  O_20
REMARK    7  A    between atoms: C_22  and  C_23
REMARK                            x       y       z     vdW  Elec       q    Type
REMARK                         _______ _______ _______ _____ _____    ______ ____
ROOT
ATOM      1  C   UNL     1       3.284   7.421  17.835  0.00  0.00    +0.000 C 
ATOM      2  O   UNL     1       4.361   7.968  17.575  0.00  0.00    +0.000 OA
ATOM      3  N   UNL     1       3.060   6.061  17.563  0.00  0.00    +0.000 N 
ATOM      4  C   UNL     1       4.204   5.207  17.257  0.00  0.00    +0.000 C 
ATOM      5  C   UNL     1       4.421   4.218  18.405  0.00  0.00    +0.000 C 
ATOM      6  C   UNL     1       3.132   3.422  18.739  0.00  0.00    +0.000 C 
ATOM      7  C   UNL     1       1.912   4.349  18.872  0.00  0.00    +0.000 C 
ATOM      8  C   UNL     1       1.817   5.299  17.675  0.00  0.00    +0.000 C 
ATOM      9  C   UNL     1       3.358   2.500  19.992  0.00  0.00    +0.000 C 
ATOM     10  C   UNL     1       3.684   1.346  19.018  0.00  0.00    +0.000 C 
ATOM     11  C   UNL     1       2.904   2.106  17.924  0.00  0.00    +0.000 C 
ENDROOT
BRANCH   1  15
ATOM     12  C   UNL     1       0.213   9.831  19.723  0.00  0.00    +0.000 A 
ATOM     13  C   UNL     1       0.465   9.942  18.359  0.00  0.00    +0.000 A 
ATOM     14  C   UNL     1       1.423   9.134  17.750  0.00  0.00    +0.000 A 
ATOM     15  C   UNL     1       2.240   8.284  18.486  0.00  0.00    +0.000 A 
ATOM     16  C   UNL     1       1.968   8.141  19.856  0.00  0.00    +0.000 A 
ATOM     17  C   UNL     1       0.941   8.893  20.476  0.00  0.00    +0.000 A 
ATOM     18  C   UNL     1       0.591   8.647  21.918  0.00  0.00    +0.000 C 
BRANCH  12  20
ATOM     19  C   UNL     1      -1.435  11.540  19.615  0.00  0.00    +0.000 C 
ATOM     20  O   UNL     1      -0.735  10.563  20.384  0.00  0.00    +0.000 OA
ENDBRANCH  12  20
ENDBRANCH   1  15
BRANCH   9  21
ATOM     21  O   UNL     1       2.199   2.280  20.834  0.00  0.00    +0.000 OA
ATOM     22  C   UNL     1       2.141   3.070  22.017  0.00  0.00    +0.000 C 
ENDBRANCH   9  21
BRANCH  11  23
ATOM     23  O   UNL     1       1.535   1.676  17.745  0.00  0.00    +0.000 OA
ATOM     24  H   UNL     1       1.455   0.859  18.276  0.00  0.00    +0.000 HD
ENDBRANCH  11  23
TORSDOF 4
ENDMDL
MODEL 2
REMARK VINA RESULT:      -6.6      0.716      1.567
REMARK  Name = 
REMARK  7 active torsions:
REMARK  status: ('A' for Active; 'I' for Inactive)
REMARK    1  A    between atoms: C_1  and  O_2
REMARK    2  A    between atoms: O_2  and  C_3
REMARK    3  A    between atoms: C_6  and  C_7
REMARK    4  A    between atoms: C_15  and  O_16
REMARK    5  A    between atoms: O_16  and  C_17
REMARK    6  A    between atoms: C_19  and  O_20
REMARK    7  A    between atoms: C_22  and  C_23
REMARK                            x       y       z     vdW  Elec       q    Type
REMARK                         _______ _______ _______ _____ _____    ______ ____
ROOT
ATOM      1  C   UNL     1       2.984   7.465  18.085  0.00  0.00    +0.000 C 
ATOM      2  O   UNL     1       4.002   8.081  17.754  0.00  0.00    +0.000 OA
ATOM      3  N   UNL     1       2.785   6.120  17.732  0.00  0.00    +0.000 N 
ATOM      4  C   UNL     1       3.921   5.347  17.239  0.00  0.00    +0.000 C 
ATOM      5  C   UNL     1       4.305   4.288  18.275  0.00  0.00    +0.000 C 
ATOM      6  C   UNL     1       3.093   3.408  18.682  0.00  0.00    +0.000 C 
ATOM      7  C   UNL     1       1.859   4.262  19.019  0.00  0.00    +0.000 C 
ATOM      8  C   UNL     1       1.594   5.293  17.918  0.00  0.00    +0.000 C 
ATOM      9  C   UNL     1       3.495   2.408  19.827  0.00  0.00    +0.000 C 
ATOM     10  C   UNL     1       3.756   1.346  18.736  0.00  0.00    +0.000 C 
ATOM     11  C   UNL     1       2.829   2.146  17.795  0.00  0.00    +0.000 C 
ENDROOT
BRANCH   1  15
ATOM     12  C   UNL     1       0.164   9.737  20.470  0.00  0.00    +0.000 A 
ATOM     13  C   UNL     1       0.856   8.663  21.020  0.00  0.00    +0.000 A 
ATOM     14  C   UNL     1       1.793   7.964  20.262  0.00  0.00    +0.000 A 
ATOM     15  C   UNL     1       1.985   8.226  18.910  0.00  0.00    +0.000 A 
ATOM     16  C   UNL     1       1.316   9.330  18.358  0.00  0.00    +0.000 A 
ATOM     17  C   UNL     1       0.423  10.104  19.138  0.00  0.00    +0.000 A 
ATOM     18  C   UNL     1      -0.199  11.347  18.562  0.00  0.00    +0.000 C 
BRANCH  12  20
ATOM     19  C   UNL     1      -0.591  10.531  22.579  0.00  0.00    +0.000 C 
ATOM     20  O   UNL     1      -0.744  10.493  21.161  0.00  0.00    +0.000 OA
ENDBRANCH  12  20
ENDBRANCH   1  15
BRANCH   9  21
ATOM     21  O   UNL     1       2.446   2.070  20.770  0.00  0.00    +0.000 OA
ATOM     22  C   UNL     1       2.325   2.940  21.890  0.00  0.00    +0.000 C 
ENDBRANCH   9  21
BRANCH  11  23
ATOM     23  O   UNL     1       1.468   1.664  17.732  0.00  0.00    +0.000 OA
ATOM     24  H   UNL     1       1.081   1.880  18.604  0.00  0.00    +0.000 HD
ENDBRANCH  11  23
TORSDOF 4
ENDMDL
MODEL 3
REMARK VINA RESULT:      -6.4      2.532      7.391
REMARK  Name = 
REMARK  7 active torsions:
REMARK  status: ('A' for Active; 'I' for Inactive)
REMARK    1  A    between atoms: C_1  and  O_2
REMARK    2  A    between atoms: O_2  and  C_3
REMARK    3  A    between atoms: C_6  and  C_7
REMARK    4  A    between atoms: C_15  and  O_16
REMARK    5  A    between atoms: O_16  and  C_17
REMARK    6  A    between atoms: C_19  and  O_20
REMARK    7  A    between atoms: C_22  and  C_23
REMARK                            x       y       z     vdW  Elec       q    Type
REMARK                         _______ _______ _______ _____ _____    ______ ____
ROOT
ATOM      1  C   UNL     1       3.317   5.923  19.185  0.00  0.00    +0.000 C 
ATOM      2  O   UNL     1       3.460   5.298  20.241  0.00  0.00    +0.000 OA
ATOM      3  N   UNL     1       2.210   6.760  18.965  0.00  0.00    +0.000 N 
ATOM      4  C   UNL     1       1.378   7.140  20.102  0.00  0.00    +0.000 C 
ATOM      5  C   UNL     1       1.559   8.633  20.389  0.00  0.00    +0.000 C 
ATOM      6  C   UNL     1       1.310   9.501  19.127  0.00  0.00    +0.000 C 
ATOM      7  C   UNL     1       2.064   8.954  17.904  0.00  0.00    +0.000 C 
ATOM      8  C   UNL     1       1.817   7.452  17.738  0.00  0.00    +0.000 C 
ATOM      9  C   UNL     1       1.614  11.014  19.427  0.00  0.00    +0.000 C 
ATOM     10  C   UNL     1       0.109  11.205  19.718  0.00  0.00    +0.000 C 
ATOM     11  C   UNL     1      -0.170   9.941  18.875  0.00  0.00    +0.000 C 
ENDROOT
BRANCH   1  15
ATOM     12  C   UNL     1       6.437   5.547  16.197  0.00  0.00    +0.000 A 
ATOM     13  C   UNL     1       5.305   4.740  16.148  0.00  0.00    +0.000 A 
ATOM     14  C   UNL     1       4.285   4.895  17.086  0.00  0.00    +0.000 A 
ATOM     15  C   UNL     1       4.407   5.763  18.164  0.00  0.00    +0.000 A 
ATOM     16  C   UNL     1       5.530   6.605  18.200  0.00  0.00    +0.000 A 
ATOM     17  C   UNL     1       6.536   6.520  17.208  0.00  0.00    +0.000 A 
ATOM     18  C   UNL     1       7.675   7.503  17.200  0.00  0.00    +0.000 C 
BRANCH  12  20
ATOM     19  C   UNL     1       7.162   4.868  14.038  0.00  0.00    +0.000 C 
ATOM     20  O   UNL     1       7.461   5.478  15.292  0.00  0.00    +0.000 OA
ENDBRANCH  12  20
ENDBRANCH   1  15
BRANCH   9  21
ATOM     21  O   UNL     1       2.124  11.790  18.314  0.00  0.00    +0.000 OA
ATOM     22  C   UNL     1       2.434  13.149  18.603  0.00  0.00    +0.000 C 
ENDBRANCH   9  21
BRANCH  11  23
ATOM     23  O   UNL     1      -0.552  10.199  17.505  0.00  0.00    +0.000 OA
ATOM     24  H   UNL     1      -0.423   9.348  17.041  0.00  0.00    +0.000 HD
ENDBRANCH  11  23
TORSDOF 4
ENDMDL
MODEL 4
REMARK VINA RESULT:      -6.1      2.769      8.075
REMARK  Name = 
REMARK  7 active torsions:
REMARK  status: ('A' for Active; 'I' for Inactive)
REMARK    1  A    between atoms: C_1  and  O_2
REMARK    2  A    between atoms: O_2  and  C_3
REMARK    3  A    between atoms: C_6  and  C_7
REMARK    4  A    between atoms: C_15  and  O_16
REMARK    5  A    between atoms: O_16  and  C_17
REMARK    6  A    between atoms: C_19  and  O_20
REMARK    7  A    between atoms: C_22  and  C_23
REMARK                            x       y       z     vdW  Elec       q    Type
REMARK                         _______ _______ _______ _____ _____    ______ ____
ROOT
ATOM      1  C   UNL     1       1.442   8.277  20.297  0.00  0.00    +0.000 C 
ATOM      2  O   UNL     1       1.466   7.917  21.478  0.00  0.00    +0.000 OA
ATOM      3  N   UNL     1       0.702   9.396  19.880  0.00  0.00    +0.000 N 
ATOM      4  C   UNL     1       0.206  10.328  20.889  0.00  0.00    +0.000 C 
ATOM      5  C   UNL     1       0.955  11.657  20.767  0.00  0.00    +0.000 C 
ATOM      6  C   UNL     1       0.898  12.225  19.324  0.00  0.00    +0.000 C 
ATOM      7  C   UNL     1       1.251  11.155  18.278  0.00  0.00    +0.000 C 
ATOM      8  C   UNL     1       0.452   9.872  18.520  0.00  0.00    +0.000 C 
ATOM      9  C   UNL     1       1.769  13.529  19.207  0.00  0.00    +0.000 C 
ATOM     10  C   UNL     1       0.485  14.348  19.461  0.00  0.00    +0.000 C 
ATOM     11  C   UNL     1      -0.335  13.128  18.988  0.00  0.00    +0.000 C 
ENDROOT
BRANCH   1  15
ATOM     12  C   UNL     1       3.907   5.948  17.596  0.00  0.00    +0.000 A 
ATOM     13  C   UNL     1       3.654   7.292  17.345  0.00  0.00    +0.000 A 
ATOM     14  C   UNL     1       2.896   8.047  18.239  0.00  0.00    +0.000 A 
ATOM     15  C   UNL     1       2.270   7.470  19.338  0.00  0.00    +0.000 A 
ATOM     16  C   UNL     1       2.551   6.123  19.616  0.00  0.00    +0.000 A 
ATOM     17  C   UNL     1       3.387   5.363  18.763  0.00  0.00    +0.000 A 
ATOM     18  C   UNL     1       3.764   3.955  19.136  0.00  0.00    +0.000 C 
BRANCH  12  20
ATOM     19  C   UNL     1       5.362   5.806  15.722  0.00  0.00    +0.000 C 
ATOM     20  O   UNL     1       4.670   5.153  16.784  0.00  0.00    +0.000 OA
ENDBRANCH  12  20
ENDBRANCH   1  15
BRANCH   9  21
ATOM     21  O   UNL     1       2.397  13.758  17.920  0.00  0.00    +0.000 OA
ATOM     22  C   UNL     1       3.210  14.923  17.832  0.00  0.00    +0.000 C 
ENDBRANCH   9  21
BRANCH  11  23
ATOM     23  O   UNL     1      -0.752  13.177  17.605  0.00  0.00    +0.000 OA
ATOM     24  H   UNL     1      -0.083  12.655  17.119  0.00  0.00    +0.000 HD
ENDBRANCH  11  23
TORSDOF 4
ENDMDL
MODEL 5
REMARK VINA RESULT:      -6.1      2.218      4.022
REMARK  Name = 
REMARK  7 active torsions:
REMARK  status: ('A' for Active; 'I' for Inactive)
REMARK    1  A    between atoms: C_1  and  O_2
REMARK    2  A    between atoms: O_2  and  C_3
REMARK    3  A    between atoms: C_6  and  C_7
REMARK    4  A    between atoms: C_15  and  O_16
REMARK    5  A    between atoms: O_16  and  C_17
REMARK    6  A    between atoms: C_19  and  O_20
REMARK    7  A    between atoms: C_22  and  C_23
REMARK                            x       y       z     vdW  Elec       q    Type
REMARK                         _______ _______ _______ _____ _____    ______ ____
ROOT
ATOM      1  C   UNL     1       2.403   5.792  19.688  0.00  0.00    +0.000 C 
ATOM      2  O   UNL     1       1.550   4.989  20.078  0.00  0.00    +0.000 OA
ATOM      3  N   UNL     1       3.682   5.374  19.282  0.00  0.00    +0.000 N 
ATOM      4  C   UNL     1       3.908   3.955  19.021  0.00  0.00    +0.000 C 
ATOM      5  C   UNL     1       4.132   3.743  17.521  0.00  0.00    +0.000 C 
ATOM      6  C   UNL     1       5.256   4.658  16.967  0.00  0.00    +0.000 C 
ATOM      7  C   UNL     1       5.078   6.116  17.421  0.00  0.00    +0.000 C 
ATOM      8  C   UNL     1       4.842   6.191  18.932  0.00  0.00    +0.000 C 
ATOM      9  C   UNL     1       5.384   4.497  15.408  0.00  0.00    +0.000 C 
ATOM     10  C   UNL     1       6.502   3.462  15.658  0.00  0.00    +0.000 C 
ATOM     11  C   UNL     1       6.712   4.090  17.054  0.00  0.00    +0.000 C 
ENDROOT
BRANCH   1  15
ATOM     12  C   UNL     1       1.111   9.929  19.570  0.00  0.00    +0.000 A 
ATOM     13  C   UNL     1       1.605   9.306  18.428  0.00  0.00    +0.000 A 
ATOM     14  C   UNL     1       1.978   7.964  18.461  0.00  0.00    +0.000 A 
ATOM     15  C   UNL     1       1.989   7.235  19.645  0.00  0.00    +0.000 A 
ATOM     16  C   UNL     1       1.458   7.847  20.792  0.00  0.00    +0.000 A 
ATOM     17  C   UNL     1       0.996   9.184  20.756  0.00  0.00    +0.000 A 
ATOM     18  C   UNL     1       0.331   9.785  21.964  0.00  0.00    +0.000 C 
BRANCH  12  20
ATOM     19  C   UNL     1      -0.387  11.576  18.739  0.00  0.00    +0.000 C 
ATOM     20  O   UNL     1       0.692  11.231  19.606  0.00  0.00    +0.000 OA
ENDBRANCH  12  20
ENDBRANCH   1  15
BRANCH   9  21
ATOM     21  O   UNL     1       5.797   5.681  14.681  0.00  0.00    +0.000 OA
ATOM     22  C   UNL     1       6.880   5.499  13.775  0.00  0.00    +0.000 C 
ENDBRANCH   9  21
BRANCH  11  23
ATOM     23  O   UNL     1       7.787   5.053  17.130  0.00  0.00    +0.000 OA
ATOM     24  H   UNL     1       8.602   4.537  16.970  0.00  0.00    +0.000 HD
ENDBRANCH  11  23
TORSDOF 4
ENDMDL
MODEL 6
REMARK VINA RESULT:      -5.9      2.774      8.185
REMARK  Name = 
REMARK  7 active torsions:
REMARK  status: ('A' for Active; 'I' for Inactive)
REMARK    1  A    between atoms: C_1  and  O_2
REMARK    2  A    between atoms: O_2  and  C_3
REMARK    3  A    between atoms: C_6  and  C_7
REMARK    4  A    between atoms: C_15  and  O_16
REMARK    5  A    between atoms: O_16  and  C_17
REMARK    6  A    between atoms: C_19  and  O_20
REMARK    7  A    between atoms: C_22  and  C_23
REMARK                            x       y       z     vdW  Elec       q    Type
REMARK                         _______ _______ _______ _____ _____    ______ ____
ROOT
ATOM      1  C   UNL     1       0.632   8.629  21.211  0.00  0.00    +0.000 C 
ATOM      2  O   UNL     1       0.518   8.500  22.434  0.00  0.00    +0.000 OA
ATOM      3  N   UNL     1       0.022   9.687  20.517  0.00  0.00    +0.000 N 
ATOM      4  C   UNL     1      -0.496  10.820  21.278  0.00  0.00    +0.000 C 
ATOM      5  C   UNL     1       0.359  12.057  20.993  0.00  0.00    +0.000 C 
ATOM      6  C   UNL     1       0.482  12.341  19.472  0.00  0.00    +0.000 C 
ATOM      7  C   UNL     1       0.851  11.073  18.686  0.00  0.00    +0.000 C 
ATOM      8  C   UNL     1      -0.062   9.906  19.074  0.00  0.00    +0.000 C 
ATOM      9  C   UNL     1       1.455  13.548  19.210  0.00  0.00    +0.000 C 
ATOM     10  C   UNL     1       0.218  14.471  19.170  0.00  0.00    +0.000 C 
ATOM     11  C   UNL     1      -0.643  13.230  18.845  0.00  0.00    +0.000 C 
ENDROOT
BRANCH   1  15
ATOM     12  C   UNL     1       3.031   5.684  19.118  0.00  0.00    +0.000 A 
ATOM     13  C   UNL     1       2.274   5.324  20.228  0.00  0.00    +0.000 A 
ATOM     14  C   UNL     1       1.471   6.265  20.871  0.00  0.00    +0.000 A 
ATOM     15  C   UNL     1       1.485   7.608  20.512  0.00  0.00    +0.000 A 
ATOM     16  C   UNL     1       2.219   7.971  19.371  0.00  0.00    +0.000 A 
ATOM     17  C   UNL     1       2.974   7.011  18.656  0.00  0.00    +0.000 A 
ATOM     18  C   UNL     1       3.664   7.395  17.375  0.00  0.00    +0.000 C 
BRANCH  12  20
ATOM     19  C   UNL     1       4.960   4.297  19.090  0.00  0.00    +0.000 C 
ATOM     20  O   UNL     1       3.814   4.810  18.414  0.00  0.00    +0.000 OA
ENDBRANCH  12  20
ENDBRANCH   1  15
BRANCH   9  21
ATOM     21  O   UNL     1       2.217  13.491  17.978  0.00  0.00    +0.000 OA
ATOM     22  C   UNL     1       3.224  14.486  17.832  0.00  0.00    +0.000 C 
ENDBRANCH   9  21
BRANCH  11  23
ATOM     23  O   UNL     1      -0.922  13.037  17.440  0.00  0.00    +0.000 OA
ATOM     24  H   UNL     1      -0.047  13.048  17.003  0.00  0.00    +0.000 HD
ENDBRANCH  11  23
TORSDOF 4
ENDMDL
MODEL 7
REMARK VINA RESULT:      -5.8      2.142      4.225
REMARK  Name = 
REMARK  7 active torsions:
REMARK  status: ('A' for Active; 'I' for Inactive)
REMARK    1  A    between atoms: C_1  and  O_2
REMARK    2  A    between atoms: O_2  and  C_3
REMARK    3  A    between atoms: C_6  and  C_7
REMARK    4  A    between atoms: C_15  and  O_16
REMARK    5  A    between atoms: O_16  and  C_17
REMARK    6  A    between atoms: C_19  and  O_20
REMARK    7  A    between atoms: C_22  and  C_23
REMARK                            x       y       z     vdW  Elec       q    Type
REMARK                         _______ _______ _______ _____ _____    ______ ____
ROOT
ATOM      1  C   UNL     1       2.268   5.371  19.883  0.00  0.00    +0.000 C 
ATOM      2  O   UNL     1       1.425   4.519  20.182  0.00  0.00    +0.000 OA
ATOM      3  N   UNL     1       3.557   5.017  19.452  0.00  0.00    +0.000 N 
ATOM      4  C   UNL     1       3.812   3.635  19.055  0.00  0.00    +0.000 C 
ATOM      5  C   UNL     1       4.054   3.575  17.545  0.00  0.00    +0.000 C 
ATOM      6  C   UNL     1       5.167   4.559  17.096  0.00  0.00    +0.000 C 
ATOM      7  C   UNL     1       4.957   5.963  17.688  0.00  0.00    +0.000 C 
ATOM      8  C   UNL     1       4.706   5.885  19.197  0.00  0.00    +0.000 C 
ATOM      9  C   UNL     1       5.312   4.555  15.530  0.00  0.00    +0.000 C 
ATOM     10  C   UNL     1       6.447   3.519  15.690  0.00  0.00    +0.000 C 
ATOM     11  C   UNL     1       6.632   4.011  17.143  0.00  0.00    +0.000 C 
ENDROOT
BRANCH   1  15
ATOM     12  C   UNL     1       1.091   9.535  20.152  0.00  0.00    +0.000 A 
ATOM     13  C   UNL     1       0.973   8.692  21.251  0.00  0.00    +0.000 A 
ATOM     14  C   UNL     1       1.393   7.365  21.172  0.00  0.00    +0.000 A 
ATOM     15  C   UNL     1       1.827   6.804  19.976  0.00  0.00    +0.000 A 
ATOM     16  C   UNL     1       1.982   7.659  18.873  0.00  0.00    +0.000 A 
ATOM     17  C   UNL     1       1.639   9.029  18.960  0.00  0.00    +0.000 A 
ATOM     18  C   UNL     1       1.915   9.951  17.804  0.00  0.00    +0.000 C 
BRANCH  12  20
ATOM     19  C   UNL     1      -0.660  11.137  20.276  0.00  0.00    +0.000 C 
ATOM     20  O   UNL     1       0.734  10.856  20.164  0.00  0.00    +0.000 OA
ENDBRANCH  12  20
ENDBRANCH   1  15
BRANCH   9  21
ATOM     21  O   UNL     1       5.711   5.811  14.927  0.00  0.00    +0.000 OA
ATOM     22  C   UNL     1       6.823   5.742  14.042  0.00  0.00    +0.000 C 
ENDBRANCH   9  21
BRANCH  11  23
ATOM     23  O   UNL     1       7.688   4.980  17.325  0.00  0.00    +0.000 OA
ATOM     24  H   UNL     1       7.793   5.408  16.452  0.00  0.00    +0.000 HD
ENDBRANCH  11  23
TORSDOF 4
ENDMDL
MODEL 8
REMARK VINA RESULT:      -5.8      3.883      7.379
REMARK  Name = 
REMARK  7 active torsions:
REMARK  status: ('A' for Active; 'I' for Inactive)
REMARK    1  A    between atoms: C_1  and  O_2
REMARK    2  A    between atoms: O_2  and  C_3
REMARK    3  A    between atoms: C_6  and  C_7
REMARK    4  A    between atoms: C_15  and  O_16
REMARK    5  A    between atoms: O_16  and  C_17
REMARK    6  A    between atoms: C_19  and  O_20
REMARK    7  A    between atoms: C_22  and  C_23
REMARK                            x       y       z     vdW  Elec       q    Type
REMARK                         _______ _______ _______ _____ _____    ______ ____
ROOT
ATOM      1  C   UNL     1       5.446   5.927  15.360  0.00  0.00    +0.000 C 
ATOM      2  O   UNL     1       5.449   7.136  15.108  0.00  0.00    +0.000 OA
ATOM      3  N   UNL     1       5.139   5.439  16.641  0.00  0.00    +0.000 N 
ATOM      4  C   UNL     1       4.516   6.340  17.606  0.00  0.00    +0.000 C 
ATOM      5  C   UNL     1       3.073   5.896  17.859  0.00  0.00    +0.000 C 
ATOM      6  C   UNL     1       2.988   4.402  18.269  0.00  0.00    +0.000 C 
ATOM      7  C   UNL     1       3.812   3.507  17.328  0.00  0.00    +0.000 C 
ATOM      8  C   UNL     1       5.224   4.068  17.142  0.00  0.00    +0.000 C 
ATOM      9  C   UNL     1       1.488   3.951  18.411  0.00  0.00    +0.000 C 
ATOM     10  C   UNL     1       1.597   4.244  19.923  0.00  0.00    +0.000 C 
ATOM     11  C   UNL     1       3.130   4.098  19.797  0.00  0.00    +0.000 C 
ENDROOT
BRANCH   1  15
ATOM     12  C   UNL     1       6.304   3.199  12.100  0.00  0.00    +0.000 A 
ATOM     13  C   UNL     1       7.313   3.614  12.963  0.00  0.00    +0.000 A 
ATOM     14  C   UNL     1       7.023   4.457  14.035  0.00  0.00    +0.000 A 
ATOM     15  C   UNL     1       5.760   5.007  14.214  0.00  0.00    +0.000 A 
ATOM     16  C   UNL     1       4.730   4.564  13.369  0.00  0.00    +0.000 A 
ATOM     17  C   UNL     1       4.989   3.643  12.326  0.00  0.00    +0.000 A 
ATOM     18  C   UNL     1       3.856   3.097  11.501  0.00  0.00    +0.000 C 
BRANCH  12  20
ATOM     19  C   UNL     1       6.405   0.952  11.334  0.00  0.00    +0.000 C 
ATOM     20  O   UNL     1       6.504   2.346  11.049  0.00  0.00    +0.000 OA
ENDBRANCH  12  20
ENDBRANCH   1  15
BRANCH   9  21
ATOM     21  O   UNL     1       1.209   2.569  18.075  0.00  0.00    +0.000 OA
ATOM     22  C   UNL     1       0.489   1.831  19.057  0.00  0.00    +0.000 C 
ENDBRANCH   9  21
BRANCH  11  23
ATOM     23  O   UNL     1       3.647   2.799  20.161  0.00  0.00    +0.000 OA
ATOM     24  H   UNL     1       2.961   2.163  19.873  0.00  0.00    +0.000 HD
ENDBRANCH  11  23
TORSDOF 4
ENDMDL
MODEL 9
REMARK VINA RESULT:      -5.8      6.259      8.446
REMARK  Name = 
REMARK  7 active torsions:
REMARK  status: ('A' for Active; 'I' for Inactive)
REMARK    1  A    between atoms: C_1  and  O_2
REMARK    2  A    between atoms: O_2  and  C_3
REMARK    3  A    between atoms: C_6  and  C_7
REMARK    4  A    between atoms: C_15  and  O_16
REMARK    5  A    between atoms: O_16  and  C_17
REMARK    6  A    between atoms: C_19  and  O_20
REMARK    7  A    between atoms: C_22  and  C_23
REMARK                            x       y       z     vdW  Elec       q    Type
REMARK                         _______ _______ _______ _____ _____    ______ ____
ROOT
ATOM      1  C   UNL     1      -0.483  11.470  21.834  0.00  0.00    +0.000 C 
ATOM      2  O   UNL     1       0.228  10.635  22.400  0.00  0.00    +0.000 OA
ATOM      3  N   UNL     1      -0.618  11.501  20.436  0.00  0.00    +0.000 N 
ATOM      4  C   UNL     1      -0.166  10.350  19.660  0.00  0.00    +0.000 C 
ATOM      5  C   UNL     1      -1.377   9.634  19.057  0.00  0.00    +0.000 C 
ATOM      6  C   UNL     1      -2.282  10.602  18.250  0.00  0.00    +0.000 C 
ATOM      7  C   UNL     1      -2.584  11.888  19.039  0.00  0.00    +0.000 C 
ATOM      8  C   UNL     1      -1.297  12.494  19.605  0.00  0.00    +0.000 C 
ATOM      9  C   UNL     1      -3.572   9.861  17.741  0.00  0.00    +0.000 C 
ATOM     10  C   UNL     1      -2.839   9.611  16.405  0.00  0.00    +0.000 C 
ATOM     11  C   UNL     1      -1.909  10.798  16.743  0.00  0.00    +0.000 C 
ENDROOT
BRANCH   1  15
ATOM     12  C   UNL     1      -2.672  14.258  24.332  0.00  0.00    +0.000 A 
ATOM     13  C   UNL     1      -1.455  14.618  23.763  0.00  0.00    +0.000 A 
ATOM     14  C   UNL     1      -0.777  13.734  22.926  0.00  0.00    +0.000 A 
ATOM     15  C   UNL     1      -1.218  12.431  22.724  0.00  0.00    +0.000 A 
ATOM     16  C   UNL     1      -2.463  12.073  23.266  0.00  0.00    +0.000 A 
ATOM     17  C   UNL     1      -3.206  12.988  24.050  0.00  0.00    +0.000 A 
ATOM     18  C   UNL     1      -4.585  12.625  24.530  0.00  0.00    +0.000 C 
BRANCH  12  20
ATOM     19  C   UNL     1      -3.828  16.322  24.561  0.00  0.00    +0.000 C 
ATOM     20  O   UNL     1      -3.412  15.083  25.134  0.00  0.00    +0.000 OA
ENDBRANCH  12  20
ENDBRANCH   1  15
BRANCH   9  21
ATOM     21  O   UNL     1      -4.770  10.672  17.639  0.00  0.00    +0.000 OA
ATOM     22  C   UNL     1      -5.789  10.384  18.590  0.00  0.00    +0.000 C 
ENDBRANCH   9  21
BRANCH  11  23
ATOM     23  O   UNL     1      -2.285  12.054  16.134  0.00  0.00    +0.000 OA
ATOM     24  H   UNL     1      -2.194  11.906  15.171  0.00  0.00    +0.000 HD
ENDBRANCH  11  23
TORSDOF 4
ENDMDL
