MODEL 1
REMARK VINA RESULT:      -7.2      0.000      0.000
REMARK  Name = 
REMARK  6 active torsions:
REMARK  status: ('A' for Active; 'I' for Inactive)
REMARK    1  A    between atoms: C_1  and  C_2
REMARK    2  A    between atoms: C_5  and  O_6
REMARK    3  A    between atoms: O_6  and  C_7
REMARK    4  A    between atoms: C_7  and  C_8
REMARK    5  A    between atoms: C_18  and  C_19
REMARK    6  A    between atoms: C_19  and  O_20
REMARK                            x       y       z     vdW  Elec       q    Type
REMARK                         _______ _______ _______ _____ _____    ______ ____
ROOT
ATOM      1  C   UNL     1       1.846   2.559  21.696  0.00  0.00    +0.000 C 
ATOM      2  C   UNL     1       2.218   3.611  20.723  0.00  0.00    +0.000 A 
ATOM      3  N   UNL     1       1.752   4.882  20.899  0.00  0.00    +0.000 NA
ATOM      4  C   UNL     1       2.298   5.613  19.948  0.00  0.00    +0.000 A 
ATOM      5  C   UNL     1       2.243   7.022  19.679  0.00  0.00    +0.000 A 
ATOM      6  C   UNL     1       2.872   7.510  18.591  0.00  0.00    +0.000 A 
ATOM      7  C   UNL     1       3.648   6.654  17.706  0.00  0.00    +0.000 A 
ATOM      8  C   UNL     1       3.747   5.346  17.987  0.00  0.00    +0.000 A 
ATOM      9  N   UNL     1       3.078   4.827  19.100  0.00  0.00    +0.000 N 
ATOM     10  C   UNL     1       3.036   3.539  19.609  0.00  0.00    +0.000 A 
ENDROOT
BRANCH   5  11
ATOM     11  O   UNL     1       1.572   7.883  20.533  0.00  0.00    +0.000 OA
BRANCH  11  12
ATOM     12  C   UNL     1       1.051   9.073  19.934  0.00  0.00    +0.000 C 
BRANCH  12  13
ATOM     13  C   UNL     1       0.257   9.844  20.956  0.00  0.00    +0.000 A 
ATOM     14  C   UNL     1      -0.319  11.079  20.633  0.00  0.00    +0.000 A 
ATOM     15  C   UNL     1      -1.073  11.772  21.580  0.00  0.00    +0.000 A 
ATOM     16  C   UNL     1      -1.251  11.239  22.856  0.00  0.00    +0.000 A 
ATOM     17  C   UNL     1      -0.674  10.014  23.189  0.00  0.00    +0.000 A 
ATOM     18  C   UNL     1       0.080   9.321  22.244  0.00  0.00    +0.000 A 
ENDBRANCH  12  13
ENDBRANCH  11  12
ENDBRANCH   5  11
BRANCH  10  19
ATOM     19  C   UNL     1       3.783   2.392  19.054  0.00  0.00    +0.000 C 
BRANCH  19  20
ATOM     20  O   UNL     1       5.071   2.392  19.646  0.00  0.00    +0.000 OA
ATOM     21  H   UNL     1       5.555   3.144  19.263  0.00  0.00    +0.000 HD
ENDBRANCH  19  20
ENDBRANCH  10  19
TORSDOF 5
ENDMDL
MODEL 2
REMARK VINA RESULT:      -7.1      0.196      1.096
REMARK  Name = 
REMARK  6 active torsions:
REMARK  status: ('A' for Active; 'I' for Inactive)
REMARK    1  A    between atoms: C_1  and  C_2
REMARK    2  A    between atoms: C_5  and  O_6
REMARK    3  A    between atoms: O_6  and  C_7
REMARK    4  A    between atoms: C_7  and  C_8
REMARK    5  A    between atoms: C_18  and  C_19
REMARK    6  A    between atoms: C_19  and  O_20
REMARK                            x       y       z     vdW  Elec       q    Type
REMARK                         _______ _______ _______ _____ _____    ______ ____
ROOT
ATOM      1  C   UNL     1       2.127   2.640  21.618  0.00  0.00    +0.000 C 
ATOM      2  C   UNL     1       2.400   3.715  20.638  0.00  0.00    +0.000 A 
ATOM      3  N   UNL     1       1.884   4.962  20.848  0.00  0.00    +0.000 NA
ATOM      4  C   UNL     1       2.347   5.724  19.878  0.00  0.00    +0.000 A 
ATOM      5  C   UNL     1       2.212   7.130  19.624  0.00  0.00    +0.000 A 
ATOM      6  C   UNL     1       2.763   7.655  18.511  0.00  0.00    +0.000 A 
ATOM      7  C   UNL     1       3.533   6.842  17.581  0.00  0.00    +0.000 A 
ATOM      8  C   UNL     1       3.707   5.539  17.845  0.00  0.00    +0.000 A 
ATOM      9  N   UNL     1       3.120   4.981  18.985  0.00  0.00    +0.000 N 
ATOM     10  C   UNL     1       3.164   3.689  19.484  0.00  0.00    +0.000 A 
ENDROOT
BRANCH   5  11
ATOM     11  O   UNL     1       1.545   7.953  20.518  0.00  0.00    +0.000 OA
BRANCH  11  12
ATOM     12  C   UNL     1       1.127   9.221  20.003  0.00  0.00    +0.000 C 
BRANCH  12  13
ATOM     13  C   UNL     1       0.250   9.909  21.016  0.00  0.00    +0.000 A 
ATOM     14  C   UNL     1       0.138   9.413  22.322  0.00  0.00    +0.000 A 
ATOM     15  C   UNL     1      -0.658  10.072  23.258  0.00  0.00    +0.000 A 
ATOM     16  C   UNL     1      -1.351  11.227  22.895  0.00  0.00    +0.000 A 
ATOM     17  C   UNL     1      -1.251  11.724  21.597  0.00  0.00    +0.000 A 
ATOM     18  C   UNL     1      -0.458  11.065  20.660  0.00  0.00    +0.000 A 
ENDBRANCH  12  13
ENDBRANCH  11  12
ENDBRANCH   5  11
BRANCH  10  19
ATOM     19  C   UNL     1       3.936   2.583  18.883  0.00  0.00    +0.000 C 
BRANCH  19  20
ATOM     20  O   UNL     1       5.219   2.579  19.484  0.00  0.00    +0.000 OA
ATOM     21  H   UNL     1       5.792   2.034  18.916  0.00  0.00    +0.000 HD
ENDBRANCH  19  20
ENDBRANCH  10  19
TORSDOF 5
ENDMDL
MODEL 3
REMARK VINA RESULT:      -7.0      3.342      6.388
REMARK  Name = 
REMARK  6 active torsions:
REMARK  status: ('A' for Active; 'I' for Inactive)
REMARK    1  A    between atoms: C_1  and  C_2
REMARK    2  A    between atoms: C_5  and  O_6
REMARK    3  A    between atoms: O_6  and  C_7
REMARK    4  A    between atoms: C_7  and  C_8
REMARK    5  A    between atoms: C_18  and  C_19
REMARK    6  A    between atoms: C_19  and  O_20
REMARK                            x       y       z     vdW  Elec       q    Type
REMARK                         _______ _______ _______ _____ _____    ______ ____
ROOT
ATOM      1  C   UNL     1       1.453   6.423  20.844  0.00  0.00    +0.000 C 
ATOM      2  C   UNL     1       1.967   5.284  20.050  0.00  0.00    +0.000 A 
ATOM      3  N   UNL     1       2.642   5.527  18.888  0.00  0.00    +0.000 NA
ATOM      4  C   UNL     1       3.049   4.355  18.444  0.00  0.00    +0.000 A 
ATOM      5  C   UNL     1       3.864   3.993  17.319  0.00  0.00    +0.000 A 
ATOM      6  C   UNL     1       4.093   2.690  17.063  0.00  0.00    +0.000 A 
ATOM      7  C   UNL     1       3.575   1.637  17.924  0.00  0.00    +0.000 A 
ATOM      8  C   UNL     1       2.859   1.975  19.006  0.00  0.00    +0.000 A 
ATOM      9  N   UNL     1       2.597   3.324  19.267  0.00  0.00    +0.000 N 
ATOM     10  C   UNL     1       1.911   3.926  20.310  0.00  0.00    +0.000 A 
ENDROOT
BRANCH   5  11
ATOM     11  O   UNL     1       4.434   4.966  16.512  0.00  0.00    +0.000 OA
BRANCH  11  12
ATOM     12  C   UNL     1       5.812   4.769  16.178  0.00  0.00    +0.000 C 
BRANCH  12  13
ATOM     13  C   UNL     1       6.672   5.626  17.069  0.00  0.00    +0.000 A 
ATOM     14  C   UNL     1       6.916   6.968  16.753  0.00  0.00    +0.000 A 
ATOM     15  C   UNL     1       7.694   7.759  17.598  0.00  0.00    +0.000 A 
ATOM     16  C   UNL     1       8.237   7.213  18.761  0.00  0.00    +0.000 A 
ATOM     17  C   UNL     1       8.005   5.876  19.080  0.00  0.00    +0.000 A 
ATOM     18  C   UNL     1       7.229   5.084  18.235  0.00  0.00    +0.000 A 
ENDBRANCH  12  13
ENDBRANCH  11  12
ENDBRANCH   5  11
BRANCH  10  19
ATOM     19  C   UNL     1       1.321   3.203  21.454  0.00  0.00    +0.000 C 
BRANCH  19  20
ATOM     20  O   UNL     1       2.372   2.889  22.352  0.00  0.00    +0.000 OA
ATOM     21  H   UNL     1       2.025   2.217  22.964  0.00  0.00    +0.000 HD
ENDBRANCH  19  20
ENDBRANCH  10  19
TORSDOF 5
ENDMDL
MODEL 4
REMARK VINA RESULT:      -6.9      3.731      7.875
REMARK  Name = 
REMARK  6 active torsions:
REMARK  status: ('A' for Active; 'I' for Inactive)
REMARK    1  A    between atoms: C_1  and  C_2
REMARK    2  A    between atoms: C_5  and  O_6
REMARK    3  A    between atoms: O_6  and  C_7
REMARK    4  A    between atoms: C_7  and  C_8
REMARK    5  A    between atoms: C_18  and  C_19
REMARK    6  A    between atoms: C_19  and  O_20
REMARK                            x       y       z     vdW  Elec       q    Type
REMARK                         _______ _______ _______ _____ _____    ______ ____
ROOT
ATOM      1  C   UNL     1       3.545   2.285  20.779  0.00  0.00    +0.000 C 
ATOM      2  C   UNL     1       3.612   3.541  19.998  0.00  0.00    +0.000 A 
ATOM      3  N   UNL     1       4.606   3.707  19.077  0.00  0.00    +0.000 NA
ATOM      4  C   UNL     1       4.375   4.860  18.484  0.00  0.00    +0.000 A 
ATOM      5  C   UNL     1       5.033   5.518  17.391  0.00  0.00    +0.000 A 
ATOM      6  C   UNL     1       4.610   6.739  17.006  0.00  0.00    +0.000 A 
ATOM      7  C   UNL     1       3.473   7.391  17.638  0.00  0.00    +0.000 A 
ATOM      8  C   UNL     1       2.823   6.754  18.623  0.00  0.00    +0.000 A 
ATOM      9  N   UNL     1       3.269   5.497  19.045  0.00  0.00    +0.000 N 
ATOM     10  C   UNL     1       2.769   4.639  20.011  0.00  0.00    +0.000 A 
ENDROOT
BRANCH   5  11
ATOM     11  O   UNL     1       6.076   4.904  16.716  0.00  0.00    +0.000 OA
BRANCH  11  12
ATOM     12  C   UNL     1       5.701   3.876  15.794  0.00  0.00    +0.000 C 
BRANCH  12  13
ATOM     13  C   UNL     1       6.312   4.161  14.447  0.00  0.00    +0.000 A 
ATOM     14  C   UNL     1       7.306   5.138  14.304  0.00  0.00    +0.000 A 
ATOM     15  C   UNL     1       7.883   5.377  13.057  0.00  0.00    +0.000 A 
ATOM     16  C   UNL     1       7.465   4.647  11.944  0.00  0.00    +0.000 A 
ATOM     17  C   UNL     1       6.471   3.679  12.075  0.00  0.00    +0.000 A 
ATOM     18  C   UNL     1       5.893   3.440  13.321  0.00  0.00    +0.000 A 
ENDBRANCH  12  13
ENDBRANCH  11  12
ENDBRANCH   5  11
BRANCH  10  19
ATOM     19  C   UNL     1       1.552   4.890  20.808  0.00  0.00    +0.000 C 
BRANCH  19  20
ATOM     20  O   UNL     1       0.551   3.993  20.358  0.00  0.00    +0.000 OA
ATOM     21  H   UNL     1       0.706   3.149  20.816  0.00  0.00    +0.000 HD
ENDBRANCH  19  20
ENDBRANCH  10  19
TORSDOF 5
ENDMDL
MODEL 5
REMARK VINA RESULT:      -6.8      2.325      6.943
REMARK  Name = 
REMARK  6 active torsions:
REMARK  status: ('A' for Active; 'I' for Inactive)
REMARK    1  A    between atoms: C_1  and  C_2
REMARK    2  A    between atoms: C_5  and  O_6
REMARK    3  A    between atoms: O_6  and  C_7
REMARK    4  A    between atoms: C_7  and  C_8
REMARK    5  A    between atoms: C_18  and  C_19
REMARK    6  A    between atoms: C_19  and  O_20
REMARK                            x       y       z     vdW  Elec       q    Type
REMARK                         _______ _______ _______ _____ _____    ______ ____
ROOT
ATOM      1  C   UNL     1      -0.129   9.455  23.496  0.00  0.00    +0.000 C 
ATOM      2  C   UNL     1       0.374   9.505  22.105  0.00  0.00    +0.000 A 
ATOM      3  N   UNL     1       1.159   8.489  21.639  0.00  0.00    +0.000 NA
ATOM      4  C   UNL     1       1.388   8.750  20.368  0.00  0.00    +0.000 A 
ATOM      5  C   UNL     1       2.077   8.006  19.352  0.00  0.00    +0.000 A 
ATOM      6  C   UNL     1       2.206   8.536  18.120  0.00  0.00    +0.000 A 
ATOM      7  C   UNL     1       1.624   9.825  17.776  0.00  0.00    +0.000 A 
ATOM      8  C   UNL     1       0.933  10.497  18.708  0.00  0.00    +0.000 A 
ATOM      9  N   UNL     1       0.814   9.965  19.996  0.00  0.00    +0.000 N 
ATOM     10  C   UNL     1       0.149  10.444  21.113  0.00  0.00    +0.000 A 
ENDROOT
BRANCH   5  11
ATOM     11  O   UNL     1       2.587   6.745  19.618  0.00  0.00    +0.000 OA
BRANCH  11  12
ATOM     12  C   UNL     1       2.940   5.962  18.472  0.00  0.00    +0.000 C 
BRANCH  12  13
ATOM     13  C   UNL     1       2.369   4.575  18.617  0.00  0.00    +0.000 A 
ATOM     14  C   UNL     1       1.467   4.276  19.646  0.00  0.00    +0.000 A 
ATOM     15  C   UNL     1       0.926   2.995  19.756  0.00  0.00    +0.000 A 
ATOM     16  C   UNL     1       1.288   2.004  18.843  0.00  0.00    +0.000 A 
ATOM     17  C   UNL     1       2.190   2.291  17.821  0.00  0.00    +0.000 A 
ATOM     18  C   UNL     1       2.733   3.571  17.711  0.00  0.00    +0.000 A 
ENDBRANCH  12  13
ENDBRANCH  11  12
ENDBRANCH   5  11
BRANCH  10  19
ATOM     19  C   UNL     1      -0.659  11.679  21.144  0.00  0.00    +0.000 C 
BRANCH  19  20
ATOM     20  O   UNL     1      -0.003  12.601  21.996  0.00  0.00    +0.000 OA
ATOM     21  H   UNL     1      -0.411  12.510  22.875  0.00  0.00    +0.000 HD
ENDBRANCH  19  20
ENDBRANCH  10  19
TORSDOF 5
ENDMDL
MODEL 6
REMARK VINA RESULT:      -6.8      2.908      6.315
REMARK  Name = 
REMARK  6 active torsions:
REMARK  status: ('A' for Active; 'I' for Inactive)
REMARK    1  A    between atoms: C_1  and  C_2
REMARK    2  A    between atoms: C_5  and  O_6
REMARK    3  A    between atoms: O_6  and  C_7
REMARK    4  A    between atoms: C_7  and  C_8
REMARK    5  A    between atoms: C_18  and  C_19
REMARK    6  A    between atoms: C_19  and  O_20
REMARK                            x       y       z     vdW  Elec       q    Type
REMARK                         _______ _______ _______ _____ _____    ______ ____
ROOT
ATOM      1  C   UNL     1       3.379   1.694  18.291  0.00  0.00    +0.000 C 
ATOM      2  C   UNL     1       3.024   3.029  18.824  0.00  0.00    +0.000 A 
ATOM      3  N   UNL     1       3.382   4.147  18.126  0.00  0.00    +0.000 NA
ATOM      4  C   UNL     1       2.874   5.171  18.780  0.00  0.00    +0.000 A 
ATOM      5  C   UNL     1       2.855   6.576  18.485  0.00  0.00    +0.000 A 
ATOM      6  C   UNL     1       2.293   7.427  19.366  0.00  0.00    +0.000 A 
ATOM      7  C   UNL     1       1.662   6.958  20.590  0.00  0.00    +0.000 A 
ATOM      8  C   UNL     1       1.630   5.641  20.842  0.00  0.00    +0.000 A 
ATOM      9  N   UNL     1       2.230   4.752  19.944  0.00  0.00    +0.000 N 
ATOM     10  C   UNL     1       2.316   3.369  19.964  0.00  0.00    +0.000 A 
ENDROOT
BRANCH   5  11
ATOM     11  O   UNL     1       3.383   7.059  17.298  0.00  0.00    +0.000 OA
BRANCH  11  12
ATOM     12  C   UNL     1       4.778   7.379  17.323  0.00  0.00    +0.000 C 
BRANCH  12  13
ATOM     13  C   UNL     1       5.560   6.268  16.672  0.00  0.00    +0.000 A 
ATOM     14  C   UNL     1       5.287   5.877  15.355  0.00  0.00    +0.000 A 
ATOM     15  C   UNL     1       6.034   4.864  14.753  0.00  0.00    +0.000 A 
ATOM     16  C   UNL     1       7.052   4.231  15.466  0.00  0.00    +0.000 A 
ATOM     17  C   UNL     1       7.325   4.608  16.779  0.00  0.00    +0.000 A 
ATOM     18  C   UNL     1       6.579   5.619  17.382  0.00  0.00    +0.000 A 
ENDBRANCH  12  13
ENDBRANCH  11  12
ENDBRANCH   5  11
BRANCH  10  19
ATOM     19  C   UNL     1       1.704   2.504  20.993  0.00  0.00    +0.000 C 
BRANCH  19  20
ATOM     20  O   UNL     1       2.580   2.475  22.106  0.00  0.00    +0.000 OA
ATOM     21  H   UNL     1       2.474   1.602  22.522  0.00  0.00    +0.000 HD
ENDBRANCH  19  20
ENDBRANCH  10  19
TORSDOF 5
ENDMDL
MODEL 7
REMARK VINA RESULT:      -6.8      1.344      1.874
REMARK  Name = 
REMARK  6 active torsions:
REMARK  status: ('A' for Active; 'I' for Inactive)
REMARK    1  A    between atoms: C_1  and  C_2
REMARK    2  A    between atoms: C_5  and  O_6
REMARK    3  A    between atoms: O_6  and  C_7
REMARK    4  A    between atoms: C_7  and  C_8
REMARK    5  A    between atoms: C_18  and  C_19
REMARK    6  A    between atoms: C_19  and  O_20
REMARK                            x       y       z     vdW  Elec       q    Type
REMARK                         _______ _______ _______ _____ _____    ______ ____
ROOT
ATOM      1  C   UNL     1       1.810   3.182  21.513  0.00  0.00    +0.000 C 
ATOM      2  C   UNL     1       2.456   3.804  20.336  0.00  0.00    +0.000 A 
ATOM      3  N   UNL     1       2.234   5.125  20.069  0.00  0.00    +0.000 NA
ATOM      4  C   UNL     1       2.986   5.425  19.030  0.00  0.00    +0.000 A 
ATOM      5  C   UNL     1       3.228   6.670  18.357  0.00  0.00    +0.000 A 
ATOM      6  C   UNL     1       4.025   6.688  17.270  0.00  0.00    +0.000 A 
ATOM      7  C   UNL     1       4.687   5.486  16.786  0.00  0.00    +0.000 A 
ATOM      8  C   UNL     1       4.507   4.332  17.446  0.00  0.00    +0.000 A 
ATOM      9  N   UNL     1       3.663   4.300  18.561  0.00  0.00    +0.000 N 
ATOM     10  C   UNL     1       3.331   3.258  19.412  0.00  0.00    +0.000 A 
ENDROOT
BRANCH   5  11
ATOM     11  O   UNL     1       2.673   7.851  18.825  0.00  0.00    +0.000 OA
BRANCH  11  12
ATOM     12  C   UNL     1       1.874   8.578  17.886  0.00  0.00    +0.000 C 
BRANCH  12  13
ATOM     13  C   UNL     1       0.872   9.423  18.627  0.00  0.00    +0.000 A 
ATOM     14  C   UNL     1      -0.169  10.066  17.944  0.00  0.00    +0.000 A 
ATOM     15  C   UNL     1      -1.106  10.825  18.644  0.00  0.00    +0.000 A 
ATOM     16  C   UNL     1      -1.006  10.953  20.029  0.00  0.00    +0.000 A 
ATOM     17  C   UNL     1       0.030  10.322  20.717  0.00  0.00    +0.000 A 
ATOM     18  C   UNL     1       0.968   9.564  20.018  0.00  0.00    +0.000 A 
ENDBRANCH  12  13
ENDBRANCH  11  12
ENDBRANCH   5  11
BRANCH  10  19
ATOM     19  C   UNL     1       3.882   1.892  19.322  0.00  0.00    +0.000 C 
BRANCH  19  20
ATOM     20  O   UNL     1       5.162   1.903  19.930  0.00  0.00    +0.000 OA
ATOM     21  H   UNL     1       5.781   1.521  19.285  0.00  0.00    +0.000 HD
ENDBRANCH  19  20
ENDBRANCH  10  19
TORSDOF 5
ENDMDL
MODEL 8
REMARK VINA RESULT:      -6.8      1.516      2.158
REMARK  Name = 
REMARK  6 active torsions:
REMARK  status: ('A' for Active; 'I' for Inactive)
REMARK    1  A    between atoms: C_1  and  C_2
REMARK    2  A    between atoms: C_5  and  O_6
REMARK    3  A    between atoms: O_6  and  C_7
REMARK    4  A    between atoms: C_7  and  C_8
REMARK    5  A    between atoms: C_18  and  C_19
REMARK    6  A    between atoms: C_19  and  O_20
REMARK                            x       y       z     vdW  Elec       q    Type
REMARK                         _______ _______ _______ _____ _____    ______ ____
ROOT
ATOM      1  C   UNL     1       1.256   2.936  20.578  0.00  0.00    +0.000 C 
ATOM      2  C   UNL     1       2.068   3.746  19.643  0.00  0.00    +0.000 A 
ATOM      3  N   UNL     1       1.833   5.087  19.537  0.00  0.00    +0.000 NA
ATOM      4  C   UNL     1       2.741   5.559  18.708  0.00  0.00    +0.000 A 
ATOM      5  C   UNL     1       3.037   6.898  18.281  0.00  0.00    +0.000 A 
ATOM      6  C   UNL     1       4.011   7.099  17.372  0.00  0.00    +0.000 A 
ATOM      7  C   UNL     1       4.807   6.000  16.845  0.00  0.00    +0.000 A 
ATOM      8  C   UNL     1       4.569   4.755  17.284  0.00  0.00    +0.000 A 
ATOM      9  N   UNL     1       3.544   4.534  18.210  0.00  0.00    +0.000 N 
ATOM     10  C   UNL     1       3.118   3.367  18.824  0.00  0.00    +0.000 A 
ENDROOT
BRANCH   5  11
ATOM     11  O   UNL     1       2.350   7.980  18.808  0.00  0.00    +0.000 OA
BRANCH  11  12
ATOM     12  C   UNL     1       1.780   8.881  17.853  0.00  0.00    +0.000 C 
BRANCH  12  13
ATOM     13  C   UNL     1       0.694   9.690  18.512  0.00  0.00    +0.000 A 
ATOM     14  C   UNL     1       0.860  10.189  19.810  0.00  0.00    +0.000 A 
ATOM     15  C   UNL     1      -0.143  10.958  20.401  0.00  0.00    +0.000 A 
ATOM     16  C   UNL     1      -1.318  11.228  19.702  0.00  0.00    +0.000 A 
ATOM     17  C   UNL     1      -1.495  10.730  18.412  0.00  0.00    +0.000 A 
ATOM     18  C   UNL     1      -0.495   9.960  17.821  0.00  0.00    +0.000 A 
ENDBRANCH  12  13
ENDBRANCH  11  12
ENDBRANCH   5  11
BRANCH  10  19
ATOM     19  C   UNL     1       3.743   2.043  18.635  0.00  0.00    +0.000 C 
BRANCH  19  20
ATOM     20  O   UNL     1       4.891   1.987  19.464  0.00  0.00    +0.000 OA
ATOM     21  H   UNL     1       4.882   1.116  19.896  0.00  0.00    +0.000 HD
ENDBRANCH  19  20
ENDBRANCH  10  19
TORSDOF 5
ENDMDL
MODEL 9
REMARK VINA RESULT:      -6.8      3.016      6.867
REMARK  Name = 
REMARK  6 active torsions:
REMARK  status: ('A' for Active; 'I' for Inactive)
REMARK    1  A    between atoms: C_1  and  C_2
REMARK    2  A    between atoms: C_5  and  O_6
REMARK    3  A    between atoms: O_6  and  C_7
REMARK    4  A    between atoms: C_7  and  C_8
REMARK    5  A    between atoms: C_18  and  C_19
REMARK    6  A    between atoms: C_19  and  O_20
REMARK                            x       y       z     vdW  Elec       q    Type
REMARK                         _______ _______ _______ _____ _____    ______ ____
ROOT
ATOM      1  C   UNL     1       2.277   8.451  18.374  0.00  0.00    +0.000 C 
ATOM      2  C   UNL     1       2.564   6.999  18.416  0.00  0.00    +0.000 A 
ATOM      3  N   UNL     1       3.270   6.426  17.398  0.00  0.00    +0.000 NA
ATOM      4  C   UNL     1       3.446   5.164  17.733  0.00  0.00    +0.000 A 
ATOM      5  C   UNL     1       4.176   4.103  17.098  0.00  0.00    +0.000 A 
ATOM      6  C   UNL     1       4.153   2.870  17.643  0.00  0.00    +0.000 A 
ATOM      7  C   UNL     1       3.448   2.594  18.886  0.00  0.00    +0.000 A 
ATOM      8  C   UNL     1       2.811   3.596  19.509  0.00  0.00    +0.000 A 
ATOM      9  N   UNL     1       2.810   4.874  18.939  0.00  0.00    +0.000 N 
ATOM     10  C   UNL     1       2.253   6.061  19.385  0.00  0.00    +0.000 A 
ENDROOT
BRANCH   5  11
ATOM     11  O   UNL     1       4.917   4.337  15.951  0.00  0.00    +0.000 OA
BRANCH  11  12
ATOM     12  C   UNL     1       6.324   4.094  16.059  0.00  0.00    +0.000 C 
BRANCH  12  13
ATOM     13  C   UNL     1       6.946   5.134  16.954  0.00  0.00    +0.000 A 
ATOM     14  C   UNL     1       6.961   6.484  16.581  0.00  0.00    +0.000 A 
ATOM     15  C   UNL     1       7.517   7.441  17.429  0.00  0.00    +0.000 A 
ATOM     16  C   UNL     1       8.066   7.056  18.651  0.00  0.00    +0.000 A 
ATOM     17  C   UNL     1       8.062   5.714  19.028  0.00  0.00    +0.000 A 
ATOM     18  C   UNL     1       7.508   4.756  18.181  0.00  0.00    +0.000 A 
ENDBRANCH  12  13
ENDBRANCH  11  12
ENDBRANCH   5  11
BRANCH  10  19
ATOM     19  C   UNL     1       1.540   6.224  20.668  0.00  0.00    +0.000 C 
BRANCH  19  20
ATOM     20  O   UNL     1       1.941   7.463  21.228  0.00  0.00    +0.000 OA
ATOM     21  H   UNL     1       1.127   7.931  21.483  0.00  0.00    +0.000 HD
ENDBRANCH  19  20
ENDBRANCH  10  19
TORSDOF 5
ENDMDL
