MODEL 1
REMARK VINA RESULT:      -8.6      0.000      0.000
REMARK  Name = 
REMARK  5 active torsions:
REMARK  status: ('A' for Active; 'I' for Inactive)
REMARK    1  A    between atoms: N_4  and  C_5
REMARK    2  A    between atoms: C_9  and  C_11
REMARK    3  A    between atoms: C_11  and  C_12
REMARK    4  A    between atoms: C_12  and  C_13
REMARK    5  A    between atoms: C_18  and  N_19
REMARK                            x       y       z     vdW  Elec       q    Type
REMARK                         _______ _______ _______ _____ _____    ______ ____
ROOT
ATOM      1  C   UNL     1      -0.419  10.714  19.387  0.00  0.00    +0.000 C 
ATOM      2  C   UNL     1      -0.406   9.555  20.400  0.00  0.00    +0.000 C 
ATOM      3  C   UNL     1       1.036   9.100  20.427  0.00  0.00    +0.000 C 
ATOM      4  N   UNL     1       1.452   9.281  19.052  0.00  0.00    +0.000 N 
ATOM      5  C   UNL     1       2.219   8.433  18.283  0.00  0.00    +0.000 C 
ATOM      6  O   UNL     1       2.520   8.688  17.117  0.00  0.00    +0.000 OA
ATOM      7  C   UNL     1       0.826  10.471  18.502  0.00  0.00    +0.000 C 
ENDROOT
BRANCH   1  11
ATOM      8  N   UNL     1      -1.334  12.805  17.614  0.00  0.00    +0.000 N 
ATOM      9  C   UNL     1      -2.119  11.729  17.802  0.00  0.00    +0.000 C 
ATOM     10  O   UNL     1      -3.228  11.656  17.290  0.00  0.00    +0.000 OA
ATOM     11  N   UNL     1      -1.652  10.755  18.611  0.00  0.00    +0.000 N 
ATOM     12  H   UNL     1      -1.711  13.459  16.938  0.00  0.00    +0.000 HD
ATOM     13  H   UNL     1      -0.340  12.665  17.563  0.00  0.00    +0.000 HD
ATOM     14  H   UNL     1      -2.337  10.021  18.750  0.00  0.00    +0.000 HD
ENDBRANCH   1  11
BRANCH   5  15
ATOM     15  C   UNL     1       2.627   7.143  18.967  0.00  0.00    +0.000 C 
BRANCH  15  16
ATOM     16  C   UNL     1       3.568   6.283  18.126  0.00  0.00    +0.000 C 
BRANCH  16  17
ATOM     17  C   UNL     1       3.231   4.802  18.011  0.00  0.00    +0.000 A 
ATOM     18  C   UNL     1       1.917   4.381  18.350  0.00  0.00    +0.000 A 
ATOM     19  C   UNL     1       1.514   3.053  18.274  0.00  0.00    +0.000 A 
ATOM     20  C   UNL     1       2.425   2.099  17.875  0.00  0.00    +0.000 A 
ATOM     21  C   UNL     1       3.720   2.490  17.529  0.00  0.00    +0.000 A 
ATOM     22  C   UNL     1       4.166   3.836  17.551  0.00  0.00    +0.000 A 
BRANCH  22  23
ATOM     23  N   UNL     1       5.443   4.105  17.087  0.00  0.00    +0.000 N 
ATOM     24  C   UNL     1       6.557   4.704  17.836  0.00  0.00    +0.000 C 
ATOM     25  C   UNL     1       7.073   5.940  17.079  0.00  0.00    +0.000 C 
ATOM     26  O   UNL     1       7.503   5.584  15.750  0.00  0.00    +0.000 OA
ATOM     27  C   UNL     1       6.411   5.010  15.012  0.00  0.00    +0.000 C 
ATOM     28  C   UNL     1       5.840   3.761  15.704  0.00  0.00    +0.000 C 
ENDBRANCH  22  23
ENDBRANCH  16  17
ENDBRANCH  15  16
ENDBRANCH   5  15
TORSDOF 5
ENDMDL
MODEL 2
REMARK VINA RESULT:      -8.1      1.907      3.460
REMARK  Name = 
REMARK  5 active torsions:
REMARK  status: ('A' for Active; 'I' for Inactive)
REMARK    1  A    between atoms: N_4  and  C_5
REMARK    2  A    between atoms: C_9  and  C_11
REMARK    3  A    between atoms: C_11  and  C_12
REMARK    4  A    between atoms: C_12  and  C_13
REMARK    5  A    between atoms: C_18  and  N_19
REMARK                            x       y       z     vdW  Elec       q    Type
REMARK                         _______ _______ _______ _____ _____    ______ ____
ROOT
ATOM      1  C   UNL     1      -0.579  10.763  19.595  0.00  0.00    +0.000 C 
ATOM      2  C   UNL     1      -0.476   9.603  20.602  0.00  0.00    +0.000 C 
ATOM      3  C   UNL     1       0.982   9.202  20.560  0.00  0.00    +0.000 C 
ATOM      4  N   UNL     1       1.326   9.402  19.167  0.00  0.00    +0.000 N 
ATOM      5  C   UNL     1       2.087   8.584  18.360  0.00  0.00    +0.000 C 
ATOM      6  O   UNL     1       2.323   8.853  17.182  0.00  0.00    +0.000 OA
ATOM      7  C   UNL     1       0.632  10.568  18.652  0.00  0.00    +0.000 C 
ENDROOT
BRANCH   1  11
ATOM      8  N   UNL     1      -2.524  12.893  19.417  0.00  0.00    +0.000 N 
ATOM      9  C   UNL     1      -2.788  11.725  18.804  0.00  0.00    +0.000 C 
ATOM     10  O   UNL     1      -3.854  11.534  18.234  0.00  0.00    +0.000 OA
ATOM     11  N   UNL     1      -1.847  10.760  18.878  0.00  0.00    +0.000 N 
ATOM     12  H   UNL     1      -3.236  13.596  19.256  0.00  0.00    +0.000 HD
ATOM     13  H   UNL     1      -1.578  13.234  19.405  0.00  0.00    +0.000 HD
ATOM     14  H   UNL     1      -2.161   9.896  18.451  0.00  0.00    +0.000 HD
ENDBRANCH   1  11
BRANCH   5  15
ATOM     15  C   UNL     1       2.574   7.308  19.018  0.00  0.00    +0.000 C 
BRANCH  15  16
ATOM     16  C   UNL     1       2.428   6.075  18.129  0.00  0.00    +0.000 C 
BRANCH  16  17
ATOM     17  C   UNL     1       3.696   5.546  17.471  0.00  0.00    +0.000 A 
ATOM     18  C   UNL     1       4.523   6.461  16.767  0.00  0.00    +0.000 A 
ATOM     19  C   UNL     1       5.700   6.075  16.138  0.00  0.00    +0.000 A 
ATOM     20  C   UNL     1       6.076   4.749  16.175  0.00  0.00    +0.000 A 
ATOM     21  C   UNL     1       5.283   3.832  16.869  0.00  0.00    +0.000 A 
ATOM     22  C   UNL     1       4.096   4.185  17.560  0.00  0.00    +0.000 A 
BRANCH  22  23
ATOM     23  N   UNL     1       3.454   3.201  18.294  0.00  0.00    +0.000 N 
ATOM     24  C   UNL     1       2.350   2.337  17.855  0.00  0.00    +0.000 C 
ATOM     25  C   UNL     1       1.175   2.472  18.838  0.00  0.00    +0.000 C 
ATOM     26  O   UNL     1       1.582   2.117  20.175  0.00  0.00    +0.000 OA
ATOM     27  C   UNL     1       2.654   2.970  20.611  0.00  0.00    +0.000 C 
ATOM     28  C   UNL     1       3.874   2.888  19.678  0.00  0.00    +0.000 C 
ENDBRANCH  22  23
ENDBRANCH  16  17
ENDBRANCH  15  16
ENDBRANCH   5  15
TORSDOF 5
ENDMDL
MODEL 3
REMARK VINA RESULT:      -8.0      2.161      2.604
REMARK  Name = 
REMARK  5 active torsions:
REMARK  status: ('A' for Active; 'I' for Inactive)
REMARK    1  A    between atoms: N_4  and  C_5
REMARK    2  A    between atoms: C_9  and  C_11
REMARK    3  A    between atoms: C_11  and  C_12
REMARK    4  A    between atoms: C_12  and  C_13
REMARK    5  A    between atoms: C_18  and  N_19
REMARK                            x       y       z     vdW  Elec       q    Type
REMARK                         _______ _______ _______ _____ _____    ______ ____
ROOT
ATOM      1  C   UNL     1       0.868  11.291  19.606  0.00  0.00    +0.000 C 
ATOM      2  C   UNL     1       1.919  11.161  18.488  0.00  0.00    +0.000 C 
ATOM      3  C   UNL     1       1.773   9.736  18.004  0.00  0.00    +0.000 C 
ATOM      4  N   UNL     1       1.459   9.018  19.222  0.00  0.00    +0.000 N 
ATOM      5  C   UNL     1       1.948   7.796  19.632  0.00  0.00    +0.000 C 
ATOM      6  O   UNL     1       1.608   7.270  20.692  0.00  0.00    +0.000 OA
ATOM      7  C   UNL     1       0.615   9.838  20.071  0.00  0.00    +0.000 C 
ENDROOT
BRANCH   1  11
ATOM      8  N   UNL     1      -0.217  13.843  20.422  0.00  0.00    +0.000 N 
ATOM      9  C   UNL     1       0.856  13.359  21.074  0.00  0.00    +0.000 C 
ATOM     10  O   UNL     1       1.409  14.007  21.952  0.00  0.00    +0.000 OA
ATOM     11  N   UNL     1       1.321  12.151  20.691  0.00  0.00    +0.000 N 
ATOM     12  H   UNL     1      -0.558  14.713  20.810  0.00  0.00    +0.000 HD
ATOM     13  H   UNL     1      -0.931  13.195  20.135  0.00  0.00    +0.000 HD
ATOM     14  H   UNL     1       2.170  11.901  21.186  0.00  0.00    +0.000 HD
ENDBRANCH   1  11
BRANCH   5  15
ATOM     15  C   UNL     1       2.968   7.170  18.701  0.00  0.00    +0.000 C 
BRANCH  15  16
ATOM     16  C   UNL     1       2.348   6.242  17.660  0.00  0.00    +0.000 C 
BRANCH  16  17
ATOM     17  C   UNL     1       2.561   4.746  17.857  0.00  0.00    +0.000 A 
ATOM     18  C   UNL     1       1.463   3.960  18.297  0.00  0.00    +0.000 A 
ATOM     19  C   UNL     1       1.558   2.589  18.501  0.00  0.00    +0.000 A 
ATOM     20  C   UNL     1       2.768   1.963  18.291  0.00  0.00    +0.000 A 
ATOM     21  C   UNL     1       3.860   2.714  17.851  0.00  0.00    +0.000 A 
ATOM     22  C   UNL     1       3.802   4.106  17.589  0.00  0.00    +0.000 A 
BRANCH  22  23
ATOM     23  N   UNL     1       4.927   4.716  17.059  0.00  0.00    +0.000 N 
ATOM     24  C   UNL     1       5.200   5.012  15.646  0.00  0.00    +0.000 C 
ATOM     25  C   UNL     1       6.546   4.383  15.245  0.00  0.00    +0.000 C 
ATOM     26  O   UNL     1       7.613   4.887  16.073  0.00  0.00    +0.000 OA
ATOM     27  C   UNL     1       7.354   4.587  17.455  0.00  0.00    +0.000 C 
ATOM     28  C   UNL     1       6.022   5.187  17.935  0.00  0.00    +0.000 C 
ENDBRANCH  22  23
ENDBRANCH  16  17
ENDBRANCH  15  16
ENDBRANCH   5  15
TORSDOF 5
ENDMDL
MODEL 4
REMARK VINA RESULT:      -8.0      1.299      1.620
REMARK  Name = 
REMARK  5 active torsions:
REMARK  status: ('A' for Active; 'I' for Inactive)
REMARK    1  A    between atoms: N_4  and  C_5
REMARK    2  A    between atoms: C_9  and  C_11
REMARK    3  A    between atoms: C_11  and  C_12
REMARK    4  A    between atoms: C_12  and  C_13
REMARK    5  A    between atoms: C_18  and  N_19
REMARK                            x       y       z     vdW  Elec       q    Type
REMARK                         _______ _______ _______ _____ _____    ______ ____
ROOT
ATOM      1  C   UNL     1      -0.052  10.929  20.777  0.00  0.00    +0.000 C 
ATOM      2  C   UNL     1      -0.074   9.557  21.476  0.00  0.00    +0.000 C 
ATOM      3  C   UNL     1       1.251   8.928  21.103  0.00  0.00    +0.000 C 
ATOM      4  N   UNL     1       1.456   9.400  19.750  0.00  0.00    +0.000 N 
ATOM      5  C   UNL     1       1.923   8.685  18.668  0.00  0.00    +0.000 C 
ATOM      6  O   UNL     1       2.066   9.189  17.554  0.00  0.00    +0.000 OA
ATOM      7  C   UNL     1       0.967  10.761  19.624  0.00  0.00    +0.000 C 
ENDROOT
BRANCH   1  11
ATOM      8  N   UNL     1      -1.169  13.592  20.656  0.00  0.00    +0.000 N 
ATOM      9  C   UNL     1      -1.929  12.554  20.261  0.00  0.00    +0.000 C 
ATOM     10  O   UNL     1      -3.093  12.714  19.919  0.00  0.00    +0.000 OA
ATOM     11  N   UNL     1      -1.370  11.326  20.299  0.00  0.00    +0.000 N 
ATOM     12  H   UNL     1      -1.623  14.488  20.530  0.00  0.00    +0.000 HD
ATOM     13  H   UNL     1      -0.188  13.575  20.433  0.00  0.00    +0.000 HD
ATOM     14  H   UNL     1      -2.035  10.602  20.055  0.00  0.00    +0.000 HD
ENDBRANCH   1  11
BRANCH   5  15
ATOM     15  C   UNL     1       2.207   7.221  18.942  0.00  0.00    +0.000 C 
BRANCH  15  16
ATOM     16  C   UNL     1       2.654   6.449  17.703  0.00  0.00    +0.000 C 
BRANCH  16  17
ATOM     17  C   UNL     1       2.723   4.932  17.825  0.00  0.00    +0.000 A 
ATOM     18  C   UNL     1       1.559   4.235  18.246  0.00  0.00    +0.000 A 
ATOM     19  C   UNL     1       1.523   2.852  18.383  0.00  0.00    +0.000 A 
ATOM     20  C   UNL     1       2.664   2.124  18.123  0.00  0.00    +0.000 A 
ATOM     21  C   UNL     1       3.818   2.786  17.700  0.00  0.00    +0.000 A 
ATOM     22  C   UNL     1       3.892   4.189  17.506  0.00  0.00    +0.000 A 
BRANCH  22  23
ATOM     23  N   UNL     1       5.064   4.713  16.986  0.00  0.00    +0.000 N 
ATOM     24  C   UNL     1       5.394   4.931  15.570  0.00  0.00    +0.000 C 
ATOM     25  C   UNL     1       6.714   4.213  15.239  0.00  0.00    +0.000 C 
ATOM     26  O   UNL     1       7.783   4.694  16.078  0.00  0.00    +0.000 OA
ATOM     27  C   UNL     1       7.468   4.469  17.462  0.00  0.00    +0.000 C 
ATOM     28  C   UNL     1       6.158   5.162  17.875  0.00  0.00    +0.000 C 
ENDBRANCH  22  23
ENDBRANCH  16  17
ENDBRANCH  15  16
ENDBRANCH   5  15
TORSDOF 5
ENDMDL
MODEL 5
REMARK VINA RESULT:      -7.9      1.453      1.562
REMARK  Name = 
REMARK  5 active torsions:
REMARK  status: ('A' for Active; 'I' for Inactive)
REMARK    1  A    between atoms: N_4  and  C_5
REMARK    2  A    between atoms: C_9  and  C_11
REMARK    3  A    between atoms: C_11  and  C_12
REMARK    4  A    between atoms: C_12  and  C_13
REMARK    5  A    between atoms: C_18  and  N_19
REMARK                            x       y       z     vdW  Elec       q    Type
REMARK                         _______ _______ _______ _____ _____    ______ ____
ROOT
ATOM      1  C   UNL     1      -0.705  11.114  19.420  0.00  0.00    +0.000 C 
ATOM      2  C   UNL     1      -0.634  10.101  20.577  0.00  0.00    +0.000 C 
ATOM      3  C   UNL     1       0.812   9.655  20.593  0.00  0.00    +0.000 C 
ATOM      4  N   UNL     1       1.158   9.651  19.187  0.00  0.00    +0.000 N 
ATOM      5  C   UNL     1       1.893   8.708  18.501  0.00  0.00    +0.000 C 
ATOM      6  O   UNL     1       2.135   8.805  17.298  0.00  0.00    +0.000 OA
ATOM      7  C   UNL     1       0.498  10.755  18.515  0.00  0.00    +0.000 C 
ENDROOT
BRANCH   1  11
ATOM      8  N   UNL     1      -2.966  12.899  19.653  0.00  0.00    +0.000 N 
ATOM      9  C   UNL     1      -3.057  11.848  18.819  0.00  0.00    +0.000 C 
ATOM     10  O   UNL     1      -4.093  11.604  18.215  0.00  0.00    +0.000 OA
ATOM     11  N   UNL     1      -1.974  11.049  18.707  0.00  0.00    +0.000 N 
ATOM     12  H   UNL     1      -3.783  13.496  19.630  0.00  0.00    +0.000 HD
ATOM     13  H   UNL     1      -2.086  13.382  19.715  0.00  0.00    +0.000 HD
ATOM     14  H   UNL     1      -2.158  10.247  18.116  0.00  0.00    +0.000 HD
ENDBRANCH   1  11
BRANCH   5  15
ATOM     15  C   UNL     1       2.344   7.521  19.331  0.00  0.00    +0.000 C 
BRANCH  15  16
ATOM     16  C   UNL     1       2.397   6.216  18.539  0.00  0.00    +0.000 C 
BRANCH  16  17
ATOM     17  C   UNL     1       2.451   4.924  19.344  0.00  0.00    +0.000 A 
ATOM     18  C   UNL     1       1.322   4.571  20.131  0.00  0.00    +0.000 A 
ATOM     19  C   UNL     1       1.276   3.412  20.896  0.00  0.00    +0.000 A 
ATOM     20  C   UNL     1       2.372   2.577  20.914  0.00  0.00    +0.000 A 
ATOM     21  C   UNL     1       3.490   2.899  20.142  0.00  0.00    +0.000 A 
ATOM     22  C   UNL     1       3.570   4.047  19.315  0.00  0.00    +0.000 A 
BRANCH  22  23
ATOM     23  N   UNL     1       4.695   4.201  18.521  0.00  0.00    +0.000 N 
ATOM     24  C   UNL     1       5.960   4.854  18.882  0.00  0.00    +0.000 C 
ATOM     25  C   UNL     1       6.278   5.952  17.853  0.00  0.00    +0.000 C 
ATOM     26  O   UNL     1       6.366   5.399  16.524  0.00  0.00    +0.000 OA
ATOM     27  C   UNL     1       5.124   4.771  16.164  0.00  0.00    +0.000 C 
ATOM     28  C   UNL     1       4.737   3.653  17.147  0.00  0.00    +0.000 C 
ENDBRANCH  22  23
ENDBRANCH  16  17
ENDBRANCH  15  16
ENDBRANCH   5  15
TORSDOF 5
ENDMDL
MODEL 6
REMARK VINA RESULT:      -7.8      1.063      1.370
REMARK  Name = 
REMARK  5 active torsions:
REMARK  status: ('A' for Active; 'I' for Inactive)
REMARK    1  A    between atoms: N_4  and  C_5
REMARK    2  A    between atoms: C_9  and  C_11
REMARK    3  A    between atoms: C_11  and  C_12
REMARK    4  A    between atoms: C_12  and  C_13
REMARK    5  A    between atoms: C_18  and  N_19
REMARK                            x       y       z     vdW  Elec       q    Type
REMARK                         _______ _______ _______ _____ _____    ______ ____
ROOT
ATOM      1  C   UNL     1      -0.132  10.587  19.947  0.00  0.00    +0.000 C 
ATOM      2  C   UNL     1      -0.407   9.637  21.126  0.00  0.00    +0.000 C 
ATOM      3  C   UNL     1       0.905   8.914  21.337  0.00  0.00    +0.000 C 
ATOM      4  N   UNL     1       1.410   8.774  19.987  0.00  0.00    +0.000 N 
ATOM      5  C   UNL     1       2.016   7.673  19.423  0.00  0.00    +0.000 C 
ATOM      6  O   UNL     1       2.415   7.662  18.258  0.00  0.00    +0.000 OA
ATOM      7  C   UNL     1       1.073   9.954  19.211  0.00  0.00    +0.000 C 
ENDROOT
BRANCH   1  11
ATOM      8  N   UNL     1      -0.611  12.636  17.965  0.00  0.00    +0.000 N 
ATOM      9  C   UNL     1      -1.558  11.703  18.171  0.00  0.00    +0.000 C 
ATOM     10  O   UNL     1      -2.631  11.748  17.585  0.00  0.00    +0.000 OA
ATOM     11  N   UNL     1      -1.293  10.741  19.080  0.00  0.00    +0.000 N 
ATOM     12  H   UNL     1      -0.842  13.279  17.218  0.00  0.00    +0.000 HD
ATOM     13  H   UNL     1       0.353  12.350  17.999  0.00  0.00    +0.000 HD
ATOM     14  H   UNL     1      -2.087  10.127  19.221  0.00  0.00    +0.000 HD
ENDBRANCH   1  11
BRANCH   5  15
ATOM     15  C   UNL     1       2.114   6.461  20.329  0.00  0.00    +0.000 C 
BRANCH  15  16
ATOM     16  C   UNL     1       3.348   5.603  20.061  0.00  0.00    +0.000 C 
BRANCH  16  17
ATOM     17  C   UNL     1       3.147   4.357  19.207  0.00  0.00    +0.000 A 
ATOM     18  C   UNL     1       2.046   3.509  19.499  0.00  0.00    +0.000 A 
ATOM     19  C   UNL     1       1.779   2.353  18.775  0.00  0.00    +0.000 A 
ATOM     20  C   UNL     1       2.623   1.998  17.745  0.00  0.00    +0.000 A 
ATOM     21  C   UNL     1       3.708   2.820  17.434  0.00  0.00    +0.000 A 
ATOM     22  C   UNL     1       3.998   4.029  18.116  0.00  0.00    +0.000 A 
BRANCH  22  23
ATOM     23  N   UNL     1       5.043   4.807  17.645  0.00  0.00    +0.000 N 
ATOM     24  C   UNL     1       5.030   5.715  16.490  0.00  0.00    +0.000 C 
ATOM     25  C   UNL     1       6.168   5.331  15.529  0.00  0.00    +0.000 C 
ATOM     26  O   UNL     1       7.445   5.393  16.195  0.00  0.00    +0.000 OA
ATOM     27  C   UNL     1       7.464   4.496  17.319  0.00  0.00    +0.000 C 
ATOM     28  C   UNL     1       6.353   4.818  18.333  0.00  0.00    +0.000 C 
ENDBRANCH  22  23
ENDBRANCH  16  17
ENDBRANCH  15  16
ENDBRANCH   5  15
TORSDOF 5
ENDMDL
MODEL 7
REMARK VINA RESULT:      -7.8      0.965      1.392
REMARK  Name = 
REMARK  5 active torsions:
REMARK  status: ('A' for Active; 'I' for Inactive)
REMARK    1  A    between atoms: N_4  and  C_5
REMARK    2  A    between atoms: C_9  and  C_11
REMARK    3  A    between atoms: C_11  and  C_12
REMARK    4  A    between atoms: C_12  and  C_13
REMARK    5  A    between atoms: C_18  and  N_19
REMARK                            x       y       z     vdW  Elec       q    Type
REMARK                         _______ _______ _______ _____ _____    ______ ____
ROOT
ATOM      1  C   UNL     1      -0.139  10.607  20.163  0.00  0.00    +0.000 C 
ATOM      2  C   UNL     1      -0.182   9.266  20.917  0.00  0.00    +0.000 C 
ATOM      3  C   UNL     1       1.209   8.698  20.747  0.00  0.00    +0.000 C 
ATOM      4  N   UNL     1       1.565   9.126  19.410  0.00  0.00    +0.000 N 
ATOM      5  C   UNL     1       2.205   8.396  18.432  0.00  0.00    +0.000 C 
ATOM      6  O   UNL     1       2.465   8.863  17.323  0.00  0.00    +0.000 OA
ATOM      7  C   UNL     1       1.028  10.451  19.160  0.00  0.00    +0.000 C 
ENDROOT
BRANCH   1  11
ATOM      8  N   UNL     1      -0.922   9.984  17.451  0.00  0.00    +0.000 N 
ATOM      9  C   UNL     1      -1.782  10.661  18.233  0.00  0.00    +0.000 C 
ATOM     10  O   UNL     1      -2.851  11.067  17.795  0.00  0.00    +0.000 OA
ATOM     11  N   UNL     1      -1.402  10.910  19.503  0.00  0.00    +0.000 N 
ATOM     12  H   UNL     1      -1.301   9.766  16.538  0.00  0.00    +0.000 HD
ATOM     13  H   UNL     1      -0.372   9.254  17.871  0.00  0.00    +0.000 HD
ATOM     14  H   UNL     1      -2.079  11.484  19.993  0.00  0.00    +0.000 HD
ENDBRANCH   1  11
BRANCH   5  15
ATOM     15  C   UNL     1       2.524   6.962  18.809  0.00  0.00    +0.000 C 
BRANCH  15  16
ATOM     16  C   UNL     1       2.185   5.958  17.710  0.00  0.00    +0.000 C 
BRANCH  16  17
ATOM     17  C   UNL     1       2.480   4.492  18.001  0.00  0.00    +0.000 A 
ATOM     18  C   UNL     1       1.420   3.671  18.470  0.00  0.00    +0.000 A 
ATOM     19  C   UNL     1       1.591   2.323  18.759  0.00  0.00    +0.000 A 
ATOM     20  C   UNL     1       2.839   1.757  18.608  0.00  0.00    +0.000 A 
ATOM     21  C   UNL     1       3.894   2.543  18.140  0.00  0.00    +0.000 A 
ATOM     22  C   UNL     1       3.761   3.911  17.793  0.00  0.00    +0.000 A 
BRANCH  22  23
ATOM     23  N   UNL     1       4.859   4.553  17.245  0.00  0.00    +0.000 N 
ATOM     24  C   UNL     1       5.150   4.766  15.821  0.00  0.00    +0.000 C 
ATOM     25  C   UNL     1       6.543   4.199  15.496  0.00  0.00    +0.000 C 
ATOM     26  O   UNL     1       7.555   4.827  16.309  0.00  0.00    +0.000 OA
ATOM     27  C   UNL     1       7.278   4.609  17.703  0.00  0.00    +0.000 C 
ATOM     28  C   UNL     1       5.899   5.154  18.109  0.00  0.00    +0.000 C 
ENDBRANCH  22  23
ENDBRANCH  16  17
ENDBRANCH  15  16
ENDBRANCH   5  15
TORSDOF 5
ENDMDL
MODEL 8
REMARK VINA RESULT:      -7.8      2.106      2.426
REMARK  Name = 
REMARK  5 active torsions:
REMARK  status: ('A' for Active; 'I' for Inactive)
REMARK    1  A    between atoms: N_4  and  C_5
REMARK    2  A    between atoms: C_9  and  C_11
REMARK    3  A    between atoms: C_11  and  C_12
REMARK    4  A    between atoms: C_12  and  C_13
REMARK    5  A    between atoms: C_18  and  N_19
REMARK                            x       y       z     vdW  Elec       q    Type
REMARK                         _______ _______ _______ _____ _____    ______ ____
ROOT
ATOM      1  C   UNL     1       0.589  11.320  20.099  0.00  0.00    +0.000 C 
ATOM      2  C   UNL     1       0.900  11.341  18.591  0.00  0.00    +0.000 C 
ATOM      3  C   UNL     1       0.697   9.909  18.148  0.00  0.00    +0.000 C 
ATOM      4  N   UNL     1       1.162   9.155  19.294  0.00  0.00    +0.000 N 
ATOM      5  C   UNL     1       1.939   8.016  19.296  0.00  0.00    +0.000 C 
ATOM      6  O   UNL     1       2.276   7.447  20.334  0.00  0.00    +0.000 OA
ATOM      7  C   UNL     1       0.799   9.845  20.517  0.00  0.00    +0.000 C 
ENDROOT
BRANCH   1  11
ATOM      8  N   UNL     1      -0.011  14.026  20.918  0.00  0.00    +0.000 N 
ATOM      9  C   UNL     1       1.196  13.513  21.218  0.00  0.00    +0.000 C 
ATOM     10  O   UNL     1       2.054  14.190  21.768  0.00  0.00    +0.000 OA
ATOM     11  N   UNL     1       1.436  12.237  20.850  0.00  0.00    +0.000 N 
ATOM     12  H   UNL     1      -0.150  14.957  21.289  0.00  0.00    +0.000 HD
ATOM     13  H   UNL     1      -0.812  13.420  20.973  0.00  0.00    +0.000 HD
ATOM     14  H   UNL     1       2.390  11.960  21.052  0.00  0.00    +0.000 HD
ENDBRANCH   1  11
BRANCH   5  15
ATOM     15  C   UNL     1       2.385   7.543  17.926  0.00  0.00    +0.000 C 
BRANCH  15  16
ATOM     16  C   UNL     1       3.536   6.540  17.977  0.00  0.00    +0.000 C 
BRANCH  16  17
ATOM     17  C   UNL     1       3.165   5.064  17.929  0.00  0.00    +0.000 A 
ATOM     18  C   UNL     1       1.833   4.691  18.253  0.00  0.00    +0.000 A 
ATOM     19  C   UNL     1       1.400   3.371  18.235  0.00  0.00    +0.000 A 
ATOM     20  C   UNL     1       2.297   2.376  17.910  0.00  0.00    +0.000 A 
ATOM     21  C   UNL     1       3.609   2.719  17.580  0.00  0.00    +0.000 A 
ATOM     22  C   UNL     1       4.088   4.053  17.545  0.00  0.00    +0.000 A 
BRANCH  22  23
ATOM     23  N   UNL     1       5.383   4.268  17.103  0.00  0.00    +0.000 N 
ATOM     24  C   UNL     1       6.525   4.754  17.890  0.00  0.00    +0.000 C 
ATOM     25  C   UNL     1       7.123   5.996  17.205  0.00  0.00    +0.000 C 
ATOM     26  O   UNL     1       7.540   5.688  15.860  0.00  0.00    +0.000 OA
ATOM     27  C   UNL     1       6.422   5.224  15.086  0.00  0.00    +0.000 C 
ATOM     28  C   UNL     1       5.769   3.977  15.705  0.00  0.00    +0.000 C 
ENDBRANCH  22  23
ENDBRANCH  16  17
ENDBRANCH  15  16
ENDBRANCH   5  15
TORSDOF 5
ENDMDL
MODEL 9
REMARK VINA RESULT:      -7.7      2.537      2.861
REMARK  Name = 
REMARK  5 active torsions:
REMARK  status: ('A' for Active; 'I' for Inactive)
REMARK    1  A    between atoms: N_4  and  C_5
REMARK    2  A    between atoms: C_9  and  C_11
REMARK    3  A    between atoms: C_11  and  C_12
REMARK    4  A    between atoms: C_12  and  C_13
REMARK    5  A    between atoms: C_18  and  N_19
REMARK                            x       y       z     vdW  Elec       q    Type
REMARK                         _______ _______ _______ _____ _____    ______ ____
ROOT
ATOM      1  C   UNL     1       0.929  11.521  19.463  0.00  0.00    +0.000 C 
ATOM      2  C   UNL     1       1.907  11.197  18.320  0.00  0.00    +0.000 C 
ATOM      3  C   UNL     1       1.631   9.746  17.992  0.00  0.00    +0.000 C 
ATOM      4  N   UNL     1       1.327   9.181  19.290  0.00  0.00    +0.000 N 
ATOM      5  C   UNL     1       1.744   7.971  19.802  0.00  0.00    +0.000 C 
ATOM      6  O   UNL     1       1.421   7.581  20.924  0.00  0.00    +0.000 OA
ATOM      7  C   UNL     1       0.592  10.146  20.086  0.00  0.00    +0.000 C 
ENDROOT
BRANCH   1  11
ATOM      8  N   UNL     1      -0.472  13.266  21.292  0.00  0.00    +0.000 N 
ATOM      9  C   UNL     1       0.873  13.294  21.275  0.00  0.00    +0.000 C 
ATOM     10  O   UNL     1       1.500  14.084  21.968  0.00  0.00    +0.000 OA
ATOM     11  N   UNL     1       1.500  12.445  20.433  0.00  0.00    +0.000 N 
ATOM     12  H   UNL     1      -0.873  13.870  21.999  0.00  0.00    +0.000 HD
ATOM     13  H   UNL     1      -0.931  12.378  21.179  0.00  0.00    +0.000 HD
ATOM     14  H   UNL     1       2.504  12.586  20.435  0.00  0.00    +0.000 HD
ENDBRANCH   1  11
BRANCH   5  15
ATOM     15  C   UNL     1       2.665   7.176  18.897  0.00  0.00    +0.000 C 
BRANCH  15  16
ATOM     16  C   UNL     1       2.065   5.849  18.437  0.00  0.00    +0.000 C 
BRANCH  16  17
ATOM     17  C   UNL     1       2.258   4.651  19.357  0.00  0.00    +0.000 A 
ATOM     18  C   UNL     1       1.164   4.234  20.161  0.00  0.00    +0.000 A 
ATOM     19  C   UNL     1       1.242   3.151  21.028  0.00  0.00    +0.000 A 
ATOM     20  C   UNL     1       2.431   2.461  21.133  0.00  0.00    +0.000 A 
ATOM     21  C   UNL     1       3.518   2.847  20.347  0.00  0.00    +0.000 A 
ATOM     22  C   UNL     1       3.475   3.918  19.419  0.00  0.00    +0.000 A 
BRANCH  22  23
ATOM     23  N   UNL     1       4.590   4.137  18.626  0.00  0.00    +0.000 N 
ATOM     24  C   UNL     1       5.816   4.860  18.989  0.00  0.00    +0.000 C 
ATOM     25  C   UNL     1       6.072   5.976  17.962  0.00  0.00    +0.000 C 
ATOM     26  O   UNL     1       6.191   5.432  16.632  0.00  0.00    +0.000 OA
ATOM     27  C   UNL     1       4.987   4.735  16.270  0.00  0.00    +0.000 C 
ATOM     28  C   UNL     1       4.663   3.595  17.251  0.00  0.00    +0.000 C 
ENDBRANCH  22  23
ENDBRANCH  16  17
ENDBRANCH  15  16
ENDBRANCH   5  15
TORSDOF 5
ENDMDL
