MODEL 1
REMARK VINA RESULT:      -7.7      0.000      0.000
REMARK  Name = 
REMARK  8 active torsions:
REMARK  status: ('A' for Active; 'I' for Inactive)
REMARK    1  A    between atoms: C_1  and  O_2
REMARK    2  A    between atoms: O_2  and  C_3
REMARK    3  A    between atoms: C_5  and  O_6
REMARK    4  A    between atoms: O_6  and  C_7
REMARK    5  A    between atoms: C_8  and  N_9
REMARK    6  A    between atoms: N_9  and  S_10
REMARK    7  A    between atoms: S_10  and  C_13
REMARK    8  A    between atoms: C_16  and  C_17
REMARK                            x       y       z     vdW  Elec       q    Type
REMARK                         _______ _______ _______ _____ _____    ______ ____
ROOT
ATOM      1  N   UNL     1       3.269   5.297  17.884  0.00  0.00    +0.000 N 
ATOM      2  H   UNL     1       3.330   5.492  16.886  0.00  0.00    +0.000 HD
ENDROOT
BRANCH   1   6
ATOM      3  C   UNL     1       1.497   8.489  20.065  0.00  0.00    +0.000 A 
ATOM      4  C   UNL     1       1.602   7.219  20.655  0.00  0.00    +0.000 A 
ATOM      5  C   UNL     1       2.163   6.118  19.985  0.00  0.00    +0.000 A 
ATOM      6  C   UNL     1       2.627   6.298  18.675  0.00  0.00    +0.000 A 
ATOM      7  C   UNL     1       2.490   7.552  18.068  0.00  0.00    +0.000 A 
ATOM      8  C   UNL     1       1.948   8.648  18.754  0.00  0.00    +0.000 A 
ATOM      9 CL   UNL     1       1.985  10.150  17.903  0.00  0.00    +0.000 Cl
BRANCH   3  11
ATOM     10  C   UNL     1       1.147   9.197  22.325  0.00  0.00    +0.000 C 
ATOM     11  O   UNL     1       1.035   9.445  20.930  0.00  0.00    +0.000 OA
ENDBRANCH   3  11
BRANCH   5  12
ATOM     12  O   UNL     1       2.128   4.972  20.728  0.00  0.00    +0.000 OA
ATOM     13  C   UNL     1       1.077   4.046  20.514  0.00  0.00    +0.000 C 
ENDBRANCH   5  12
ENDBRANCH   1   6
BRANCH   1  14
ATOM     14  S   UNL     1       4.704   4.610  18.443  0.00  0.00    +0.000 S 
ATOM     15  O   UNL     1       5.241   5.532  19.419  0.00  0.00    +0.000 OA
ATOM     16  O   UNL     1       4.500   3.214  18.749  0.00  0.00    +0.000 OA
BRANCH  14  17
ATOM     17  C   UNL     1       5.858   4.626  17.181  0.00  0.00    +0.000 A 
ATOM     18  C   UNL     1       7.220   4.543  17.326  0.00  0.00    +0.000 A 
ATOM     19  O   UNL     1       7.823   4.566  16.107  0.00  0.00    +0.000 OA
ATOM     20  C   UNL     1       6.829   4.679  15.165  0.00  0.00    +0.000 A 
ATOM     21  C   UNL     1       5.599   4.734  15.795  0.00  0.00    +0.000 A 
BRANCH  20  22
ATOM     22  C   UNL     1       7.174   4.716  13.762  0.00  0.00    +0.000 C 
ATOM     23  N   UNL     1       8.117   5.642  13.420  0.00  0.00    +0.000 N 
ATOM     24  O   UNL     1       6.689   3.975  12.911  0.00  0.00    +0.000 OA
ATOM     25  H   UNL     1       8.527   6.248  14.117  0.00  0.00    +0.000 HD
ATOM     26  H   UNL     1       8.405   5.705  12.455  0.00  0.00    +0.000 HD
ENDBRANCH  20  22
ENDBRANCH  14  17
ENDBRANCH   1  14
TORSDOF 6
ENDMDL
MODEL 2
REMARK VINA RESULT:      -7.2      3.188      4.506
REMARK  Name = 
REMARK  8 active torsions:
REMARK  status: ('A' for Active; 'I' for Inactive)
REMARK    1  A    between atoms: C_1  and  O_2
REMARK    2  A    between atoms: O_2  and  C_3
REMARK    3  A    between atoms: C_5  and  O_6
REMARK    4  A    between atoms: O_6  and  C_7
REMARK    5  A    between atoms: C_8  and  N_9
REMARK    6  A    between atoms: N_9  and  S_10
REMARK    7  A    between atoms: S_10  and  C_13
REMARK    8  A    between atoms: C_16  and  C_17
REMARK                            x       y       z     vdW  Elec       q    Type
REMARK                         _______ _______ _______ _____ _____    ______ ____
ROOT
ATOM      1  N   UNL     1       6.551   4.253  16.988  0.00  0.00    +0.000 N 
ATOM      2  H   UNL     1       6.875   3.364  16.610  0.00  0.00    +0.000 HD
ENDROOT
BRANCH   1   6
ATOM      3  C   UNL     1       3.107   3.913  19.460  0.00  0.00    +0.000 A 
ATOM      4  C   UNL     1       4.128   4.810  19.811  0.00  0.00    +0.000 A 
ATOM      5  C   UNL     1       5.298   4.961  19.047  0.00  0.00    +0.000 A 
ATOM      6  C   UNL     1       5.451   4.178  17.895  0.00  0.00    +0.000 A 
ATOM      7  C   UNL     1       4.455   3.253  17.561  0.00  0.00    +0.000 A 
ATOM      8  C   UNL     1       3.282   3.127  18.320  0.00  0.00    +0.000 A 
ATOM      9 CL   UNL     1       2.100   2.040  17.686  0.00  0.00    +0.000 Cl
BRANCH   3  11
ATOM     10  C   UNL     1       1.764   5.248  20.923  0.00  0.00    +0.000 C 
ATOM     11  O   UNL     1       2.006   4.010  20.268  0.00  0.00    +0.000 OA
ENDBRANCH   3  11
BRANCH   5  12
ATOM     12  O   UNL     1       6.173   5.858  19.592  0.00  0.00    +0.000 OA
ATOM     13  C   UNL     1       7.547   5.519  19.667  0.00  0.00    +0.000 C 
ENDBRANCH   5  12
ENDBRANCH   1   6
BRANCH   1  14
ATOM     14  S   UNL     1       6.543   5.439  15.790  0.00  0.00    +0.000 S 
ATOM     15  O   UNL     1       5.255   6.093  15.877  0.00  0.00    +0.000 OA
ATOM     16  O   UNL     1       7.778   6.187  15.822  0.00  0.00    +0.000 OA
BRANCH  14  17
ATOM     17  C   UNL     1       6.519   4.683  14.256  0.00  0.00    +0.000 A 
ATOM     18  C   UNL     1       7.416   4.884  13.238  0.00  0.00    +0.000 A 
ATOM     19  O   UNL     1       7.098   4.100  12.173  0.00  0.00    +0.000 OA
ATOM     20  C   UNL     1       5.969   3.394  12.511  0.00  0.00    +0.000 A 
ATOM     21  C   UNL     1       5.573   3.740  13.790  0.00  0.00    +0.000 A 
BRANCH  20  22
ATOM     22  C   UNL     1       5.401   2.459  11.567  0.00  0.00    +0.000 C 
ATOM     23  N   UNL     1       6.150   1.341  11.334  0.00  0.00    +0.000 N 
ATOM     24  O   UNL     1       4.320   2.614  11.005  0.00  0.00    +0.000 OA
ATOM     25  H   UNL     1       7.036   1.202  11.802  0.00  0.00    +0.000 HD
ATOM     26  H   UNL     1       5.798   0.648  10.692  0.00  0.00    +0.000 HD
ENDBRANCH  20  22
ENDBRANCH  14  17
ENDBRANCH   1  14
TORSDOF 6
ENDMDL
MODEL 3
REMARK VINA RESULT:      -7.1      2.870      4.169
REMARK  Name = 
REMARK  8 active torsions:
REMARK  status: ('A' for Active; 'I' for Inactive)
REMARK    1  A    between atoms: C_1  and  O_2
REMARK    2  A    between atoms: O_2  and  C_3
REMARK    3  A    between atoms: C_5  and  O_6
REMARK    4  A    between atoms: O_6  and  C_7
REMARK    5  A    between atoms: C_8  and  N_9
REMARK    6  A    between atoms: N_9  and  S_10
REMARK    7  A    between atoms: S_10  and  C_13
REMARK    8  A    between atoms: C_16  and  C_17
REMARK                            x       y       z     vdW  Elec       q    Type
REMARK                         _______ _______ _______ _____ _____    ______ ____
ROOT
ATOM      1  N   UNL     1       5.033   6.109  16.609  0.00  0.00    +0.000 N 
ATOM      2  H   UNL     1       5.123   7.104  16.808  0.00  0.00    +0.000 HD
ENDROOT
BRANCH   1   6
ATOM      3  C   UNL     1       2.356   3.721  18.894  0.00  0.00    +0.000 A 
ATOM      4  C   UNL     1       2.218   5.119  18.899  0.00  0.00    +0.000 A 
ATOM      5  C   UNL     1       3.076   5.966  18.178  0.00  0.00    +0.000 A 
ATOM      6  C   UNL     1       4.114   5.391  17.433  0.00  0.00    +0.000 A 
ATOM      7  C   UNL     1       4.282   4.001  17.455  0.00  0.00    +0.000 A 
ATOM      8  C   UNL     1       3.405   3.164  18.161  0.00  0.00    +0.000 A 
ATOM      9 CL   UNL     1       3.675   1.470  17.964  0.00  0.00    +0.000 Cl
BRANCH   3  11
ATOM     10  C   UNL     1       1.205   3.320  20.954  0.00  0.00    +0.000 C 
ATOM     11  O   UNL     1       1.346   3.079  19.560  0.00  0.00    +0.000 OA
ENDBRANCH   3  11
BRANCH   5  12
ATOM     12  O   UNL     1       2.786   7.289  18.357  0.00  0.00    +0.000 OA
ATOM     13  C   UNL     1       2.158   7.699  19.560  0.00  0.00    +0.000 C 
ENDBRANCH   5  12
ENDBRANCH   1   6
BRANCH   1  14
ATOM     14  S   UNL     1       6.541   5.429  16.284  0.00  0.00    +0.000 S 
ATOM     15  O   UNL     1       7.473   6.532  16.198  0.00  0.00    +0.000 OA
ATOM     16  O   UNL     1       6.777   4.303  17.156  0.00  0.00    +0.000 OA
BRANCH  14  17
ATOM     17  C   UNL     1       6.529   4.774  14.704  0.00  0.00    +0.000 A 
ATOM     18  C   UNL     1       7.463   5.000  13.725  0.00  0.00    +0.000 A 
ATOM     19  O   UNL     1       7.143   4.301  12.603  0.00  0.00    +0.000 OA
ATOM     20  C   UNL     1       5.976   3.624  12.866  0.00  0.00    +0.000 A 
ATOM     21  C   UNL     1       5.558   3.905  14.153  0.00  0.00    +0.000 A 
BRANCH  20  22
ATOM     22  C   UNL     1       5.396   2.777  11.848  0.00  0.00    +0.000 C 
ATOM     23  N   UNL     1       6.105   1.646  11.561  0.00  0.00    +0.000 N 
ATOM     24  O   UNL     1       4.339   3.014  11.271  0.00  0.00    +0.000 OA
ATOM     25  H   UNL     1       6.972   1.439  12.040  0.00  0.00    +0.000 HD
ATOM     26  H   UNL     1       5.743   1.011  10.866  0.00  0.00    +0.000 HD
ENDBRANCH  20  22
ENDBRANCH  14  17
ENDBRANCH   1  14
TORSDOF 6
ENDMDL
MODEL 4
REMARK VINA RESULT:      -7.0      2.927      6.177
REMARK  Name = 
REMARK  8 active torsions:
REMARK  status: ('A' for Active; 'I' for Inactive)
REMARK    1  A    between atoms: C_1  and  O_2
REMARK    2  A    between atoms: O_2  and  C_3
REMARK    3  A    between atoms: C_5  and  O_6
REMARK    4  A    between atoms: O_6  and  C_7
REMARK    5  A    between atoms: C_8  and  N_9
REMARK    6  A    between atoms: N_9  and  S_10
REMARK    7  A    between atoms: S_10  and  C_13
REMARK    8  A    between atoms: C_16  and  C_17
REMARK                            x       y       z     vdW  Elec       q    Type
REMARK                         _______ _______ _______ _____ _____    ______ ____
ROOT
ATOM      1  N   UNL     1       4.511   2.829  17.864  0.00  0.00    +0.000 N 
ATOM      2  H   UNL     1       4.858   2.172  18.562  0.00  0.00    +0.000 HD
ENDROOT
BRANCH   1   6
ATOM      3  C   UNL     1       7.157   6.082  17.153  0.00  0.00    +0.000 A 
ATOM      4  C   UNL     1       6.351   5.602  16.109  0.00  0.00    +0.000 A 
ATOM      5  C   UNL     1       5.466   4.522  16.272  0.00  0.00    +0.000 A 
ATOM      6  C   UNL     1       5.395   3.899  17.525  0.00  0.00    +0.000 A 
ATOM      7  C   UNL     1       6.224   4.348  18.559  0.00  0.00    +0.000 A 
ATOM      8  C   UNL     1       7.087   5.440  18.391  0.00  0.00    +0.000 A 
ATOM      9 CL   UNL     1       7.931   5.947  19.809  0.00  0.00    +0.000 Cl
BRANCH   3  11
ATOM     10  C   UNL     1       7.664   8.376  17.615  0.00  0.00    +0.000 C 
ATOM     11  O   UNL     1       7.852   7.214  16.818  0.00  0.00    +0.000 OA
ENDBRANCH   3  11
BRANCH   5  12
ATOM     12  O   UNL     1       4.811   4.196  15.118  0.00  0.00    +0.000 OA
ATOM     13  C   UNL     1       5.548   4.106  13.911  0.00  0.00    +0.000 C 
ENDBRANCH   5  12
ENDBRANCH   1   6
BRANCH   1  14
ATOM     14  S   UNL     1       2.881   3.169  18.127  0.00  0.00    +0.000 S 
ATOM     15  O   UNL     1       2.245   3.133  16.828  0.00  0.00    +0.000 OA
ATOM     16  O   UNL     1       2.384   2.392  19.237  0.00  0.00    +0.000 OA
BRANCH  14  17
ATOM     17  C   UNL     1       2.724   4.800  18.617  0.00  0.00    +0.000 A 
ATOM     18  C   UNL     1       2.947   5.293  19.878  0.00  0.00    +0.000 A 
ATOM     19  O   UNL     1       2.745   6.638  19.897  0.00  0.00    +0.000 OA
ATOM     20  C   UNL     1       2.373   7.010  18.627  0.00  0.00    +0.000 A 
ATOM     21  C   UNL     1       2.335   5.895  17.811  0.00  0.00    +0.000 A 
BRANCH  20  22
ATOM     22  C   UNL     1       2.101   8.401  18.341  0.00  0.00    +0.000 C 
ATOM     23  N   UNL     1       1.444   9.079  19.327  0.00  0.00    +0.000 N 
ATOM     24  O   UNL     1       2.434   8.971  17.305  0.00  0.00    +0.000 OA
ATOM     25  H   UNL     1       1.177   8.618  20.186  0.00  0.00    +0.000 HD
ATOM     26  H   UNL     1       1.238  10.057  19.186  0.00  0.00    +0.000 HD
ENDBRANCH  20  22
ENDBRANCH  14  17
ENDBRANCH   1  14
TORSDOF 6
ENDMDL
MODEL 5
REMARK VINA RESULT:      -7.0      2.372      3.282
REMARK  Name = 
REMARK  8 active torsions:
REMARK  status: ('A' for Active; 'I' for Inactive)
REMARK    1  A    between atoms: C_1  and  O_2
REMARK    2  A    between atoms: O_2  and  C_3
REMARK    3  A    between atoms: C_5  and  O_6
REMARK    4  A    between atoms: O_6  and  C_7
REMARK    5  A    between atoms: C_8  and  N_9
REMARK    6  A    between atoms: N_9  and  S_10
REMARK    7  A    between atoms: S_10  and  C_13
REMARK    8  A    between atoms: C_16  and  C_17
REMARK                            x       y       z     vdW  Elec       q    Type
REMARK                         _______ _______ _______ _____ _____    ______ ____
ROOT
ATOM      1  N   UNL     1       4.391   6.330  16.778  0.00  0.00    +0.000 N 
ATOM      2  H   UNL     1       4.329   7.338  16.647  0.00  0.00    +0.000 HD
ENDROOT
BRANCH   1   6
ATOM      3  C   UNL     1       1.919   4.941  19.949  0.00  0.00    +0.000 A 
ATOM      4  C   UNL     1       2.404   4.031  18.996  0.00  0.00    +0.000 A 
ATOM      5  C   UNL     1       3.213   4.425  17.917  0.00  0.00    +0.000 A 
ATOM      6  C   UNL     1       3.539   5.781  17.785  0.00  0.00    +0.000 A 
ATOM      7  C   UNL     1       3.026   6.700  18.708  0.00  0.00    +0.000 A 
ATOM      8  C   UNL     1       2.238   6.291  19.794  0.00  0.00    +0.000 A 
ATOM      9 CL   UNL     1       1.809   7.536  20.911  0.00  0.00    +0.000 Cl
BRANCH   3  11
ATOM     10  C   UNL     1       1.914   3.283  21.674  0.00  0.00    +0.000 C 
ATOM     11  O   UNL     1       1.255   4.335  20.982  0.00  0.00    +0.000 OA
ENDBRANCH   3  11
BRANCH   5  12
ATOM     12  O   UNL     1       3.539   3.385  17.092  0.00  0.00    +0.000 OA
ATOM     13  C   UNL     1       3.461   2.061  17.593  0.00  0.00    +0.000 C 
ENDBRANCH   5  12
ENDBRANCH   1   6
BRANCH   1  14
ATOM     14  S   UNL     1       5.996   5.818  16.699  0.00  0.00    +0.000 S 
ATOM     15  O   UNL     1       6.803   7.018  16.660  0.00  0.00    +0.000 OA
ATOM     16  O   UNL     1       6.233   4.775  17.669  0.00  0.00    +0.000 OA
BRANCH  14  17
ATOM     17  C   UNL     1       6.272   5.084  15.179  0.00  0.00    +0.000 A 
ATOM     18  C   UNL     1       7.436   5.131  14.455  0.00  0.00    +0.000 A 
ATOM     19  O   UNL     1       7.301   4.419  13.304  0.00  0.00    +0.000 OA
ATOM     20  C   UNL     1       6.022   3.917  13.286  0.00  0.00    +0.000 A 
ATOM     21  C   UNL     1       5.350   4.320  14.425  0.00  0.00    +0.000 A 
BRANCH  20  22
ATOM     22  C   UNL     1       5.591   3.098  12.176  0.00  0.00    +0.000 C 
ATOM     23  N   UNL     1       6.452   2.098  11.824  0.00  0.00    +0.000 N 
ATOM     24  O   UNL     1       4.530   3.248  11.577  0.00  0.00    +0.000 OA
ATOM     25  H   UNL     1       7.322   1.962  12.320  0.00  0.00    +0.000 HD
ATOM     26  H   UNL     1       6.198   1.487  11.061  0.00  0.00    +0.000 HD
ENDBRANCH  20  22
ENDBRANCH  14  17
ENDBRANCH   1  14
TORSDOF 6
ENDMDL
MODEL 6
REMARK VINA RESULT:      -7.0      3.059      4.193
REMARK  Name = 
REMARK  8 active torsions:
REMARK  status: ('A' for Active; 'I' for Inactive)
REMARK    1  A    between atoms: C_1  and  O_2
REMARK    2  A    between atoms: O_2  and  C_3
REMARK    3  A    between atoms: C_5  and  O_6
REMARK    4  A    between atoms: O_6  and  C_7
REMARK    5  A    between atoms: C_8  and  N_9
REMARK    6  A    between atoms: N_9  and  S_10
REMARK    7  A    between atoms: S_10  and  C_13
REMARK    8  A    between atoms: C_16  and  C_17
REMARK                            x       y       z     vdW  Elec       q    Type
REMARK                         _______ _______ _______ _____ _____    ______ ____
ROOT
ATOM      1  N   UNL     1       5.967   5.758  19.406  0.00  0.00    +0.000 N 
ATOM      2  H   UNL     1       6.280   5.671  20.371  0.00  0.00    +0.000 HD
ENDROOT
BRANCH   1   6
ATOM      3  C   UNL     1       2.517   3.511  18.337  0.00  0.00    +0.000 A 
ATOM      4  C   UNL     1       2.416   4.902  18.503  0.00  0.00    +0.000 A 
ATOM      5  C   UNL     1       3.513   5.701  18.868  0.00  0.00    +0.000 A 
ATOM      6  C   UNL     1       4.750   5.082  19.083  0.00  0.00    +0.000 A 
ATOM      7  C   UNL     1       4.849   3.690  18.959  0.00  0.00    +0.000 A 
ATOM      8  C   UNL     1       3.753   2.906  18.572  0.00  0.00    +0.000 A 
ATOM      9 CL   UNL     1       4.086   1.229  18.331  0.00  0.00    +0.000 Cl
BRANCH   3  11
ATOM     10  C   UNL     1       0.563   2.198  18.768  0.00  0.00    +0.000 C 
ATOM     11  O   UNL     1       1.366   2.943  17.862  0.00  0.00    +0.000 OA
ENDBRANCH   3  11
BRANCH   5  12
ATOM     12  O   UNL     1       3.182   7.019  19.012  0.00  0.00    +0.000 OA
ATOM     13  C   UNL     1       3.032   7.820  17.852  0.00  0.00    +0.000 C 
ENDBRANCH   5  12
ENDBRANCH   1   6
BRANCH   1  14
ATOM     14  S   UNL     1       7.272   5.641  18.344  0.00  0.00    +0.000 S 
ATOM     15  O   UNL     1       7.915   6.936  18.349  0.00  0.00    +0.000 OA
ATOM     16  O   UNL     1       8.009   4.426  18.596  0.00  0.00    +0.000 OA
BRANCH  14  17
ATOM     17  C   UNL     1       6.679   5.481  16.748  0.00  0.00    +0.000 A 
ATOM     18  C   UNL     1       5.740   6.279  16.147  0.00  0.00    +0.000 A 
ATOM     19  O   UNL     1       5.527   5.870  14.868  0.00  0.00    +0.000 OA
ATOM     20  C   UNL     1       6.336   4.781  14.650  0.00  0.00    +0.000 A 
ATOM     21  C   UNL     1       7.054   4.502  15.798  0.00  0.00    +0.000 A 
BRANCH  20  22
ATOM     22  C   UNL     1       6.332   4.134  13.357  0.00  0.00    +0.000 C 
ATOM     23  N   UNL     1       7.300   4.559  12.493  0.00  0.00    +0.000 N 
ATOM     24  O   UNL     1       5.543   3.253  13.028  0.00  0.00    +0.000 OA
ATOM     25  H   UNL     1       7.959   5.277  12.762  0.00  0.00    +0.000 HD
ATOM     26  H   UNL     1       7.352   4.134  11.579  0.00  0.00    +0.000 HD
ENDBRANCH  20  22
ENDBRANCH  14  17
ENDBRANCH   1  14
TORSDOF 6
ENDMDL
MODEL 7
REMARK VINA RESULT:      -6.9      3.338      4.666
REMARK  Name = 
REMARK  8 active torsions:
REMARK  status: ('A' for Active; 'I' for Inactive)
REMARK    1  A    between atoms: C_1  and  O_2
REMARK    2  A    between atoms: O_2  and  C_3
REMARK    3  A    between atoms: C_5  and  O_6
REMARK    4  A    between atoms: O_6  and  C_7
REMARK    5  A    between atoms: C_8  and  N_9
REMARK    6  A    between atoms: N_9  and  S_10
REMARK    7  A    between atoms: S_10  and  C_13
REMARK    8  A    between atoms: C_16  and  C_17
REMARK                            x       y       z     vdW  Elec       q    Type
REMARK                         _______ _______ _______ _____ _____    ______ ____
ROOT
ATOM      1  N   UNL     1       5.517   4.871  17.091  0.00  0.00    +0.000 N 
ATOM      2  H   UNL     1       5.429   5.512  16.304  0.00  0.00    +0.000 HD
ENDROOT
BRANCH   1   6
ATOM      3  C   UNL     1       2.069   4.594  19.566  0.00  0.00    +0.000 A 
ATOM      4  C   UNL     1       2.615   3.429  19.002  0.00  0.00    +0.000 A 
ATOM      5  C   UNL     1       3.743   3.452  18.164  0.00  0.00    +0.000 A 
ATOM      6  C   UNL     1       4.339   4.687  17.877  0.00  0.00    +0.000 A 
ATOM      7  C   UNL     1       3.776   5.856  18.404  0.00  0.00    +0.000 A 
ATOM      8  C   UNL     1       2.663   5.819  19.256  0.00  0.00    +0.000 A 
ATOM      9 CL   UNL     1       2.189   7.338  19.927  0.00  0.00    +0.000 Cl
BRANCH   3  11
ATOM     10  C   UNL     1       1.160   3.193  21.280  0.00  0.00    +0.000 C 
ATOM     11  O   UNL     1       1.051   4.338  20.445  0.00  0.00    +0.000 OA
ENDBRANCH   3  11
BRANCH   5  12
ATOM     12  O   UNL     1       4.079   2.213  17.696  0.00  0.00    +0.000 OA
ATOM     13  C   UNL     1       3.785   1.076  18.488  0.00  0.00    +0.000 C 
ENDBRANCH   5  12
ENDBRANCH   1   6
BRANCH   1  14
ATOM     14  S   UNL     1       6.995   5.091  17.874  0.00  0.00    +0.000 S 
ATOM     15  O   UNL     1       6.754   4.825  19.275  0.00  0.00    +0.000 OA
ATOM     16  O   UNL     1       8.047   4.425  17.144  0.00  0.00    +0.000 OA
BRANCH  14  17
ATOM     17  C   UNL     1       7.405   6.750  17.833  0.00  0.00    +0.000 A 
ATOM     18  C   UNL     1       6.903   7.690  16.968  0.00  0.00    +0.000 A 
ATOM     19  O   UNL     1       7.441   8.910  17.238  0.00  0.00    +0.000 OA
ATOM     20  C   UNL     1       8.312   8.745  18.288  0.00  0.00    +0.000 A 
ATOM     21  C   UNL     1       8.327   7.418  18.673  0.00  0.00    +0.000 A 
BRANCH  20  22
ATOM     22  C   UNL     1       9.029   9.888  18.808  0.00  0.00    +0.000 C 
ATOM     23  N   UNL     1       9.458  10.781  17.868  0.00  0.00    +0.000 N 
ATOM     24  O   UNL     1       9.244  10.085  20.001  0.00  0.00    +0.000 OA
ATOM     25  H   UNL     1       9.275  10.630  16.885  0.00  0.00    +0.000 HD
ATOM     26  H   UNL     1       9.955  11.604  18.174  0.00  0.00    +0.000 HD
ENDBRANCH  20  22
ENDBRANCH  14  17
ENDBRANCH   1  14
TORSDOF 6
ENDMDL
MODEL 8
REMARK VINA RESULT:      -6.8      2.121      2.562
REMARK  Name = 
REMARK  8 active torsions:
REMARK  status: ('A' for Active; 'I' for Inactive)
REMARK    1  A    between atoms: C_1  and  O_2
REMARK    2  A    between atoms: O_2  and  C_3
REMARK    3  A    between atoms: C_5  and  O_6
REMARK    4  A    between atoms: O_6  and  C_7
REMARK    5  A    between atoms: C_8  and  N_9
REMARK    6  A    between atoms: N_9  and  S_10
REMARK    7  A    between atoms: S_10  and  C_13
REMARK    8  A    between atoms: C_16  and  C_17
REMARK                            x       y       z     vdW  Elec       q    Type
REMARK                         _______ _______ _______ _____ _____    ______ ____
ROOT
ATOM      1  N   UNL     1       2.295   3.376  18.298  0.00  0.00    +0.000 N 
ATOM      2  H   UNL     1       1.873   3.270  17.376  0.00  0.00    +0.000 HD
ENDROOT
BRANCH   1   6
ATOM      3  C   UNL     1       1.864   7.246  20.008  0.00  0.00    +0.000 A 
ATOM      4  C   UNL     1       1.501   6.113  20.754  0.00  0.00    +0.000 A 
ATOM      5  C   UNL     1       1.605   4.807  20.244  0.00  0.00    +0.000 A 
ATOM      6  C   UNL     1       2.081   4.635  18.938  0.00  0.00    +0.000 A 
ATOM      7  C   UNL     1       2.407   5.763  18.175  0.00  0.00    +0.000 A 
ATOM      8  C   UNL     1       2.320   7.059  18.702  0.00  0.00    +0.000 A 
ATOM      9 CL   UNL     1       2.894   8.321  17.673  0.00  0.00    +0.000 Cl
BRANCH   3  11
ATOM     10  C   UNL     1       0.746   8.553  21.672  0.00  0.00    +0.000 C 
ATOM     11  O   UNL     1       1.801   8.407  20.731  0.00  0.00    +0.000 OA
ENDBRANCH   3  11
BRANCH   5  12
ATOM     12  O   UNL     1       1.162   3.859  21.123  0.00  0.00    +0.000 OA
ATOM     13  C   UNL     1       2.107   3.157  21.911  0.00  0.00    +0.000 C 
ENDBRANCH   5  12
ENDBRANCH   1   6
BRANCH   1  14
ATOM     14  S   UNL     1       3.838   2.697  18.327  0.00  0.00    +0.000 S 
ATOM     15  O   UNL     1       4.204   2.584  19.722  0.00  0.00    +0.000 OA
ATOM     16  O   UNL     1       3.900   1.566  17.432  0.00  0.00    +0.000 OA
BRANCH  14  17
ATOM     17  C   UNL     1       4.956   3.826  17.696  0.00  0.00    +0.000 A 
ATOM     18  C   UNL     1       5.200   4.072  16.368  0.00  0.00    +0.000 A 
ATOM     19  O   UNL     1       6.138   5.048  16.238  0.00  0.00    +0.000 OA
ATOM     20  C   UNL     1       6.510   5.426  17.506  0.00  0.00    +0.000 A 
ATOM     21  C   UNL     1       5.808   4.680  18.435  0.00  0.00    +0.000 A 
BRANCH  20  22
ATOM     22  C   UNL     1       7.495   6.469  17.681  0.00  0.00    +0.000 C 
ATOM     23  N   UNL     1       8.069   6.524  18.918  0.00  0.00    +0.000 N 
ATOM     24  O   UNL     1       7.829   7.259  16.802  0.00  0.00    +0.000 OA
ATOM     25  H   UNL     1       7.805   5.870  19.644  0.00  0.00    +0.000 HD
ATOM     26  H   UNL     1       8.772   7.226  19.095  0.00  0.00    +0.000 HD
ENDBRANCH  20  22
ENDBRANCH  14  17
ENDBRANCH   1  14
TORSDOF 6
ENDMDL
MODEL 9
REMARK VINA RESULT:      -6.8      1.437      1.583
REMARK  Name = 
REMARK  8 active torsions:
REMARK  status: ('A' for Active; 'I' for Inactive)
REMARK    1  A    between atoms: C_1  and  O_2
REMARK    2  A    between atoms: O_2  and  C_3
REMARK    3  A    between atoms: C_5  and  O_6
REMARK    4  A    between atoms: O_6  and  C_7
REMARK    5  A    between atoms: C_8  and  N_9
REMARK    6  A    between atoms: N_9  and  S_10
REMARK    7  A    between atoms: S_10  and  C_13
REMARK    8  A    between atoms: C_16  and  C_17
REMARK                            x       y       z     vdW  Elec       q    Type
REMARK                         _______ _______ _______ _____ _____    ______ ____
ROOT
ATOM      1  N   UNL     1       3.627   5.288  17.431  0.00  0.00    +0.000 N 
ATOM      2  H   UNL     1       3.251   5.321  16.484  0.00  0.00    +0.000 HD
ENDROOT
BRANCH   1   6
ATOM      3  C   UNL     1       1.739   7.985  20.124  0.00  0.00    +0.000 A 
ATOM      4  C   UNL     1       2.089   6.698  20.562  0.00  0.00    +0.000 A 
ATOM      5  C   UNL     1       2.702   5.753  19.720  0.00  0.00    +0.000 A 
ATOM      6  C   UNL     1       2.964   6.112  18.391  0.00  0.00    +0.000 A 
ATOM      7  C   UNL     1       2.582   7.380  17.938  0.00  0.00    +0.000 A 
ATOM      8  C   UNL     1       1.991   8.321  18.793  0.00  0.00    +0.000 A 
ATOM      9 CL   UNL     1       1.715   9.880  18.104  0.00  0.00    +0.000 Cl
BRANCH   3  11
ATOM     10  C   UNL     1      -0.137   8.970  21.236  0.00  0.00    +0.000 C 
ATOM     11  O   UNL     1       1.268   8.785  21.130  0.00  0.00    +0.000 OA
ENDBRANCH   3  11
BRANCH   5  12
ATOM     12  O   UNL     1       2.918   4.555  20.339  0.00  0.00    +0.000 OA
ATOM     13  C   UNL     1       1.946   3.531  20.214  0.00  0.00    +0.000 C 
ENDBRANCH   5  12
ENDBRANCH   1   6
BRANCH   1  14
ATOM     14  S   UNL     1       5.313   5.264  17.400  0.00  0.00    +0.000 S 
ATOM     15  O   UNL     1       5.740   6.639  17.541  0.00  0.00    +0.000 OA
ATOM     16  O   UNL     1       5.811   4.222  18.267  0.00  0.00    +0.000 OA
BRANCH  14  17
ATOM     17  C   UNL     1       5.836   4.827  15.832  0.00  0.00    +0.000 A 
ATOM     18  C   UNL     1       7.074   5.070  15.292  0.00  0.00    +0.000 A 
ATOM     19  O   UNL     1       7.142   4.565  14.031  0.00  0.00    +0.000 OA
ATOM     20  C   UNL     1       5.921   3.999  13.755  0.00  0.00    +0.000 A 
ATOM     21  C   UNL     1       5.081   4.155  14.842  0.00  0.00    +0.000 A 
BRANCH  20  22
ATOM     22  C   UNL     1       5.700   3.364  12.475  0.00  0.00    +0.000 C 
ATOM     23  N   UNL     1       6.745   2.618  12.009  0.00  0.00    +0.000 N 
ATOM     24  O   UNL     1       4.660   3.453  11.829  0.00  0.00    +0.000 OA
ATOM     25  H   UNL     1       7.601   2.533  12.541  0.00  0.00    +0.000 HD
ATOM     26  H   UNL     1       6.644   2.143  11.125  0.00  0.00    +0.000 HD
ENDBRANCH  20  22
ENDBRANCH  14  17
ENDBRANCH   1  14
TORSDOF 6
ENDMDL
