MODEL 1
REMARK VINA RESULT:      -8.7      0.000      0.000
REMARK  Name = 
REMARK  4 active torsions:
REMARK  status: ('A' for Active; 'I' for Inactive)
REMARK    1  A    between atoms: C_7  and  C_8
REMARK    2  A    between atoms: C_8  and  N_9
REMARK    3  A    between atoms: N_9  and  C_10
REMARK    4  A    between atoms: N_18  and  C_19
REMARK                            x       y       z     vdW  Elec       q    Type
REMARK                         _______ _______ _______ _____ _____    ______ ____
ROOT
ATOM      1  C   UNL     1       2.160   6.186  20.277  0.00  0.00    +0.000 A 
ATOM      2  C   UNL     1       1.369   5.179  20.825  0.00  0.00    +0.000 A 
ATOM      3  C   UNL     1       1.445   3.865  20.348  0.00  0.00    +0.000 A 
ATOM      4  C   UNL     1       2.294   3.517  19.308  0.00  0.00    +0.000 A 
ATOM      5  N   UNL     1       2.323   2.248  18.887  0.00  0.00    +0.000 NA
ATOM      6  C   UNL     1       3.151   1.973  17.877  0.00  0.00    +0.000 A 
ATOM      7  N   UNL     1       3.964   2.835  17.262  0.00  0.00    +0.000 NA
ATOM      8  C   UNL     1       3.946   4.104  17.708  0.00  0.00    +0.000 A 
ATOM      9  N   UNL     1       4.855   5.046  17.144  0.00  0.00    +0.000 N 
ATOM     10  C   UNL     1       3.086   4.518  18.738  0.00  0.00    +0.000 A 
ATOM     11  C   UNL     1       2.987   5.849  19.206  0.00  0.00    +0.000 A 
ATOM     12  H   UNL     1       5.436   5.416  17.890  0.00  0.00    +0.000 HD
ENDROOT
BRANCH   9  13
ATOM     13  C   UNL     1       5.588   4.834  15.955  0.00  0.00    +0.000 A 
ATOM     14  C   UNL     1       6.937   5.203  15.872  0.00  0.00    +0.000 A 
ATOM     15  C   UNL     1       7.658   5.034  14.691  0.00  0.00    +0.000 A 
ATOM     16  C   UNL     1       7.035   4.485  13.574  0.00  0.00    +0.000 A 
ATOM     17  C   UNL     1       5.701   4.090  13.655  0.00  0.00    +0.000 A 
ATOM     18 BR   UNL     1       4.853   3.355  12.132  0.00  0.00    +0.000 Br
ATOM     19  C   UNL     1       4.979   4.247  14.839  0.00  0.00    +0.000 A 
ENDBRANCH   9  13
BRANCH   1  20
ATOM     20  N   UNL     1       2.042   7.481  20.786  0.00  0.00    +0.000 N 
ATOM     21  H   UNL     1       1.655   7.455  21.729  0.00  0.00    +0.000 HD
BRANCH  20  22
ATOM     22  C   UNL     1       1.362   8.486  19.967  0.00  0.00    +0.000 C 
BRANCH  22  29
ATOM     23 CL   UNL     1       0.673  11.408  18.969  0.00  0.00    +0.000 Cl
ATOM     24  C   UNL     1       0.239  10.728  20.497  0.00  0.00    +0.000 A 
ATOM     25  C   UNL     1      -0.456  11.552  21.389  0.00  0.00    +0.000 A 
ATOM     26  C   UNL     1      -0.817  11.078  22.651  0.00  0.00    +0.000 A 
ATOM     27  C   UNL     1      -0.487   9.779  23.026  0.00  0.00    +0.000 A 
ATOM     28  C   UNL     1       0.201   8.956  22.136  0.00  0.00    +0.000 A 
ATOM     29  C   UNL     1       0.569   9.413  20.854  0.00  0.00    +0.000 A 
ENDBRANCH  22  29
ENDBRANCH  20  22
ENDBRANCH   1  20
TORSDOF 4
ENDMDL
MODEL 2
REMARK VINA RESULT:      -8.6      1.121      1.527
REMARK  Name = 
REMARK  4 active torsions:
REMARK  status: ('A' for Active; 'I' for Inactive)
REMARK    1  A    between atoms: C_7  and  C_8
REMARK    2  A    between atoms: C_8  and  N_9
REMARK    3  A    between atoms: N_9  and  C_10
REMARK    4  A    between atoms: N_18  and  C_19
REMARK                            x       y       z     vdW  Elec       q    Type
REMARK                         _______ _______ _______ _____ _____    ______ ____
ROOT
ATOM      1  C   UNL     1       2.163   6.341  20.102  0.00  0.00    +0.000 A 
ATOM      2  C   UNL     1       1.407   5.351  20.725  0.00  0.00    +0.000 A 
ATOM      3  C   UNL     1       1.507   4.012  20.328  0.00  0.00    +0.000 A 
ATOM      4  C   UNL     1       2.348   3.621  19.296  0.00  0.00    +0.000 A 
ATOM      5  N   UNL     1       2.402   2.329  18.954  0.00  0.00    +0.000 NA
ATOM      6  C   UNL     1       3.221   2.013  17.948  0.00  0.00    +0.000 A 
ATOM      7  N   UNL     1       4.002   2.854  17.268  0.00  0.00    +0.000 NA
ATOM      8  C   UNL     1       3.959   4.148  17.635  0.00  0.00    +0.000 A 
ATOM      9  N   UNL     1       4.836   5.075  16.999  0.00  0.00    +0.000 N 
ATOM     10  C   UNL     1       3.106   4.604  18.652  0.00  0.00    +0.000 A 
ATOM     11  C   UNL     1       2.981   5.959  19.040  0.00  0.00    +0.000 A 
ATOM     12  H   UNL     1       5.419   5.504  17.710  0.00  0.00    +0.000 HD
ENDROOT
BRANCH   9  13
ATOM     13  C   UNL     1       5.555   4.808  15.812  0.00  0.00    +0.000 A 
ATOM     14  C   UNL     1       6.918   5.118  15.718  0.00  0.00    +0.000 A 
ATOM     15  C   UNL     1       7.627   4.894  14.538  0.00  0.00    +0.000 A 
ATOM     16  C   UNL     1       6.977   4.349  13.435  0.00  0.00    +0.000 A 
ATOM     17  C   UNL     1       5.627   4.013  13.528  0.00  0.00    +0.000 A 
ATOM     18 BR   UNL     1       4.744   3.283  12.023  0.00  0.00    +0.000 Br
ATOM     19  C   UNL     1       4.917   4.224  14.711  0.00  0.00    +0.000 A 
ENDBRANCH   9  13
BRANCH   1  20
ATOM     20  N   UNL     1       2.021   7.662  20.533  0.00  0.00    +0.000 N 
ATOM     21  H   UNL     1       2.838   7.947  21.072  0.00  0.00    +0.000 HD
BRANCH  20  22
ATOM     22  C   UNL     1       0.784   8.035  21.219  0.00  0.00    +0.000 C 
BRANCH  22  29
ATOM     23 CL   UNL     1      -0.687   9.973  23.242  0.00  0.00    +0.000 Cl
ATOM     24  C   UNL     1      -0.336  10.311  21.586  0.00  0.00    +0.000 A 
ATOM     25  C   UNL     1      -0.765  11.543  21.080  0.00  0.00    +0.000 A 
ATOM     26  C   UNL     1      -0.538  11.875  19.743  0.00  0.00    +0.000 A 
ATOM     27  C   UNL     1       0.120  10.979  18.907  0.00  0.00    +0.000 A 
ATOM     28  C   UNL     1       0.552   9.753  19.411  0.00  0.00    +0.000 A 
ATOM     29  C   UNL     1       0.339   9.402  20.759  0.00  0.00    +0.000 A 
ENDBRANCH  22  29
ENDBRANCH  20  22
ENDBRANCH   1  20
TORSDOF 4
ENDMDL
MODEL 3
REMARK VINA RESULT:      -8.4      5.129     10.393
REMARK  Name = 
REMARK  4 active torsions:
REMARK  status: ('A' for Active; 'I' for Inactive)
REMARK    1  A    between atoms: C_7  and  C_8
REMARK    2  A    between atoms: C_8  and  N_9
REMARK    3  A    between atoms: N_9  and  C_10
REMARK    4  A    between atoms: N_18  and  C_19
REMARK                            x       y       z     vdW  Elec       q    Type
REMARK                         _______ _______ _______ _____ _____    ______ ____
ROOT
ATOM      1  C   UNL     1       1.366   8.531  20.101  0.00  0.00    +0.000 A 
ATOM      2  C   UNL     1       1.578   8.757  18.743  0.00  0.00    +0.000 A 
ATOM      3  C   UNL     1       1.111   9.925  18.128  0.00  0.00    +0.000 A 
ATOM      4  C   UNL     1       0.413  10.891  18.836  0.00  0.00    +0.000 A 
ATOM      5  N   UNL     1      -0.014  11.986  18.198  0.00  0.00    +0.000 NA
ATOM      6  C   UNL     1      -0.689  12.877  18.928  0.00  0.00    +0.000 A 
ATOM      7  N   UNL     1      -0.960  12.791  20.232  0.00  0.00    +0.000 NA
ATOM      8  C   UNL     1      -0.505  11.697  20.871  0.00  0.00    +0.000 A 
ATOM      9  N   UNL     1      -0.692  11.595  22.281  0.00  0.00    +0.000 N 
ATOM     10  C   UNL     1       0.182  10.674  20.199  0.00  0.00    +0.000 A 
ATOM     11  C   UNL     1       0.632   9.481  20.809  0.00  0.00    +0.000 A 
ATOM     12  H   UNL     1       0.219  11.507  22.719  0.00  0.00    +0.000 HD
ENDROOT
BRANCH   9  13
ATOM     13  C   UNL     1      -1.566  12.413  23.031  0.00  0.00    +0.000 A 
ATOM     14  C   UNL     1      -2.864  11.982  23.334  0.00  0.00    +0.000 A 
ATOM     15  C   UNL     1      -3.747  12.799  24.041  0.00  0.00    +0.000 A 
ATOM     16  C   UNL     1      -3.335  14.060  24.460  0.00  0.00    +0.000 A 
ATOM     17  C   UNL     1      -2.037  14.486  24.187  0.00  0.00    +0.000 A 
ATOM     18 BR   UNL     1      -1.483  16.206  24.749  0.00  0.00    +0.000 Br
ATOM     19  C   UNL     1      -1.146  13.668  23.490  0.00  0.00    +0.000 A 
ENDBRANCH   9  13
BRANCH   1  20
ATOM     20  N   UNL     1       1.847   7.347  20.665  0.00  0.00    +0.000 N 
ATOM     21  H   UNL     1       2.185   7.519  21.611  0.00  0.00    +0.000 HD
BRANCH  20  22
ATOM     22  C   UNL     1       2.812   6.559  19.897  0.00  0.00    +0.000 C 
BRANCH  22  29
ATOM     23 CL   UNL     1       3.638   5.036  17.250  0.00  0.00    +0.000 Cl
ATOM     24  C   UNL     1       2.537   4.462  18.450  0.00  0.00    +0.000 A 
ATOM     25  C   UNL     1       1.930   3.222  18.220  0.00  0.00    +0.000 A 
ATOM     26  C   UNL     1       1.011   2.706  19.134  0.00  0.00    +0.000 A 
ATOM     27  C   UNL     1       0.695   3.425  20.283  0.00  0.00    +0.000 A 
ATOM     28  C   UNL     1       1.302   4.658  20.515  0.00  0.00    +0.000 A 
ATOM     29  C   UNL     1       2.239   5.194  19.608  0.00  0.00    +0.000 A 
ENDBRANCH  22  29
ENDBRANCH  20  22
ENDBRANCH   1  20
TORSDOF 4
ENDMDL
MODEL 4
REMARK VINA RESULT:      -8.3      3.774      8.879
REMARK  Name = 
REMARK  4 active torsions:
REMARK  status: ('A' for Active; 'I' for Inactive)
REMARK    1  A    between atoms: C_7  and  C_8
REMARK    2  A    between atoms: C_8  and  N_9
REMARK    3  A    between atoms: N_9  and  C_10
REMARK    4  A    between atoms: N_18  and  C_19
REMARK                            x       y       z     vdW  Elec       q    Type
REMARK                         _______ _______ _______ _____ _____    ______ ____
ROOT
ATOM      1  C   UNL     1       5.350   5.785  17.064  0.00  0.00    +0.000 A 
ATOM      2  C   UNL     1       5.595   4.547  17.653  0.00  0.00    +0.000 A 
ATOM      3  C   UNL     1       4.822   4.097  18.730  0.00  0.00    +0.000 A 
ATOM      4  C   UNL     1       3.796   4.866  19.260  0.00  0.00    +0.000 A 
ATOM      5  N   UNL     1       3.091   4.390  20.292  0.00  0.00    +0.000 NA
ATOM      6  C   UNL     1       2.123   5.178  20.766  0.00  0.00    +0.000 A 
ATOM      7  N   UNL     1       1.779   6.380  20.299  0.00  0.00    +0.000 NA
ATOM      8  C   UNL     1       2.477   6.840  19.245  0.00  0.00    +0.000 A 
ATOM      9  N   UNL     1       2.096   8.078  18.653  0.00  0.00    +0.000 N 
ATOM     10  C   UNL     1       3.544   6.117  18.687  0.00  0.00    +0.000 A 
ATOM     11  C   UNL     1       4.345   6.577  17.617  0.00  0.00    +0.000 A 
ATOM     12  H   UNL     1       1.867   7.911  17.678  0.00  0.00    +0.000 HD
ENDROOT
BRANCH   9  13
ATOM     13  C   UNL     1       1.220   9.013  19.250  0.00  0.00    +0.000 A 
ATOM     14  C   UNL     1       0.633  10.030  18.487  0.00  0.00    +0.000 A 
ATOM     15  C   UNL     1      -0.202  10.980  19.075  0.00  0.00    +0.000 A 
ATOM     16  C   UNL     1      -0.466  10.917  20.440  0.00  0.00    +0.000 A 
ATOM     17  C   UNL     1       0.092   9.892  21.202  0.00  0.00    +0.000 A 
ATOM     18 BR   UNL     1      -0.258   9.816  23.060  0.00  0.00    +0.000 Br
ATOM     19  C   UNL     1       0.919   8.933  20.616  0.00  0.00    +0.000 A 
ENDBRANCH   9  13
BRANCH   1  20
ATOM     20  N   UNL     1       6.154   6.188  15.996  0.00  0.00    +0.000 N 
ATOM     21  H   UNL     1       5.576   6.471  15.206  0.00  0.00    +0.000 HD
BRANCH  20  22
ATOM     22  C   UNL     1       7.230   5.294  15.566  0.00  0.00    +0.000 C 
BRANCH  22  29
ATOM     23 CL   UNL     1       9.007   5.973  13.037  0.00  0.00    +0.000 Cl
ATOM     24  C   UNL     1       7.609   4.958  13.054  0.00  0.00    +0.000 A 
ATOM     25  C   UNL     1       7.205   4.407  11.832  0.00  0.00    +0.000 A 
ATOM     26  C   UNL     1       6.070   3.597  11.765  0.00  0.00    +0.000 A 
ATOM     27  C   UNL     1       5.335   3.334  12.917  0.00  0.00    +0.000 A 
ATOM     28  C   UNL     1       5.740   3.879  14.134  0.00  0.00    +0.000 A 
ATOM     29  C   UNL     1       6.887   4.693  14.225  0.00  0.00    +0.000 A 
ENDBRANCH  22  29
ENDBRANCH  20  22
ENDBRANCH   1  20
TORSDOF 4
ENDMDL
MODEL 5
REMARK VINA RESULT:      -8.3      3.558      8.804
REMARK  Name = 
REMARK  4 active torsions:
REMARK  status: ('A' for Active; 'I' for Inactive)
REMARK    1  A    between atoms: C_7  and  C_8
REMARK    2  A    between atoms: C_8  and  N_9
REMARK    3  A    between atoms: N_9  and  C_10
REMARK    4  A    between atoms: N_18  and  C_19
REMARK                            x       y       z     vdW  Elec       q    Type
REMARK                         _______ _______ _______ _____ _____    ______ ____
ROOT
ATOM      1  C   UNL     1       5.171   5.642  17.101  0.00  0.00    +0.000 A 
ATOM      2  C   UNL     1       5.390   4.339  17.540  0.00  0.00    +0.000 A 
ATOM      3  C   UNL     1       4.656   3.807  18.607  0.00  0.00    +0.000 A 
ATOM      4  C   UNL     1       3.698   4.554  19.275  0.00  0.00    +0.000 A 
ATOM      5  N   UNL     1       3.029   3.998  20.291  0.00  0.00    +0.000 NA
ATOM      6  C   UNL     1       2.126   4.768  20.903  0.00  0.00    +0.000 A 
ATOM      7  N   UNL     1       1.813   6.027  20.587  0.00  0.00    +0.000 NA
ATOM      8  C   UNL     1       2.474   6.570  19.548  0.00  0.00    +0.000 A 
ATOM      9  N   UNL     1       2.119   7.880  19.115  0.00  0.00    +0.000 N 
ATOM     10  C   UNL     1       3.473   5.869  18.855  0.00  0.00    +0.000 A 
ATOM     11  C   UNL     1       4.236   6.410  17.793  0.00  0.00    +0.000 A 
ATOM     12  H   UNL     1       1.830   7.829  18.143  0.00  0.00    +0.000 HD
ENDROOT
BRANCH   9  13
ATOM     13  C   UNL     1       1.322   8.779  19.859  0.00  0.00    +0.000 A 
ATOM     14  C   UNL     1       1.329   8.747  21.260  0.00  0.00    +0.000 A 
ATOM     15  C   UNL     1       0.517   9.604  22.003  0.00  0.00    +0.000 A 
ATOM     16  C   UNL     1      -0.312  10.510  21.348  0.00  0.00    +0.000 A 
ATOM     17  C   UNL     1      -0.306  10.566  19.955  0.00  0.00    +0.000 A 
ATOM     18 BR   UNL     1      -1.443  11.791  19.068  0.00  0.00    +0.000 Br
ATOM     19  C   UNL     1       0.514   9.719  19.208  0.00  0.00    +0.000 A 
ENDBRANCH   9  13
BRANCH   1  20
ATOM     20  N   UNL     1       5.934   6.126  16.036  0.00  0.00    +0.000 N 
ATOM     21  H   UNL     1       5.331   6.357  15.247  0.00  0.00    +0.000 HD
BRANCH  20  22
ATOM     22  C   UNL     1       7.090   5.342  15.602  0.00  0.00    +0.000 C 
BRANCH  22  29
ATOM     23 CL   UNL     1       8.963   5.980  13.133  0.00  0.00    +0.000 Cl
ATOM     24  C   UNL     1       7.571   4.958  13.114  0.00  0.00    +0.000 A 
ATOM     25  C   UNL     1       7.219   4.379  11.889  0.00  0.00    +0.000 A 
ATOM     26  C   UNL     1       6.092   3.562  11.793  0.00  0.00    +0.000 A 
ATOM     27  C   UNL     1       5.313   3.317  12.920  0.00  0.00    +0.000 A 
ATOM     28  C   UNL     1       5.665   3.889  14.141  0.00  0.00    +0.000 A 
ATOM     29  C   UNL     1       6.804   4.712  14.262  0.00  0.00    +0.000 A 
ENDBRANCH  22  29
ENDBRANCH  20  22
ENDBRANCH   1  20
TORSDOF 4
ENDMDL
MODEL 6
REMARK VINA RESULT:      -8.3      5.055     10.373
REMARK  Name = 
REMARK  4 active torsions:
REMARK  status: ('A' for Active; 'I' for Inactive)
REMARK    1  A    between atoms: C_7  and  C_8
REMARK    2  A    between atoms: C_8  and  N_9
REMARK    3  A    between atoms: N_9  and  C_10
REMARK    4  A    between atoms: N_18  and  C_19
REMARK                            x       y       z     vdW  Elec       q    Type
REMARK                         _______ _______ _______ _____ _____    ______ ____
ROOT
ATOM      1  C   UNL     1       1.250   8.582  20.274  0.00  0.00    +0.000 A 
ATOM      2  C   UNL     1       1.604   8.820  18.949  0.00  0.00    +0.000 A 
ATOM      3  C   UNL     1       1.283  10.033  18.325  0.00  0.00    +0.000 A 
ATOM      4  C   UNL     1       0.593  11.033  18.994  0.00  0.00    +0.000 A 
ATOM      5  N   UNL     1       0.308  12.170  18.350  0.00  0.00    +0.000 NA
ATOM      6  C   UNL     1      -0.367  13.093  19.039  0.00  0.00    +0.000 A 
ATOM      7  N   UNL     1      -0.765  12.999  20.310  0.00  0.00    +0.000 NA
ATOM      8  C   UNL     1      -0.453  11.862  20.957  0.00  0.00    +0.000 A 
ATOM      9  N   UNL     1      -0.778  11.744  22.339  0.00  0.00    +0.000 N 
ATOM     10  C   UNL     1       0.219  10.805  20.322  0.00  0.00    +0.000 A 
ATOM     11  C   UNL     1       0.523   9.569  20.938  0.00  0.00    +0.000 A 
ATOM     12  H   UNL     1       0.079  11.579  22.858  0.00  0.00    +0.000 HD
ENDROOT
BRANCH   9  13
ATOM     13  C   UNL     1      -1.658  12.609  23.029  0.00  0.00    +0.000 A 
ATOM     14  C   UNL     1      -1.187  13.800  23.597  0.00  0.00    +0.000 A 
ATOM     15  C   UNL     1      -2.039  14.641  24.313  0.00  0.00    +0.000 A 
ATOM     16  C   UNL     1      -3.379  14.301  24.463  0.00  0.00    +0.000 A 
ATOM     17  C   UNL     1      -3.862  13.131  23.878  0.00  0.00    +0.000 A 
ATOM     18 BR   UNL     1      -5.683  12.665  24.094  0.00  0.00    +0.000 Br
ATOM     19  C   UNL     1      -3.016  12.292  23.151  0.00  0.00    +0.000 A 
ENDBRANCH   9  13
BRANCH   1  20
ATOM     20  N   UNL     1       1.589   7.354  20.846  0.00  0.00    +0.000 N 
ATOM     21  H   UNL     1       1.719   7.457  21.852  0.00  0.00    +0.000 HD
BRANCH  20  22
ATOM     22  C   UNL     1       2.688   6.594  20.250  0.00  0.00    +0.000 C 
BRANCH  22  29
ATOM     23 CL   UNL     1       3.537   5.582  17.375  0.00  0.00    +0.000 Cl
ATOM     24  C   UNL     1       2.485   4.760  18.471  0.00  0.00    +0.000 A 
ATOM     25  C   UNL     1       1.932   3.549  18.040  0.00  0.00    +0.000 A 
ATOM     26  C   UNL     1       1.054   2.842  18.863  0.00  0.00    +0.000 A 
ATOM     27  C   UNL     1       0.726   3.341  20.119  0.00  0.00    +0.000 A 
ATOM     28  C   UNL     1       1.279   4.545  20.551  0.00  0.00    +0.000 A 
ATOM     29  C   UNL     1       2.174   5.271  19.739  0.00  0.00    +0.000 A 
ENDBRANCH  22  29
ENDBRANCH  20  22
ENDBRANCH   1  20
TORSDOF 4
ENDMDL
MODEL 7
REMARK VINA RESULT:      -8.2      3.943      8.851
REMARK  Name = 
REMARK  4 active torsions:
REMARK  status: ('A' for Active; 'I' for Inactive)
REMARK    1  A    between atoms: C_7  and  C_8
REMARK    2  A    between atoms: C_8  and  N_9
REMARK    3  A    between atoms: N_9  and  C_10
REMARK    4  A    between atoms: N_18  and  C_19
REMARK                            x       y       z     vdW  Elec       q    Type
REMARK                         _______ _______ _______ _____ _____    ______ ____
ROOT
ATOM      1  C   UNL     1       5.302   6.115  16.873  0.00  0.00    +0.000 A 
ATOM      2  C   UNL     1       5.529   5.052  17.744  0.00  0.00    +0.000 A 
ATOM      3  C   UNL     1       4.719   4.858  18.869  0.00  0.00    +0.000 A 
ATOM      4  C   UNL     1       3.673   5.719  19.168  0.00  0.00    +0.000 A 
ATOM      5  N   UNL     1       2.932   5.490  20.259  0.00  0.00    +0.000 NA
ATOM      6  C   UNL     1       1.947   6.357  20.502  0.00  0.00    +0.000 A 
ATOM      7  N   UNL     1       1.616   7.412  19.755  0.00  0.00    +0.000 NA
ATOM      8  C   UNL     1       2.351   7.620  18.647  0.00  0.00    +0.000 A 
ATOM      9  N   UNL     1       1.989   8.682  17.769  0.00  0.00    +0.000 N 
ATOM     10  C   UNL     1       3.439   6.798  18.311  0.00  0.00    +0.000 A 
ATOM     11  C   UNL     1       4.277   7.004  17.190  0.00  0.00    +0.000 A 
ATOM     12  H   UNL     1       1.796   8.289  16.853  0.00  0.00    +0.000 HD
ENDROOT
BRANCH   9  13
ATOM     13  C   UNL     1       1.090   9.721  18.101  0.00  0.00    +0.000 A 
ATOM     14  C   UNL     1       1.538  10.865  18.773  0.00  0.00    +0.000 A 
ATOM     15  C   UNL     1       0.652  11.878  19.140  0.00  0.00    +0.000 A 
ATOM     16  C   UNL     1      -0.699  11.759  18.829  0.00  0.00    +0.000 A 
ATOM     17  C   UNL     1      -1.150  10.636  18.137  0.00  0.00    +0.000 A 
ATOM     18 BR   UNL     1      -2.989  10.471  17.727  0.00  0.00    +0.000 Br
ATOM     19  C   UNL     1      -0.265   9.626  17.758  0.00  0.00    +0.000 A 
ENDBRANCH   9  13
BRANCH   1  20
ATOM     20  N   UNL     1       6.144   6.265  15.769  0.00  0.00    +0.000 N 
ATOM     21  H   UNL     1       5.598   6.490  14.938  0.00  0.00    +0.000 HD
BRANCH  20  22
ATOM     22  C   UNL     1       7.113   5.206  15.489  0.00  0.00    +0.000 C 
BRANCH  22  29
ATOM     23 CL   UNL     1       8.952   5.969  13.030  0.00  0.00    +0.000 Cl
ATOM     24  C   UNL     1       7.590   4.908  12.989  0.00  0.00    +0.000 A 
ATOM     25  C   UNL     1       7.246   4.357  11.749  0.00  0.00    +0.000 A 
ATOM     26  C   UNL     1       6.141   3.511  11.635  0.00  0.00    +0.000 A 
ATOM     27  C   UNL     1       5.377   3.212  12.758  0.00  0.00    +0.000 A 
ATOM     28  C   UNL     1       5.721   3.757  13.994  0.00  0.00    +0.000 A 
ATOM     29  C   UNL     1       6.836   4.608  14.132  0.00  0.00    +0.000 A 
ENDBRANCH  22  29
ENDBRANCH  20  22
ENDBRANCH   1  20
TORSDOF 4
ENDMDL
MODEL 8
REMARK VINA RESULT:      -8.2      2.933      7.747
REMARK  Name = 
REMARK  4 active torsions:
REMARK  status: ('A' for Active; 'I' for Inactive)
REMARK    1  A    between atoms: C_7  and  C_8
REMARK    2  A    between atoms: C_8  and  N_9
REMARK    3  A    between atoms: N_9  and  C_10
REMARK    4  A    between atoms: N_18  and  C_19
REMARK                            x       y       z     vdW  Elec       q    Type
REMARK                         _______ _______ _______ _____ _____    ______ ____
ROOT
ATOM      1  C   UNL     1       5.516   4.437  19.330  0.00  0.00    +0.000 A 
ATOM      2  C   UNL     1       5.166   3.089  19.369  0.00  0.00    +0.000 A 
ATOM      3  C   UNL     1       3.852   2.696  19.650  0.00  0.00    +0.000 A 
ATOM      4  C   UNL     1       2.855   3.624  19.913  0.00  0.00    +0.000 A 
ATOM      5  N   UNL     1       1.617   3.193  20.180  0.00  0.00    +0.000 NA
ATOM      6  C   UNL     1       0.702   4.131  20.435  0.00  0.00    +0.000 A 
ATOM      7  N   UNL     1       0.897   5.451  20.428  0.00  0.00    +0.000 NA
ATOM      8  C   UNL     1       2.139   5.876  20.135  0.00  0.00    +0.000 A 
ATOM      9  N   UNL     1       2.382   7.277  20.030  0.00  0.00    +0.000 N 
ATOM     10  C   UNL     1       3.192   4.981  19.889  0.00  0.00    +0.000 A 
ATOM     11  C   UNL     1       4.527   5.372  19.631  0.00  0.00    +0.000 A 
ATOM     12  H   UNL     1       2.731   7.473  19.098  0.00  0.00    +0.000 HD
ENDROOT
BRANCH   9  13
ATOM     13  C   UNL     1       1.494   8.277  20.486  0.00  0.00    +0.000 A 
ATOM     14  C   UNL     1       1.210   8.410  21.852  0.00  0.00    +0.000 A 
ATOM     15  C   UNL     1       0.305   9.369  22.307  0.00  0.00    +0.000 A 
ATOM     16  C   UNL     1      -0.323  10.213  21.397  0.00  0.00    +0.000 A 
ATOM     17  C   UNL     1      -0.026  10.106  20.040  0.00  0.00    +0.000 A 
ATOM     18 BR   UNL     1      -0.890  11.247  18.803  0.00  0.00    +0.000 Br
ATOM     19  C   UNL     1       0.888   9.155  19.581  0.00  0.00    +0.000 A 
ENDBRANCH   9  13
BRANCH   1  20
ATOM     20  N   UNL     1       6.842   4.775  19.051  0.00  0.00    +0.000 N 
ATOM     21  H   UNL     1       7.363   4.902  19.918  0.00  0.00    +0.000 HD
BRANCH  20  22
ATOM     22  C   UNL     1       7.093   5.877  18.122  0.00  0.00    +0.000 C 
BRANCH  22  29
ATOM     23 CL   UNL     1       4.532   7.298  16.925  0.00  0.00    +0.000 Cl
ATOM     24  C   UNL     1       5.466   6.069  16.150  0.00  0.00    +0.000 A 
ATOM     25  C   UNL     1       5.038   5.639  14.890  0.00  0.00    +0.000 A 
ATOM     26  C   UNL     1       5.729   4.632  14.215  0.00  0.00    +0.000 A 
ATOM     27  C   UNL     1       6.852   4.051  14.796  0.00  0.00    +0.000 A 
ATOM     28  C   UNL     1       7.282   4.482  16.050  0.00  0.00    +0.000 A 
ATOM     29  C   UNL     1       6.603   5.503  16.745  0.00  0.00    +0.000 A 
ENDBRANCH  22  29
ENDBRANCH  20  22
ENDBRANCH   1  20
TORSDOF 4
ENDMDL
MODEL 9
REMARK VINA RESULT:      -8.2      5.099     10.500
REMARK  Name = 
REMARK  4 active torsions:
REMARK  status: ('A' for Active; 'I' for Inactive)
REMARK    1  A    between atoms: C_7  and  C_8
REMARK    2  A    between atoms: C_8  and  N_9
REMARK    3  A    between atoms: N_9  and  C_10
REMARK    4  A    between atoms: N_18  and  C_19
REMARK                            x       y       z     vdW  Elec       q    Type
REMARK                         _______ _______ _______ _____ _____    ______ ____
ROOT
ATOM      1  C   UNL     1       1.457   8.493  20.276  0.00  0.00    +0.000 A 
ATOM      2  C   UNL     1       1.593   8.629  18.897  0.00  0.00    +0.000 A 
ATOM      3  C   UNL     1       1.029   9.718  18.222  0.00  0.00    +0.000 A 
ATOM      4  C   UNL     1       0.304  10.692  18.893  0.00  0.00    +0.000 A 
ATOM      5  N   UNL     1      -0.218  11.710  18.200  0.00  0.00    +0.000 NA
ATOM      6  C   UNL     1      -0.913  12.611  18.896  0.00  0.00    +0.000 A 
ATOM      7  N   UNL     1      -1.119  12.607  20.215  0.00  0.00    +0.000 NA
ATOM      8  C   UNL     1      -0.570  11.593  20.908  0.00  0.00    +0.000 A 
ATOM      9  N   UNL     1      -0.687  11.586  22.328  0.00  0.00    +0.000 N 
ATOM     10  C   UNL     1       0.148  10.565  20.277  0.00  0.00    +0.000 A 
ATOM     11  C   UNL     1       0.698   9.448  20.949  0.00  0.00    +0.000 A 
ATOM     12  H   UNL     1       0.246  11.584  22.727  0.00  0.00    +0.000 HD
ENDROOT
BRANCH   9  13
ATOM     13  C   UNL     1      -1.575  12.406  23.060  0.00  0.00    +0.000 A 
ATOM     14  C   UNL     1      -2.870  11.964  23.361  0.00  0.00    +0.000 A 
ATOM     15  C   UNL     1      -3.767  12.781  24.049  0.00  0.00    +0.000 A 
ATOM     16  C   UNL     1      -3.373  14.053  24.452  0.00  0.00    +0.000 A 
ATOM     17  C   UNL     1      -2.078  14.491  24.180  0.00  0.00    +0.000 A 
ATOM     18 BR   UNL     1      -1.548  16.226  24.718  0.00  0.00    +0.000 Br
ATOM     19  C   UNL     1      -1.173  13.672  23.502  0.00  0.00    +0.000 A 
ENDBRANCH   9  13
BRANCH   1  20
ATOM     20  N   UNL     1       2.035   7.385  20.899  0.00  0.00    +0.000 N 
ATOM     21  H   UNL     1       3.044   7.384  20.752  0.00  0.00    +0.000 HD
BRANCH  20  22
ATOM     22  C   UNL     1       1.465   6.065  20.628  0.00  0.00    +0.000 C 
BRANCH  22  29
ATOM     23 CL   UNL     1       1.272   2.977  21.294  0.00  0.00    +0.000 Cl
ATOM     24  C   UNL     1       2.551   3.752  20.429  0.00  0.00    +0.000 A 
ATOM     25  C   UNL     1       3.617   2.948  20.008  0.00  0.00    +0.000 A 
ATOM     26  C   UNL     1       4.697   3.510  19.325  0.00  0.00    +0.000 A 
ATOM     27  C   UNL     1       4.718   4.875  19.060  0.00  0.00    +0.000 A 
ATOM     28  C   UNL     1       3.655   5.676  19.475  0.00  0.00    +0.000 A 
ATOM     29  C   UNL     1       2.551   5.127  20.159  0.00  0.00    +0.000 A 
ENDBRANCH  22  29
ENDBRANCH  20  22
ENDBRANCH   1  20
TORSDOF 4
ENDMDL
