MODEL 1
REMARK VINA RESULT:      -7.1      0.000      0.000
REMARK  Name = 
REMARK  10 active torsions:
REMARK  status: ('A' for Active; 'I' for Inactive)
REMARK    1  A    between atoms: C_1  and  C_2
REMARK    2  A    between atoms: C_2  and  O_3
REMARK    3  A    between atoms: O_3  and  C_4
REMARK    4  A    between atoms: C_4  and  C_6
REMARK    5  A    between atoms: C_9  and  O_10
REMARK    6  A    between atoms: O_10  and  C_11
REMARK    7  A    between atoms: C_11  and  C_12
REMARK    8  A    between atoms: C_12  and  N_13
REMARK    9  A    between atoms: N_16  and  C_17
REMARK   10  A    between atoms: C_17  and  C_18
REMARK                            x       y       z     vdW  Elec       q    Type
REMARK                         _______ _______ _______ _____ _____    ______ ____
ROOT
ATOM      1  N   UNL     1       6.872   7.165  16.892  0.00  0.00    +0.000 NA
ATOM      2  C   UNL     1       7.213   5.997  16.061  0.00  0.00    +0.000 C 
ATOM      3  C   UNL     1       7.280   4.662  16.843  0.00  0.00    +0.000 C 
ATOM      4  N   UNL     1       6.085   4.336  17.668  0.00  0.00    +0.000 NA
ATOM      5  C   UNL     1       5.708   5.535  18.459  0.00  0.00    +0.000 C 
ATOM      6  C   UNL     1       5.640   6.861  17.651  0.00  0.00    +0.000 C 
ENDROOT
BRANCH   1   7
ATOM      7  C   UNL     1       7.951   7.579  17.812  0.00  0.00    +0.000 C 
BRANCH   7   8
ATOM      8  C   UNL     1       8.201   9.090  17.960  0.00  0.00    +0.000 C 
BRANCH   8   9
ATOM      9  O   UNL     1       8.941   9.348  19.151  0.00  0.00    +0.000 OA
BRANCH   9  13
ATOM     10  C   UNL     1      10.512  13.206  19.213  0.00  0.00    +0.000 A 
ATOM     11  C   UNL     1      10.285  12.519  18.015  0.00  0.00    +0.000 A 
ATOM     12  C   UNL     1       9.761  11.226  18.039  0.00  0.00    +0.000 A 
ATOM     13  C   UNL     1       9.473  10.603  19.253  0.00  0.00    +0.000 A 
ATOM     14  C   UNL     1       9.692  11.287  20.450  0.00  0.00    +0.000 A 
ATOM     15  C   UNL     1      10.212  12.585  20.432  0.00  0.00    +0.000 A 
BRANCH  10  16
ATOM     16  C   UNL     1      11.127  14.555  19.135  0.00  0.00    +0.000 C 
ATOM     17  O   UNL     1      12.329  14.743  19.044  0.00  0.00    +0.000 OA
BRANCH  16  18
ATOM     18  O   UNL     1      10.176  15.510  19.297  0.00  0.00    +0.000 OA
BRANCH  18  20
ATOM     19  C   UNL     1       8.311  15.898  17.859  0.00  0.00    +0.000 C 
ATOM     20  C   UNL     1       9.784  16.180  18.093  0.00  0.00    +0.000 C 
ENDBRANCH  18  20
ENDBRANCH  16  18
ENDBRANCH  10  16
ENDBRANCH   9  13
ENDBRANCH   8   9
ENDBRANCH   7   8
ENDBRANCH   1   7
BRANCH   4  21
ATOM     21  C   UNL     1       4.927   3.940  16.827  0.00  0.00    +0.000 C 
BRANCH  21  22
ATOM     22  C   UNL     1       3.618   3.876  17.613  0.00  0.00    +0.000 C 
ATOM     23  O   UNL     1       2.604   4.380  17.142  0.00  0.00    +0.000 OA
ATOM     24  N   UNL     1       3.751   3.303  18.858  0.00  0.00    +0.000 N 
ATOM     25  C   UNL     1       2.678   3.101  19.671  0.00  0.00    +0.000 A 
ATOM     26  N   UNL     1       1.411   3.277  19.402  0.00  0.00    +0.000 NA
ATOM     27  C   UNL     1       0.660   3.021  20.526  0.00  0.00    +0.000 A 
ATOM     28  C   UNL     1       1.378   2.649  21.644  0.00  0.00    +0.000 A 
ATOM     29  S   UNL     1       3.047   2.551  21.245  0.00  0.00    +0.000 S 
ATOM     30  H   UNL     1       4.669   2.989  19.158  0.00  0.00    +0.000 HD
ENDBRANCH  21  22
ENDBRANCH   4  21
TORSDOF 9
ENDMDL
MODEL 2
REMARK VINA RESULT:      -6.8      7.510     11.076
REMARK  Name = 
REMARK  10 active torsions:
REMARK  status: ('A' for Active; 'I' for Inactive)
REMARK    1  A    between atoms: C_1  and  C_2
REMARK    2  A    between atoms: C_2  and  O_3
REMARK    3  A    between atoms: O_3  and  C_4
REMARK    4  A    between atoms: C_4  and  C_6
REMARK    5  A    between atoms: C_9  and  O_10
REMARK    6  A    between atoms: O_10  and  C_11
REMARK    7  A    between atoms: C_11  and  C_12
REMARK    8  A    between atoms: C_12  and  N_13
REMARK    9  A    between atoms: N_16  and  C_17
REMARK   10  A    between atoms: C_17  and  C_18
REMARK                            x       y       z     vdW  Elec       q    Type
REMARK                         _______ _______ _______ _____ _____    ______ ____
ROOT
ATOM      1  N   UNL     1       0.883  10.772  18.259  0.00  0.00    +0.000 NA
ATOM      2  C   UNL     1      -0.408  10.237  18.726  0.00  0.00    +0.000 C 
ATOM      3  C   UNL     1      -0.523  10.113  20.264  0.00  0.00    +0.000 C 
ATOM      4  N   UNL     1      -0.202  11.342  21.039  0.00  0.00    +0.000 NA
ATOM      5  C   UNL     1       1.071  11.912  20.525  0.00  0.00    +0.000 C 
ATOM      6  C   UNL     1       1.158  12.034  18.978  0.00  0.00    +0.000 C 
ENDROOT
BRANCH   1   7
ATOM      7  C   UNL     1       2.013   9.833  18.423  0.00  0.00    +0.000 C 
BRANCH   7   8
ATOM      8  C   UNL     1       1.965   8.533  17.601  0.00  0.00    +0.000 C 
BRANCH   8   9
ATOM      9  O   UNL     1       3.283   8.020  17.423  0.00  0.00    +0.000 OA
BRANCH   9  13
ATOM     10  C   UNL     1       3.768   4.248  19.125  0.00  0.00    +0.000 A 
ATOM     11  C   UNL     1       3.157   5.299  19.817  0.00  0.00    +0.000 A 
ATOM     12  C   UNL     1       3.018   6.549  19.212  0.00  0.00    +0.000 A 
ATOM     13  C   UNL     1       3.498   6.765  17.921  0.00  0.00    +0.000 A 
ATOM     14  C   UNL     1       4.104   5.718  17.224  0.00  0.00    +0.000 A 
ATOM     15  C   UNL     1       4.240   4.462  17.823  0.00  0.00    +0.000 A 
BRANCH  10  16
ATOM     16  C   UNL     1       3.945   2.958  19.835  0.00  0.00    +0.000 C 
ATOM     17  O   UNL     1       5.034   2.444  20.037  0.00  0.00    +0.000 OA
BRANCH  16  18
ATOM     18  O   UNL     1       2.736   2.405  20.106  0.00  0.00    +0.000 OA
BRANCH  18  20
ATOM     19  C   UNL     1       0.638   2.536  18.974  0.00  0.00    +0.000 C 
ATOM     20  C   UNL     1       2.025   1.920  18.961  0.00  0.00    +0.000 C 
ENDBRANCH  18  20
ENDBRANCH  16  18
ENDBRANCH  10  16
ENDBRANCH   9  13
ENDBRANCH   8   9
ENDBRANCH   7   8
ENDBRANCH   1   7
BRANCH   4  21
ATOM     21  C   UNL     1      -1.267  12.369  20.908  0.00  0.00    +0.000 C 
BRANCH  21  22
ATOM     22  C   UNL     1      -2.329  12.264  22.001  0.00  0.00    +0.000 C 
ATOM     23  O   UNL     1      -2.050  11.722  23.066  0.00  0.00    +0.000 OA
ATOM     24  N   UNL     1      -3.562  12.742  21.618  0.00  0.00    +0.000 N 
ATOM     25  C   UNL     1      -4.612  12.790  22.484  0.00  0.00    +0.000 A 
ATOM     26  N   UNL     1      -4.618  12.538  23.767  0.00  0.00    +0.000 NA
ATOM     27  C   UNL     1      -5.901  12.641  24.251  0.00  0.00    +0.000 A 
ATOM     28  C   UNL     1      -6.860  12.975  23.318  0.00  0.00    +0.000 A 
ATOM     29  S   UNL     1      -6.108  13.237  21.794  0.00  0.00    +0.000 S 
ATOM     30  H   UNL     1      -3.678  13.102  20.675  0.00  0.00    +0.000 HD
ENDBRANCH  21  22
ENDBRANCH   4  21
TORSDOF 9
ENDMDL
MODEL 3
REMARK VINA RESULT:      -6.8      8.125     10.592
REMARK  Name = 
REMARK  10 active torsions:
REMARK  status: ('A' for Active; 'I' for Inactive)
REMARK    1  A    between atoms: C_1  and  C_2
REMARK    2  A    between atoms: C_2  and  O_3
REMARK    3  A    between atoms: O_3  and  C_4
REMARK    4  A    between atoms: C_4  and  C_6
REMARK    5  A    between atoms: C_9  and  O_10
REMARK    6  A    between atoms: O_10  and  C_11
REMARK    7  A    between atoms: C_11  and  C_12
REMARK    8  A    between atoms: C_12  and  N_13
REMARK    9  A    between atoms: N_16  and  C_17
REMARK   10  A    between atoms: C_17  and  C_18
REMARK                            x       y       z     vdW  Elec       q    Type
REMARK                         _______ _______ _______ _____ _____    ______ ____
ROOT
ATOM      1  N   UNL     1      -0.280   8.600  21.231  0.00  0.00    +0.000 NA
ATOM      2  C   UNL     1      -0.789   8.861  22.590  0.00  0.00    +0.000 C 
ATOM      3  C   UNL     1      -0.175  10.111  23.266  0.00  0.00    +0.000 C 
ATOM      4  N   UNL     1      -0.239  11.371  22.475  0.00  0.00    +0.000 NA
ATOM      5  C   UNL     1       0.217  11.090  21.090  0.00  0.00    +0.000 C 
ATOM      6  C   UNL     1      -0.419   9.835  20.430  0.00  0.00    +0.000 C 
ENDROOT
BRANCH   1   7
ATOM      7  C   UNL     1       1.118   8.122  21.198  0.00  0.00    +0.000 C 
BRANCH   7   8
ATOM      8  C   UNL     1       1.778   7.990  19.815  0.00  0.00    +0.000 C 
BRANCH   8   9
ATOM      9  O   UNL     1       2.172   6.639  19.589  0.00  0.00    +0.000 OA
BRANCH   9  13
ATOM     10  C   UNL     1       5.745   5.932  17.568  0.00  0.00    +0.000 A 
ATOM     11  C   UNL     1       5.461   5.331  18.799  0.00  0.00    +0.000 A 
ATOM     12  C   UNL     1       4.253   5.598  19.445  0.00  0.00    +0.000 A 
ATOM     13  C   UNL     1       3.327   6.474  18.879  0.00  0.00    +0.000 A 
ATOM     14  C   UNL     1       3.605   7.071  17.648  0.00  0.00    +0.000 A 
ATOM     15  C   UNL     1       4.811   6.802  16.993  0.00  0.00    +0.000 A 
BRANCH  10  16
ATOM     16  C   UNL     1       7.068   5.662  16.952  0.00  0.00    +0.000 C 
ATOM     17  O   UNL     1       7.483   4.540  16.710  0.00  0.00    +0.000 OA
BRANCH  16  18
ATOM     18  O   UNL     1       7.764   6.819  16.819  0.00  0.00    +0.000 OA
BRANCH  18  20
ATOM     19  C   UNL     1       7.948   8.992  17.791  0.00  0.00    +0.000 C 
ATOM     20  C   UNL     1       8.042   7.499  18.049  0.00  0.00    +0.000 C 
ENDBRANCH  18  20
ENDBRANCH  16  18
ENDBRANCH  10  16
ENDBRANCH   9  13
ENDBRANCH   8   9
ENDBRANCH   7   8
ENDBRANCH   1   7
BRANCH   4  21
ATOM     21  C   UNL     1      -1.620  11.915  22.418  0.00  0.00    +0.000 C 
BRANCH  21  22
ATOM     22  C   UNL     1      -1.776  13.219  23.198  0.00  0.00    +0.000 C 
ATOM     23  O   UNL     1      -0.813  13.687  23.795  0.00  0.00    +0.000 OA
ATOM     24  N   UNL     1      -3.066  13.702  23.209  0.00  0.00    +0.000 N 
ATOM     25  C   UNL     1      -3.381  14.888  23.798  0.00  0.00    +0.000 A 
ATOM     26  N   UNL     1      -2.572  15.781  24.308  0.00  0.00    +0.000 NA
ATOM     27  C   UNL     1      -3.306  16.805  24.863  0.00  0.00    +0.000 A 
ATOM     28  C   UNL     1      -4.675  16.671  24.763  0.00  0.00    +0.000 A 
ATOM     29  S   UNL     1      -5.048  15.244  23.880  0.00  0.00    +0.000 S 
ATOM     30  H   UNL     1      -3.792  13.176  22.732  0.00  0.00    +0.000 HD
ENDBRANCH  21  22
ENDBRANCH   4  21
TORSDOF 9
ENDMDL
MODEL 4
REMARK VINA RESULT:      -6.6      8.074     11.178
REMARK  Name = 
REMARK  10 active torsions:
REMARK  status: ('A' for Active; 'I' for Inactive)
REMARK    1  A    between atoms: C_1  and  C_2
REMARK    2  A    between atoms: C_2  and  O_3
REMARK    3  A    between atoms: O_3  and  C_4
REMARK    4  A    between atoms: C_4  and  C_6
REMARK    5  A    between atoms: C_9  and  O_10
REMARK    6  A    between atoms: O_10  and  C_11
REMARK    7  A    between atoms: C_11  and  C_12
REMARK    8  A    between atoms: C_12  and  N_13
REMARK    9  A    between atoms: N_16  and  C_17
REMARK   10  A    between atoms: C_17  and  C_18
REMARK                            x       y       z     vdW  Elec       q    Type
REMARK                         _______ _______ _______ _____ _____    ______ ____
ROOT
ATOM      1  N   UNL     1       0.927  11.529  19.869  0.00  0.00    +0.000 NA
ATOM      2  C   UNL     1       0.717  12.986  19.790  0.00  0.00    +0.000 C 
ATOM      3  C   UNL     1      -0.471  13.406  18.891  0.00  0.00    +0.000 C 
ATOM      4  N   UNL     1      -1.772  12.745  19.186  0.00  0.00    +0.000 NA
ATOM      5  C   UNL     1      -1.545  11.284  19.325  0.00  0.00    +0.000 C 
ATOM      6  C   UNL     1      -0.353  10.887  20.239  0.00  0.00    +0.000 C 
ENDROOT
BRANCH   1   7
ATOM      7  C   UNL     1       1.458  10.934  18.625  0.00  0.00    +0.000 C 
BRANCH   7   8
ATOM      8  C   UNL     1       1.101   9.464  18.347  0.00  0.00    +0.000 C 
BRANCH   8   9
ATOM      9  O   UNL     1       1.541   8.642  19.426  0.00  0.00    +0.000 OA
BRANCH   9  13
ATOM     10  C   UNL     1       3.980   5.379  18.556  0.00  0.00    +0.000 A 
ATOM     11  C   UNL     1       3.224   5.444  19.731  0.00  0.00    +0.000 A 
ATOM     12  C   UNL     1       2.422   6.558  19.987  0.00  0.00    +0.000 A 
ATOM     13  C   UNL     1       2.379   7.619  19.082  0.00  0.00    +0.000 A 
ATOM     14  C   UNL     1       3.128   7.555  17.906  0.00  0.00    +0.000 A 
ATOM     15  C   UNL     1       3.928   6.439  17.642  0.00  0.00    +0.000 A 
BRANCH  10  16
ATOM     16  C   UNL     1       4.862   4.201  18.362  0.00  0.00    +0.000 C 
ATOM     17  O   UNL     1       5.990   4.121  18.820  0.00  0.00    +0.000 OA
BRANCH  16  18
ATOM     18  O   UNL     1       4.274   3.313  17.521  0.00  0.00    +0.000 OA
BRANCH  18  20
ATOM     19  C   UNL     1       2.175   2.240  17.900  0.00  0.00    +0.000 C 
ATOM     20  C   UNL     1       3.669   2.185  18.164  0.00  0.00    +0.000 C 
ENDBRANCH  18  20
ENDBRANCH  16  18
ENDBRANCH  10  16
ENDBRANCH   9  13
ENDBRANCH   8   9
ENDBRANCH   7   8
ENDBRANCH   1   7
BRANCH   4  21
ATOM     21  C   UNL     1      -2.373  13.253  20.446  0.00  0.00    +0.000 C 
BRANCH  21  22
ATOM     22  C   UNL     1      -3.847  12.882  20.590  0.00  0.00    +0.000 C 
ATOM     23  O   UNL     1      -4.495  12.576  19.595  0.00  0.00    +0.000 OA
ATOM     24  N   UNL     1      -4.326  13.018  21.875  0.00  0.00    +0.000 N 
ATOM     25  C   UNL     1      -5.600  12.668  22.205  0.00  0.00    +0.000 A 
ATOM     26  N   UNL     1      -6.495  12.069  21.464  0.00  0.00    +0.000 NA
ATOM     27  C   UNL     1      -7.676  11.963  22.162  0.00  0.00    +0.000 A 
ATOM     28  C   UNL     1      -7.658  12.489  23.437  0.00  0.00    +0.000 A 
ATOM     29  S   UNL     1      -6.080  13.073  23.792  0.00  0.00    +0.000 S 
ATOM     30  H   UNL     1      -3.698  13.351  22.600  0.00  0.00    +0.000 HD
ENDBRANCH  21  22
ENDBRANCH   4  21
TORSDOF 9
ENDMDL
MODEL 5
REMARK VINA RESULT:      -6.6      7.421     10.338
REMARK  Name = 
REMARK  10 active torsions:
REMARK  status: ('A' for Active; 'I' for Inactive)
REMARK    1  A    between atoms: C_1  and  C_2
REMARK    2  A    between atoms: C_2  and  O_3
REMARK    3  A    between atoms: O_3  and  C_4
REMARK    4  A    between atoms: C_4  and  C_6
REMARK    5  A    between atoms: C_9  and  O_10
REMARK    6  A    between atoms: O_10  and  C_11
REMARK    7  A    between atoms: C_11  and  C_12
REMARK    8  A    between atoms: C_12  and  N_13
REMARK    9  A    between atoms: N_16  and  C_17
REMARK   10  A    between atoms: C_17  and  C_18
REMARK                            x       y       z     vdW  Elec       q    Type
REMARK                         _______ _______ _______ _____ _____    ______ ____
ROOT
ATOM      1  N   UNL     1       0.695  10.571  18.117  0.00  0.00    +0.000 NA
ATOM      2  C   UNL     1      -0.725  10.893  18.349  0.00  0.00    +0.000 C 
ATOM      3  C   UNL     1      -1.258  10.443  19.731  0.00  0.00    +0.000 C 
ATOM      4  N   UNL     1      -0.463  10.890  20.908  0.00  0.00    +0.000 NA
ATOM      5  C   UNL     1       0.974  10.619  20.645  0.00  0.00    +0.000 C 
ATOM      6  C   UNL     1       1.487  11.087  19.254  0.00  0.00    +0.000 C 
ENDROOT
BRANCH   1   7
ATOM      7  C   UNL     1       0.957   9.130  17.922  0.00  0.00    +0.000 C 
BRANCH   7   8
ATOM      8  C   UNL     1       2.405   8.651  18.120  0.00  0.00    +0.000 C 
BRANCH   8   9
ATOM      9  O   UNL     1       2.414   7.303  18.586  0.00  0.00    +0.000 OA
BRANCH   9  13
ATOM     10  C   UNL     1       5.488   5.064  16.886  0.00  0.00    +0.000 A 
ATOM     11  C   UNL     1       5.394   6.448  16.706  0.00  0.00    +0.000 A 
ATOM     12  C   UNL     1       4.346   7.161  17.289  0.00  0.00    +0.000 A 
ATOM     13  C   UNL     1       3.377   6.500  18.044  0.00  0.00    +0.000 A 
ATOM     14  C   UNL     1       3.469   5.119  18.231  0.00  0.00    +0.000 A 
ATOM     15  C   UNL     1       4.521   4.402  17.653  0.00  0.00    +0.000 A 
BRANCH  10  16
ATOM     16  C   UNL     1       6.587   4.346  16.194  0.00  0.00    +0.000 C 
ATOM     17  O   UNL     1       7.769   4.523  16.442  0.00  0.00    +0.000 OA
BRANCH  16  18
ATOM     18  O   UNL     1       6.085   3.578  15.195  0.00  0.00    +0.000 OA
BRANCH  18  20
ATOM     19  C   UNL     1       6.173   3.481  12.811  0.00  0.00    +0.000 C 
ATOM     20  C   UNL     1       5.720   4.295  14.009  0.00  0.00    +0.000 C 
ENDBRANCH  18  20
ENDBRANCH  16  18
ENDBRANCH  10  16
ENDBRANCH   9  13
ENDBRANCH   8   9
ENDBRANCH   7   8
ENDBRANCH   1   7
BRANCH   4  21
ATOM     21  C   UNL     1      -0.631  12.343  21.166  0.00  0.00    +0.000 C 
BRANCH  21  22
ATOM     22  C   UNL     1      -2.095  12.751  21.322  0.00  0.00    +0.000 C 
ATOM     23  O   UNL     1      -2.650  13.372  20.422  0.00  0.00    +0.000 OA
ATOM     24  N   UNL     1      -2.628  12.429  22.550  0.00  0.00    +0.000 N 
ATOM     25  C   UNL     1      -3.938  12.656  22.844  0.00  0.00    +0.000 A 
ATOM     26  N   UNL     1      -4.889  13.066  22.046  0.00  0.00    +0.000 NA
ATOM     27  C   UNL     1      -6.053  13.229  22.761  0.00  0.00    +0.000 A 
ATOM     28  C   UNL     1      -5.967  12.935  24.106  0.00  0.00    +0.000 A 
ATOM     29  S   UNL     1      -4.384  12.368  24.466  0.00  0.00    +0.000 S 
ATOM     30  H   UNL     1      -2.035  11.976  23.239  0.00  0.00    +0.000 HD
ENDBRANCH  21  22
ENDBRANCH   4  21
TORSDOF 9
ENDMDL
MODEL 6
REMARK VINA RESULT:      -6.6      6.120      8.572
REMARK  Name = 
REMARK  10 active torsions:
REMARK  status: ('A' for Active; 'I' for Inactive)
REMARK    1  A    between atoms: C_1  and  C_2
REMARK    2  A    between atoms: C_2  and  O_3
REMARK    3  A    between atoms: O_3  and  C_4
REMARK    4  A    between atoms: C_4  and  C_6
REMARK    5  A    between atoms: C_9  and  O_10
REMARK    6  A    between atoms: O_10  and  C_11
REMARK    7  A    between atoms: C_11  and  C_12
REMARK    8  A    between atoms: C_12  and  N_13
REMARK    9  A    between atoms: N_16  and  C_17
REMARK   10  A    between atoms: C_17  and  C_18
REMARK                            x       y       z     vdW  Elec       q    Type
REMARK                         _______ _______ _______ _____ _____    ______ ____
ROOT
ATOM      1  N   UNL     1       2.725   3.855  18.672  0.00  0.00    +0.000 NA
ATOM      2  C   UNL     1       3.210   4.267  17.344  0.00  0.00    +0.000 C 
ATOM      3  C   UNL     1       4.002   5.597  17.344  0.00  0.00    +0.000 C 
ATOM      4  N   UNL     1       5.127   5.679  18.316  0.00  0.00    +0.000 NA
ATOM      5  C   UNL     1       4.650   5.205  19.641  0.00  0.00    +0.000 C 
ATOM      6  C   UNL     1       3.864   3.864  19.615  0.00  0.00    +0.000 C 
ENDROOT
BRANCH   1   7
ATOM      7  C   UNL     1       1.623   4.691  19.193  0.00  0.00    +0.000 C 
BRANCH   7   8
ATOM      8  C   UNL     1       1.572   4.912  20.714  0.00  0.00    +0.000 C 
BRANCH   8   9
ATOM      9  O   UNL     1       2.243   6.124  21.054  0.00  0.00    +0.000 OA
BRANCH   9  13
ATOM     10  C   UNL     1       0.589   9.644  19.560  0.00  0.00    +0.000 A 
ATOM     11  C   UNL     1       0.216   9.121  20.803  0.00  0.00    +0.000 A 
ATOM     12  C   UNL     1       0.792   7.937  21.265  0.00  0.00    +0.000 A 
ATOM     13  C   UNL     1       1.731   7.257  20.488  0.00  0.00    +0.000 A 
ATOM     14  C   UNL     1       2.109   7.778  19.249  0.00  0.00    +0.000 A 
ATOM     15  C   UNL     1       1.540   8.968  18.785  0.00  0.00    +0.000 A 
BRANCH  10  16
ATOM     16  C   UNL     1      -0.097  10.872  19.089  0.00  0.00    +0.000 C 
ATOM     17  O   UNL     1       0.447  11.963  19.019  0.00  0.00    +0.000 OA
BRANCH  16  18
ATOM     18  O   UNL     1      -1.412  10.618  18.873  0.00  0.00    +0.000 OA
BRANCH  18  20
ATOM     19  C   UNL     1      -3.054  10.915  17.165  0.00  0.00    +0.000 C 
ATOM     20  C   UNL     1      -1.741  10.246  17.529  0.00  0.00    +0.000 C 
ENDBRANCH  18  20
ENDBRANCH  16  18
ENDBRANCH  10  16
ENDBRANCH   9  13
ENDBRANCH   8   9
ENDBRANCH   7   8
ENDBRANCH   1   7
BRANCH   4  21
ATOM     21  C   UNL     1       6.278   4.838  17.898  0.00  0.00    +0.000 C 
BRANCH  21  22
ATOM     22  C   UNL     1       6.861   5.259  16.551  0.00  0.00    +0.000 C 
ATOM     23  O   UNL     1       7.540   6.278  16.477  0.00  0.00    +0.000 OA
ATOM     24  N   UNL     1       6.473   4.450  15.506  0.00  0.00    +0.000 N 
ATOM     25  C   UNL     1       6.949   4.634  14.244  0.00  0.00    +0.000 A 
ATOM     26  N   UNL     1       7.882   5.456  13.840  0.00  0.00    +0.000 NA
ATOM     27  C   UNL     1       8.011   5.372  12.472  0.00  0.00    +0.000 A 
ATOM     28  C   UNL     1       7.165   4.475  11.853  0.00  0.00    +0.000 A 
ATOM     29  S   UNL     1       6.226   3.662  13.041  0.00  0.00    +0.000 S 
ATOM     30  H   UNL     1       5.845   3.674  15.693  0.00  0.00    +0.000 HD
ENDBRANCH  21  22
ENDBRANCH   4  21
TORSDOF 9
ENDMDL
MODEL 7
REMARK VINA RESULT:      -6.5      7.711     11.438
REMARK  Name = 
REMARK  10 active torsions:
REMARK  status: ('A' for Active; 'I' for Inactive)
REMARK    1  A    between atoms: C_1  and  C_2
REMARK    2  A    between atoms: C_2  and  O_3
REMARK    3  A    between atoms: O_3  and  C_4
REMARK    4  A    between atoms: C_4  and  C_6
REMARK    5  A    between atoms: C_9  and  O_10
REMARK    6  A    between atoms: O_10  and  C_11
REMARK    7  A    between atoms: C_11  and  C_12
REMARK    8  A    between atoms: C_12  and  N_13
REMARK    9  A    between atoms: N_16  and  C_17
REMARK   10  A    between atoms: C_17  and  C_18
REMARK                            x       y       z     vdW  Elec       q    Type
REMARK                         _______ _______ _______ _____ _____    ______ ____
ROOT
ATOM      1  N   UNL     1       0.175   9.597  19.595  0.00  0.00    +0.000 NA
ATOM      2  C   UNL     1       0.524   9.087  20.933  0.00  0.00    +0.000 C 
ATOM      3  C   UNL     1       0.932  10.187  21.943  0.00  0.00    +0.000 C 
ATOM      4  N   UNL     1      -0.027  11.316  22.092  0.00  0.00    +0.000 NA
ATOM      5  C   UNL     1      -0.423  11.788  20.740  0.00  0.00    +0.000 C 
ATOM      6  C   UNL     1      -0.836  10.666  19.747  0.00  0.00    +0.000 C 
ENDROOT
BRANCH   1   7
ATOM      7  C   UNL     1       1.333  10.093  18.824  0.00  0.00    +0.000 C 
BRANCH   7   8
ATOM      8  C   UNL     1       1.807   9.230  17.642  0.00  0.00    +0.000 C 
BRANCH   8   9
ATOM      9  O   UNL     1       3.101   8.697  17.915  0.00  0.00    +0.000 OA
BRANCH   9  13
ATOM     10  C   UNL     1       3.087   4.535  18.092  0.00  0.00    +0.000 A 
ATOM     11  C   UNL     1       2.040   5.300  18.616  0.00  0.00    +0.000 A 
ATOM     12  C   UNL     1       2.086   6.693  18.540  0.00  0.00    +0.000 A 
ATOM     13  C   UNL     1       3.178   7.333  17.955  0.00  0.00    +0.000 A 
ATOM     14  C   UNL     1       4.223   6.572  17.426  0.00  0.00    +0.000 A 
ATOM     15  C   UNL     1       4.179   5.176  17.494  0.00  0.00    +0.000 A 
BRANCH  10  16
ATOM     16  C   UNL     1       3.018   3.061  18.253  0.00  0.00    +0.000 C 
ATOM     17  O   UNL     1       2.815   2.291  17.328  0.00  0.00    +0.000 OA
BRANCH  16  18
ATOM     18  O   UNL     1       3.095   2.732  19.567  0.00  0.00    +0.000 OA
BRANCH  18  20
ATOM     19  C   UNL     1       1.555   2.915  21.382  0.00  0.00    +0.000 C 
ATOM     20  C   UNL     1       1.903   2.156  20.114  0.00  0.00    +0.000 C 
ENDBRANCH  18  20
ENDBRANCH  16  18
ENDBRANCH  10  16
ENDBRANCH   9  13
ENDBRANCH   8   9
ENDBRANCH   7   8
ENDBRANCH   1   7
BRANCH   4  21
ATOM     21  C   UNL     1      -1.250  10.906  22.828  0.00  0.00    +0.000 C 
BRANCH  21  22
ATOM     22  C   UNL     1      -2.059  12.095  23.342  0.00  0.00    +0.000 C 
ATOM     23  O   UNL     1      -3.261  11.967  23.548  0.00  0.00    +0.000 OA
ATOM     24  N   UNL     1      -1.326  13.257  23.443  0.00  0.00    +0.000 N 
ATOM     25  C   UNL     1      -1.864  14.401  23.947  0.00  0.00    +0.000 A 
ATOM     26  N   UNL     1      -3.035  14.571  24.503  0.00  0.00    +0.000 NA
ATOM     27  C   UNL     1      -3.210  15.901  24.813  0.00  0.00    +0.000 A 
ATOM     28  C   UNL     1      -2.155  16.727  24.486  0.00  0.00    +0.000 A 
ATOM     29  S   UNL     1      -0.875  15.788  23.829  0.00  0.00    +0.000 S 
ATOM     30  H   UNL     1      -0.348  13.245  23.169  0.00  0.00    +0.000 HD
ENDBRANCH  21  22
ENDBRANCH   4  21
TORSDOF 9
ENDMDL
MODEL 8
REMARK VINA RESULT:      -6.5      5.847      8.136
REMARK  Name = 
REMARK  10 active torsions:
REMARK  status: ('A' for Active; 'I' for Inactive)
REMARK    1  A    between atoms: C_1  and  C_2
REMARK    2  A    between atoms: C_2  and  O_3
REMARK    3  A    between atoms: O_3  and  C_4
REMARK    4  A    between atoms: C_4  and  C_6
REMARK    5  A    between atoms: C_9  and  O_10
REMARK    6  A    between atoms: O_10  and  C_11
REMARK    7  A    between atoms: C_11  and  C_12
REMARK    8  A    between atoms: C_12  and  N_13
REMARK    9  A    between atoms: N_16  and  C_17
REMARK   10  A    between atoms: C_17  and  C_18
REMARK                            x       y       z     vdW  Elec       q    Type
REMARK                         _______ _______ _______ _____ _____    ______ ____
ROOT
ATOM      1  N   UNL     1       2.674   2.584  20.093  0.00  0.00    +0.000 NA
ATOM      2  C   UNL     1       2.129   2.774  18.738  0.00  0.00    +0.000 C 
ATOM      3  C   UNL     1       2.559   4.099  18.063  0.00  0.00    +0.000 C 
ATOM      4  N   UNL     1       4.023   4.367  18.037  0.00  0.00    +0.000 NA
ATOM      5  C   UNL     1       4.579   4.115  19.391  0.00  0.00    +0.000 C 
ATOM      6  C   UNL     1       4.140   2.775  20.044  0.00  0.00    +0.000 C 
ENDROOT
BRANCH   1   7
ATOM      7  C   UNL     1       2.076   3.476  21.109  0.00  0.00    +0.000 C 
BRANCH   7   8
ATOM      8  C   UNL     1       1.394   4.757  20.598  0.00  0.00    +0.000 C 
BRANCH   8   9
ATOM      9  O   UNL     1       2.078   5.905  21.096  0.00  0.00    +0.000 OA
BRANCH   9  13
ATOM     10  C   UNL     1       1.058   9.598  19.461  0.00  0.00    +0.000 A 
ATOM     11  C   UNL     1       0.651   9.220  20.745  0.00  0.00    +0.000 A 
ATOM     12  C   UNL     1       1.011   7.972  21.254  0.00  0.00    +0.000 A 
ATOM     13  C   UNL     1       1.765   7.086  20.484  0.00  0.00    +0.000 A 
ATOM     14  C   UNL     1       2.177   7.461  19.204  0.00  0.00    +0.000 A 
ATOM     15  C   UNL     1       1.824   8.714  18.692  0.00  0.00    +0.000 A 
BRANCH  10  16
ATOM     16  C   UNL     1       0.597  10.911  18.945  0.00  0.00    +0.000 C 
ATOM     17  O   UNL     1      -0.488  11.083  18.413  0.00  0.00    +0.000 OA
BRANCH  16  18
ATOM     18  O   UNL     1       1.593  11.827  19.047  0.00  0.00    +0.000 OA
BRANCH  18  20
ATOM     19  C   UNL     1       2.623  13.608  20.258  0.00  0.00    +0.000 C 
ATOM     20  C   UNL     1       1.308  12.932  19.914  0.00  0.00    +0.000 C 
ENDBRANCH  18  20
ENDBRANCH  16  18
ENDBRANCH  10  16
ENDBRANCH   9  13
ENDBRANCH   8   9
ENDBRANCH   7   8
ENDBRANCH   1   7
BRANCH   4  21
ATOM     21  C   UNL     1       4.725   3.489  17.066  0.00  0.00    +0.000 C 
BRANCH  21  22
ATOM     22  C   UNL     1       5.639   4.264  16.119  0.00  0.00    +0.000 C 
ATOM     23  O   UNL     1       6.152   5.313  16.495  0.00  0.00    +0.000 OA
ATOM     24  N   UNL     1       5.724   3.711  14.860  0.00  0.00    +0.000 N 
ATOM     25  C   UNL     1       6.545   4.228  13.905  0.00  0.00    +0.000 A 
ATOM     26  N   UNL     1       7.429   5.184  14.026  0.00  0.00    +0.000 NA
ATOM     27  C   UNL     1       7.996   5.445  12.799  0.00  0.00    +0.000 A 
ATOM     28  C   UNL     1       7.529   4.673  11.756  0.00  0.00    +0.000 A 
ATOM     29  S   UNL     1       6.389   3.533  12.354  0.00  0.00    +0.000 S 
ATOM     30  H   UNL     1       5.188   2.873  14.656  0.00  0.00    +0.000 HD
ENDBRANCH  21  22
ENDBRANCH   4  21
TORSDOF 9
ENDMDL
MODEL 9
REMARK VINA RESULT:      -6.4      7.270     10.570
REMARK  Name = 
REMARK  10 active torsions:
REMARK  status: ('A' for Active; 'I' for Inactive)
REMARK    1  A    between atoms: C_1  and  C_2
REMARK    2  A    between atoms: C_2  and  O_3
REMARK    3  A    between atoms: O_3  and  C_4
REMARK    4  A    between atoms: C_4  and  C_6
REMARK    5  A    between atoms: C_9  and  O_10
REMARK    6  A    between atoms: O_10  and  C_11
REMARK    7  A    between atoms: C_11  and  C_12
REMARK    8  A    between atoms: C_12  and  N_13
REMARK    9  A    between atoms: N_16  and  C_17
REMARK   10  A    between atoms: C_17  and  C_18
REMARK                            x       y       z     vdW  Elec       q    Type
REMARK                         _______ _______ _______ _____ _____    ______ ____
ROOT
ATOM      1  N   UNL     1       0.658   8.413  20.079  0.00  0.00    +0.000 NA
ATOM      2  C   UNL     1       0.155   8.528  21.459  0.00  0.00    +0.000 C 
ATOM      3  C   UNL     1       0.775   9.696  22.263  0.00  0.00    +0.000 C 
ATOM      4  N   UNL     1       0.713  11.034  21.613  0.00  0.00    +0.000 NA
ATOM      5  C   UNL     1       1.163  10.902  20.203  0.00  0.00    +0.000 C 
ATOM      6  C   UNL     1       0.520   9.727  19.415  0.00  0.00    +0.000 C 
ENDROOT
BRANCH   1   7
ATOM      7  C   UNL     1       2.054   7.937  19.990  0.00  0.00    +0.000 C 
BRANCH   7   8
ATOM      8  C   UNL     1       2.280   6.543  19.379  0.00  0.00    +0.000 C 
BRANCH   8   9
ATOM      9  O   UNL     1       3.629   6.132  19.586  0.00  0.00    +0.000 OA
BRANCH   9  13
ATOM     10  C   UNL     1       5.892   5.247  16.202  0.00  0.00    +0.000 A 
ATOM     11  C   UNL     1       5.887   4.415  17.327  0.00  0.00    +0.000 A 
ATOM     12  C   UNL     1       5.118   4.750  18.442  0.00  0.00    +0.000 A 
ATOM     13  C   UNL     1       4.360   5.921  18.451  0.00  0.00    +0.000 A 
ATOM     14  C   UNL     1       4.358   6.752  17.328  0.00  0.00    +0.000 A 
ATOM     15  C   UNL     1       5.123   6.417  16.206  0.00  0.00    +0.000 A 
BRANCH  10  16
ATOM     16  C   UNL     1       6.774   4.876  15.067  0.00  0.00    +0.000 C 
ATOM     17  O   UNL     1       7.651   5.603  14.630  0.00  0.00    +0.000 OA
BRANCH  16  18
ATOM     18  O   UNL     1       6.378   3.691  14.538  0.00  0.00    +0.000 OA
BRANCH  18  20
ATOM     19  C   UNL     1       6.532   3.478  12.165  0.00  0.00    +0.000 C 
ATOM     20  C   UNL     1       5.613   3.795  13.331  0.00  0.00    +0.000 C 
ENDBRANCH  18  20
ENDBRANCH  16  18
ENDBRANCH  10  16
ENDBRANCH   9  13
ENDBRANCH   8   9
ENDBRANCH   7   8
ENDBRANCH   1   7
BRANCH   4  21
ATOM     21  C   UNL     1      -0.667  11.585  21.619  0.00  0.00    +0.000 C 
BRANCH  21  22
ATOM     22  C   UNL     1      -0.844  12.725  22.620  0.00  0.00    +0.000 C 
ATOM     23  O   UNL     1      -1.439  12.521  23.672  0.00  0.00    +0.000 OA
ATOM     24  N   UNL     1      -0.362  13.934  22.167  0.00  0.00    +0.000 N 
ATOM     25  C   UNL     1      -0.374  15.047  22.950  0.00  0.00    +0.000 A 
ATOM     26  N   UNL     1      -0.695  15.148  24.214  0.00  0.00    +0.000 NA
ATOM     27  C   UNL     1      -0.635  16.467  24.602  0.00  0.00    +0.000 A 
ATOM     28  C   UNL     1      -0.263  17.356  23.616  0.00  0.00    +0.000 A 
ATOM     29  S   UNL     1       0.090  16.494  22.171  0.00  0.00    +0.000 S 
ATOM     30  H   UNL     1       0.047  13.982  21.239  0.00  0.00    +0.000 HD
ENDBRANCH  21  22
ENDBRANCH   4  21
TORSDOF 9
ENDMDL
