MODEL 1
REMARK VINA RESULT:      -7.2      0.000      0.000
REMARK  Name = 
REMARK  9 active torsions:
REMARK  status: ('A' for Active; 'I' for Inactive)
REMARK    1  A    between atoms: C_6  and  C_7
REMARK    2  A    between atoms: C_10  and  O_11
REMARK    3  A    between atoms: C_12  and  C_13
REMARK    4  A    between atoms: C_12  and  C_14
REMARK    5  A    between atoms: C_14  and  O_15
REMARK    6  A    between atoms: O_15  and  C_16
REMARK    7  A    between atoms: C_16  and  C_18
REMARK    8  A    between atoms: C_24  and  C_25
REMARK    9  A    between atoms: C_25  and  C_26
REMARK                            x       y       z     vdW  Elec       q    Type
REMARK                         _______ _______ _______ _____ _____    ______ ____
ROOT
ATOM      1  C   UNL     1       1.749   9.188  17.932  0.00  0.00    +0.000 C 
ATOM      2  C   UNL     1       0.625   9.501  18.604  0.00  0.00    +0.000 C 
ATOM      3  C   UNL     1      -0.458  10.332  17.947  0.00  0.00    +0.000 C 
ATOM      4  C   UNL     1      -0.812  11.624  18.721  0.00  0.00    +0.000 C 
ATOM      5  C   UNL     1      -1.040  11.385  20.229  0.00  0.00    +0.000 C 
ATOM      6  C   UNL     1       0.134  10.554  20.861  0.00  0.00    +0.000 C 
ATOM      7  C   UNL     1       1.504  11.302  20.753  0.00  0.00    +0.000 C 
ATOM      8  C   UNL     1      -0.263  10.194  22.326  0.00  0.00    +0.000 C 
ATOM      9  C   UNL     1      -1.100  11.156  23.163  0.00  0.00    +0.000 C 
ATOM     10  C   UNL     1      -2.107  12.022  22.410  0.00  0.00    +0.000 C 
ATOM     11  C   UNL     1      -1.499  12.653  21.124  0.00  0.00    +0.000 C 
ATOM     12  C   UNL     1      -2.585  13.478  20.398  0.00  0.00    +0.000 C 
ATOM     13  C   UNL     1       0.357   9.166  20.073  0.00  0.00    +0.000 C 
ENDROOT
BRANCH  10  14
ATOM     14  O   UNL     1      -2.646  12.994  23.304  0.00  0.00    +0.000 OA
ATOM     15  H   UNL     1      -2.443  12.715  24.214  0.00  0.00    +0.000 HD
ENDBRANCH  10  14
BRANCH  11  16
ATOM     16  C   UNL     1      -0.368  13.656  21.523  0.00  0.00    +0.000 C 
BRANCH  16  17
ATOM     17  O   UNL     1      -0.355  14.898  20.778  0.00  0.00    +0.000 OA
BRANCH  17  18
ATOM     18  C   UNL     1       0.782  15.167  20.071  0.00  0.00    +0.000 C 
ATOM     19  O   UNL     1       1.865  14.619  20.211  0.00  0.00    +0.000 OA
BRANCH  18  20
ATOM     20  C   UNL     1       0.591  16.277  19.119  0.00  0.00    +0.000 A 
ATOM     21  C   UNL     1      -0.657  16.679  18.635  0.00  0.00    +0.000 A 
ATOM     22  C   UNL     1      -0.730  17.753  17.753  0.00  0.00    +0.000 A 
ATOM     23  C   UNL     1       0.445  18.388  17.382  0.00  0.00    +0.000 A 
ATOM     24  N   UNL     1       1.673  18.028  17.828  0.00  0.00    +0.000 NA
ATOM     25  C   UNL     1       1.714  16.977  18.688  0.00  0.00    +0.000 A 
ENDBRANCH  18  20
ENDBRANCH  17  18
ENDBRANCH  16  17
ENDBRANCH  11  16
BRANCH  13  26
ATOM     26  C   UNL     1       1.430   8.304  20.831  0.00  0.00    +0.000 C 
BRANCH  26  27
ATOM     27  C   UNL     1       1.342   6.806  20.909  0.00  0.00    +0.000 C 
ATOM     28  C   UNL     1       2.050   5.945  20.167  0.00  0.00    +0.000 C 
ATOM     29  C   UNL     1       3.172   6.177  19.329  0.00  0.00    +0.000 C 
ATOM     30  C   UNL     1       3.434   4.997  18.783  0.00  0.00    +0.000 C 
ATOM     31  O   UNL     1       2.593   3.943  19.141  0.00  0.00    +0.000 OA
ATOM     32  C   UNL     1       1.689   4.503  20.026  0.00  0.00    +0.000 C 
ATOM     33  O   UNL     1       0.742   3.930  20.538  0.00  0.00    +0.000 OA
ENDBRANCH  26  27
ENDBRANCH  13  26
TORSDOF 7
ENDMDL
MODEL 2
REMARK VINA RESULT:      -7.1      1.179      1.422
REMARK  Name = 
REMARK  9 active torsions:
REMARK  status: ('A' for Active; 'I' for Inactive)
REMARK    1  A    between atoms: C_6  and  C_7
REMARK    2  A    between atoms: C_10  and  O_11
REMARK    3  A    between atoms: C_12  and  C_13
REMARK    4  A    between atoms: C_12  and  C_14
REMARK    5  A    between atoms: C_14  and  O_15
REMARK    6  A    between atoms: O_15  and  C_16
REMARK    7  A    between atoms: C_16  and  C_18
REMARK    8  A    between atoms: C_24  and  C_25
REMARK    9  A    between atoms: C_25  and  C_26
REMARK                            x       y       z     vdW  Elec       q    Type
REMARK                         _______ _______ _______ _____ _____    ______ ____
ROOT
ATOM      1  C   UNL     1       1.424   9.486  17.830  0.00  0.00    +0.000 C 
ATOM      2  C   UNL     1       0.324   9.713  18.570  0.00  0.00    +0.000 C 
ATOM      3  C   UNL     1      -0.874  10.421  17.971  0.00  0.00    +0.000 C 
ATOM      4  C   UNL     1      -1.297  11.698  18.736  0.00  0.00    +0.000 C 
ATOM      5  C   UNL     1      -1.400  11.484  20.261  0.00  0.00    +0.000 C 
ATOM      6  C   UNL     1      -0.113  10.785  20.830  0.00  0.00    +0.000 C 
ATOM      7  C   UNL     1       1.170  11.654  20.609  0.00  0.00    +0.000 C 
ATOM      8  C   UNL     1      -0.375  10.435  22.328  0.00  0.00    +0.000 C 
ATOM      9  C   UNL     1      -1.241  11.340  23.197  0.00  0.00    +0.000 C 
ATOM     10  C   UNL     1      -2.373  12.086  22.495  0.00  0.00    +0.000 C 
ATOM     11  C   UNL     1      -1.915  12.731  21.155  0.00  0.00    +0.000 C 
ATOM     12  C   UNL     1      -3.121  13.430  20.487  0.00  0.00    +0.000 C 
ATOM     13  C   UNL     1       0.188   9.401  20.062  0.00  0.00    +0.000 C 
ENDROOT
BRANCH  10  14
ATOM     14  O   UNL     1      -2.941  13.031  23.401  0.00  0.00    +0.000 OA
ATOM     15  H   UNL     1      -3.797  13.319  23.040  0.00  0.00    +0.000 HD
ENDBRANCH  10  14
BRANCH  11  16
ATOM     16  C   UNL     1      -0.860  13.846  21.451  0.00  0.00    +0.000 C 
BRANCH  16  17
ATOM     17  O   UNL     1      -0.511  14.680  20.319  0.00  0.00    +0.000 OA
BRANCH  17  18
ATOM     18  C   UNL     1       0.192  15.817  20.598  0.00  0.00    +0.000 C 
ATOM     19  O   UNL     1      -0.112  16.668  21.420  0.00  0.00    +0.000 OA
BRANCH  18  20
ATOM     20  C   UNL     1       1.376  15.961  19.732  0.00  0.00    +0.000 A 
ATOM     21  C   UNL     1       1.813  14.975  18.843  0.00  0.00    +0.000 A 
ATOM     22  C   UNL     1       2.934  15.219  18.055  0.00  0.00    +0.000 A 
ATOM     23  C   UNL     1       3.582  16.438  18.182  0.00  0.00    +0.000 A 
ATOM     24  N   UNL     1       3.190  17.418  19.031  0.00  0.00    +0.000 NA
ATOM     25  C   UNL     1       2.093  17.153  19.788  0.00  0.00    +0.000 A 
ENDBRANCH  18  20
ENDBRANCH  17  18
ENDBRANCH  16  17
ENDBRANCH  11  16
BRANCH  13  26
ATOM     26  C   UNL     1       1.385   8.665  20.765  0.00  0.00    +0.000 C 
BRANCH  26  27
ATOM     27  C   UNL     1       1.436   7.169  20.901  0.00  0.00    +0.000 C 
ATOM     28  C   UNL     1       2.078   6.334  20.074  0.00  0.00    +0.000 C 
ATOM     29  C   UNL     1       3.020   6.615  19.050  0.00  0.00    +0.000 C 
ATOM     30  C   UNL     1       3.284   5.436  18.502  0.00  0.00    +0.000 C 
ATOM     31  O   UNL     1       2.605   4.337  19.030  0.00  0.00    +0.000 OA
ATOM     32  C   UNL     1       1.819   4.864  20.039  0.00  0.00    +0.000 C 
ATOM     33  O   UNL     1       1.022   4.243  20.722  0.00  0.00    +0.000 OA
ENDBRANCH  26  27
ENDBRANCH  13  26
TORSDOF 7
ENDMDL
MODEL 3
REMARK VINA RESULT:      -7.0      1.296      1.534
REMARK  Name = 
REMARK  9 active torsions:
REMARK  status: ('A' for Active; 'I' for Inactive)
REMARK    1  A    between atoms: C_6  and  C_7
REMARK    2  A    between atoms: C_10  and  O_11
REMARK    3  A    between atoms: C_12  and  C_13
REMARK    4  A    between atoms: C_12  and  C_14
REMARK    5  A    between atoms: C_14  and  O_15
REMARK    6  A    between atoms: O_15  and  C_16
REMARK    7  A    between atoms: C_16  and  C_18
REMARK    8  A    between atoms: C_24  and  C_25
REMARK    9  A    between atoms: C_25  and  C_26
REMARK                            x       y       z     vdW  Elec       q    Type
REMARK                         _______ _______ _______ _____ _____    ______ ____
ROOT
ATOM      1  C   UNL     1       1.876   9.323  18.069  0.00  0.00    +0.000 C 
ATOM      2  C   UNL     1       0.724   9.576  18.717  0.00  0.00    +0.000 C 
ATOM      3  C   UNL     1      -0.330  10.467  18.092  0.00  0.00    +0.000 C 
ATOM      4  C   UNL     1      -0.720  11.684  18.964  0.00  0.00    +0.000 C 
ATOM      5  C   UNL     1      -1.014  11.308  20.432  0.00  0.00    +0.000 C 
ATOM      6  C   UNL     1       0.132  10.420  21.037  0.00  0.00    +0.000 C 
ATOM      7  C   UNL     1       1.505  11.171  21.058  0.00  0.00    +0.000 C 
ATOM      8  C   UNL     1      -0.329   9.929  22.444  0.00  0.00    +0.000 C 
ATOM      9  C   UNL     1      -1.203  10.812  23.328  0.00  0.00    +0.000 C 
ATOM     10  C   UNL     1      -2.177  11.747  22.613  0.00  0.00    +0.000 C 
ATOM     11  C   UNL     1      -1.514  12.490  21.419  0.00  0.00    +0.000 C 
ATOM     12  C   UNL     1      -2.568  13.381  20.724  0.00  0.00    +0.000 C 
ATOM     13  C   UNL     1       0.392   9.109  20.136  0.00  0.00    +0.000 C 
ENDROOT
BRANCH  10  14
ATOM     14  O   UNL     1      -2.756  12.634  23.568  0.00  0.00    +0.000 OA
ATOM     15  H   UNL     1      -3.480  13.116  23.132  0.00  0.00    +0.000 HD
ENDBRANCH  10  14
BRANCH  11  16
ATOM     16  C   UNL     1      -0.403  13.449  21.957  0.00  0.00    +0.000 C 
BRANCH  16  17
ATOM     17  O   UNL     1       0.140  14.373  20.982  0.00  0.00    +0.000 OA
BRANCH  17  18
ATOM     18  C   UNL     1       1.442  14.744  21.158  0.00  0.00    +0.000 C 
ATOM     19  O   UNL     1       2.027  14.832  22.227  0.00  0.00    +0.000 OA
BRANCH  18  20
ATOM     20  C   UNL     1       2.091  15.106  19.885  0.00  0.00    +0.000 A 
ATOM     21  C   UNL     1       1.910  16.335  19.243  0.00  0.00    +0.000 A 
ATOM     22  C   UNL     1       2.586  16.584  18.052  0.00  0.00    +0.000 A 
ATOM     23  C   UNL     1       3.416  15.599  17.541  0.00  0.00    +0.000 A 
ATOM     24  N   UNL     1       3.618  14.397  18.133  0.00  0.00    +0.000 NA
ATOM     25  C   UNL     1       2.945  14.180  19.294  0.00  0.00    +0.000 A 
ENDBRANCH  18  20
ENDBRANCH  17  18
ENDBRANCH  16  17
ENDBRANCH  11  16
BRANCH  13  26
ATOM     26  C   UNL     1       1.431   8.178  20.859  0.00  0.00    +0.000 C 
BRANCH  26  27
ATOM     27  C   UNL     1       1.302   6.681  20.855  0.00  0.00    +0.000 C 
ATOM     28  C   UNL     1       2.046   5.839  20.126  0.00  0.00    +0.000 C 
ATOM     29  C   UNL     1       3.235   6.080  19.389  0.00  0.00    +0.000 C 
ATOM     30  C   UNL     1       3.511   4.920  18.807  0.00  0.00    +0.000 C 
ATOM     31  O   UNL     1       2.620   3.874  19.046  0.00  0.00    +0.000 OA
ATOM     32  C   UNL     1       1.663   4.416  19.886  0.00  0.00    +0.000 C 
ATOM     33  O   UNL     1       0.666   3.844  20.295  0.00  0.00    +0.000 OA
ENDBRANCH  26  27
ENDBRANCH  13  26
TORSDOF 7
ENDMDL
MODEL 4
REMARK VINA RESULT:      -7.0      4.656      9.324
REMARK  Name = 
REMARK  9 active torsions:
REMARK  status: ('A' for Active; 'I' for Inactive)
REMARK    1  A    between atoms: C_6  and  C_7
REMARK    2  A    between atoms: C_10  and  O_11
REMARK    3  A    between atoms: C_12  and  C_13
REMARK    4  A    between atoms: C_12  and  C_14
REMARK    5  A    between atoms: C_14  and  O_15
REMARK    6  A    between atoms: O_15  and  C_16
REMARK    7  A    between atoms: C_16  and  C_18
REMARK    8  A    between atoms: C_24  and  C_25
REMARK    9  A    between atoms: C_25  and  C_26
REMARK                            x       y       z     vdW  Elec       q    Type
REMARK                         _______ _______ _______ _____ _____    ______ ____
ROOT
ATOM      1  C   UNL     1       1.949   3.153  20.859  0.00  0.00    +0.000 C 
ATOM      2  C   UNL     1       2.189   3.519  19.587  0.00  0.00    +0.000 C 
ATOM      3  C   UNL     1       2.508   2.477  18.534  0.00  0.00    +0.000 C 
ATOM      4  C   UNL     1       3.859   2.705  17.815  0.00  0.00    +0.000 C 
ATOM      5  C   UNL     1       4.051   4.158  17.331  0.00  0.00    +0.000 C 
ATOM      6  C   UNL     1       3.745   5.189  18.477  0.00  0.00    +0.000 C 
ATOM      7  C   UNL     1       4.715   5.017  19.692  0.00  0.00    +0.000 C 
ATOM      8  C   UNL     1       3.774   6.622  17.858  0.00  0.00    +0.000 C 
ATOM      9  C   UNL     1       4.729   6.957  16.718  0.00  0.00    +0.000 C 
ATOM     10  C   UNL     1       5.069   5.823  15.752  0.00  0.00    +0.000 C 
ATOM     11  C   UNL     1       5.393   4.494  16.492  0.00  0.00    +0.000 C 
ATOM     12  C   UNL     1       5.685   3.389  15.450  0.00  0.00    +0.000 C 
ATOM     13  C   UNL     1       2.271   4.963  19.088  0.00  0.00    +0.000 C 
ENDROOT
BRANCH  10  14
ATOM     14  O   UNL     1       6.118   6.249  14.886  0.00  0.00    +0.000 OA
ATOM     15  H   UNL     1       6.913   5.728  15.094  0.00  0.00    +0.000 HD
ENDBRANCH  10  14
BRANCH  11  16
ATOM     16  C   UNL     1       6.700   4.673  17.331  0.00  0.00    +0.000 C 
BRANCH  16  17
ATOM     17  O   UNL     1       7.305   5.987  17.256  0.00  0.00    +0.000 OA
BRANCH  17  18
ATOM     18  C   UNL     1       7.857   6.466  18.410  0.00  0.00    +0.000 C 
ATOM     19  O   UNL     1       8.071   5.823  19.426  0.00  0.00    +0.000 OA
BRANCH  18  20
ATOM     20  C   UNL     1       8.128   7.913  18.334  0.00  0.00    +0.000 A 
ATOM     21  C   UNL     1       7.583   8.755  17.361  0.00  0.00    +0.000 A 
ATOM     22  C   UNL     1       7.888  10.113  17.390  0.00  0.00    +0.000 A 
ATOM     23  C   UNL     1       8.727  10.584  18.387  0.00  0.00    +0.000 A 
ATOM     24  N   UNL     1       9.275   9.800  19.347  0.00  0.00    +0.000 NA
ATOM     25  C   UNL     1       8.961   8.479  19.294  0.00  0.00    +0.000 A 
ENDBRANCH  18  20
ENDBRANCH  17  18
ENDBRANCH  16  17
ENDBRANCH  11  16
BRANCH  13  26
ATOM     26  C   UNL     1       1.952   6.108  20.115  0.00  0.00    +0.000 C 
BRANCH  26  27
ATOM     27  C   UNL     1       1.825   7.546  19.696  0.00  0.00    +0.000 C 
ATOM     28  C   UNL     1       1.341   8.537  20.455  0.00  0.00    +0.000 C 
ATOM     29  C   UNL     1       1.054   8.560  21.845  0.00  0.00    +0.000 C 
ATOM     30  C   UNL     1       0.534   9.762  22.062  0.00  0.00    +0.000 C 
ATOM     31  O   UNL     1       0.409  10.597  20.951  0.00  0.00    +0.000 OA
ATOM     32  C   UNL     1       0.911   9.854  19.898  0.00  0.00    +0.000 C 
ATOM     33  O   UNL     1       0.935  10.199  18.728  0.00  0.00    +0.000 OA
ENDBRANCH  26  27
ENDBRANCH  13  26
TORSDOF 7
ENDMDL
MODEL 5
REMARK VINA RESULT:      -7.0      2.852      4.957
REMARK  Name = 
REMARK  9 active torsions:
REMARK  status: ('A' for Active; 'I' for Inactive)
REMARK    1  A    between atoms: C_6  and  C_7
REMARK    2  A    between atoms: C_10  and  O_11
REMARK    3  A    between atoms: C_12  and  C_13
REMARK    4  A    between atoms: C_12  and  C_14
REMARK    5  A    between atoms: C_14  and  O_15
REMARK    6  A    between atoms: O_15  and  C_16
REMARK    7  A    between atoms: C_16  and  C_18
REMARK    8  A    between atoms: C_24  and  C_25
REMARK    9  A    between atoms: C_25  and  C_26
REMARK                            x       y       z     vdW  Elec       q    Type
REMARK                         _______ _______ _______ _____ _____    ______ ____
ROOT
ATOM      1  C   UNL     1       0.195   7.403  20.825  0.00  0.00    +0.000 C 
ATOM      2  C   UNL     1       0.817   8.593  20.904  0.00  0.00    +0.000 C 
ATOM      3  C   UNL     1       0.728   9.425  22.167  0.00  0.00    +0.000 C 
ATOM      4  C   UNL     1       0.161  10.847  21.943  0.00  0.00    +0.000 C 
ATOM      5  C   UNL     1       0.823  11.584  20.758  0.00  0.00    +0.000 C 
ATOM      6  C   UNL     1       0.849  10.687  19.468  0.00  0.00    +0.000 C 
ATOM      7  C   UNL     1      -0.593  10.315  18.985  0.00  0.00    +0.000 C 
ATOM      8  C   UNL     1       1.697  11.423  18.385  0.00  0.00    +0.000 C 
ATOM      9  C   UNL     1       1.693  12.945  18.297  0.00  0.00    +0.000 C 
ATOM     10  C   UNL     1       1.508  13.707  19.608  0.00  0.00    +0.000 C 
ATOM     11  C   UNL     1       0.366  13.112  20.481  0.00  0.00    +0.000 C 
ATOM     12  C   UNL     1       0.268  13.907  21.803  0.00  0.00    +0.000 C 
ATOM     13  C   UNL     1       1.566   9.272  19.755  0.00  0.00    +0.000 C 
ENDROOT
BRANCH  10  14
ATOM     14  O   UNL     1       1.323  15.091  19.320  0.00  0.00    +0.000 OA
ATOM     15  H   UNL     1       1.401  15.588  20.153  0.00  0.00    +0.000 HD
ENDBRANCH  10  14
BRANCH  11  16
ATOM     16  C   UNL     1      -1.000  13.297  19.746  0.00  0.00    +0.000 C 
BRANCH  16  17
ATOM     17  O   UNL     1      -2.117  13.650  20.599  0.00  0.00    +0.000 OA
BRANCH  17  18
ATOM     18  C   UNL     1      -3.203  12.825  20.547  0.00  0.00    +0.000 C 
ATOM     19  O   UNL     1      -3.598  12.215  19.565  0.00  0.00    +0.000 OA
BRANCH  18  20
ATOM     20  C   UNL     1      -3.926  12.782  21.831  0.00  0.00    +0.000 A 
ATOM     21  C   UNL     1      -5.272  13.130  21.976  0.00  0.00    +0.000 A 
ATOM     22  C   UNL     1      -5.866  13.037  23.231  0.00  0.00    +0.000 A 
ATOM     23  C   UNL     1      -5.097  12.602  24.299  0.00  0.00    +0.000 A 
ATOM     24  N   UNL     1      -3.791  12.256  24.200  0.00  0.00    +0.000 NA
ATOM     25  C   UNL     1      -3.237  12.357  22.963  0.00  0.00    +0.000 A 
ENDBRANCH  18  20
ENDBRANCH  17  18
ENDBRANCH  16  17
ENDBRANCH  11  16
BRANCH  13  26
ATOM     26  C   UNL     1       1.708   8.478  18.407  0.00  0.00    +0.000 C 
BRANCH  26  27
ATOM     27  C   UNL     1       2.959   7.725  18.050  0.00  0.00    +0.000 C 
ATOM     28  C   UNL     1       3.106   6.395  18.098  0.00  0.00    +0.000 C 
ATOM     29  C   UNL     1       2.129   5.377  18.255  0.00  0.00    +0.000 C 
ATOM     30  C   UNL     1       2.824   4.247  18.301  0.00  0.00    +0.000 C 
ATOM     31  O   UNL     1       4.211   4.364  18.206  0.00  0.00    +0.000 OA
ATOM     32  C   UNL     1       4.439   5.722  18.076  0.00  0.00    +0.000 C 
ATOM     33  O   UNL     1       5.532   6.260  18.019  0.00  0.00    +0.000 OA
ENDBRANCH  26  27
ENDBRANCH  13  26
TORSDOF 7
ENDMDL
MODEL 6
REMARK VINA RESULT:      -7.0      3.779      5.672
REMARK  Name = 
REMARK  9 active torsions:
REMARK  status: ('A' for Active; 'I' for Inactive)
REMARK    1  A    between atoms: C_6  and  C_7
REMARK    2  A    between atoms: C_10  and  O_11
REMARK    3  A    between atoms: C_12  and  C_13
REMARK    4  A    between atoms: C_12  and  C_14
REMARK    5  A    between atoms: C_14  and  O_15
REMARK    6  A    between atoms: O_15  and  C_16
REMARK    7  A    between atoms: C_16  and  C_18
REMARK    8  A    between atoms: C_24  and  C_25
REMARK    9  A    between atoms: C_25  and  C_26
REMARK                            x       y       z     vdW  Elec       q    Type
REMARK                         _______ _______ _______ _____ _____    ______ ____
ROOT
ATOM      1  C   UNL     1       2.259   5.130  18.922  0.00  0.00    +0.000 C 
ATOM      2  C   UNL     1       2.330   6.370  19.440  0.00  0.00    +0.000 C 
ATOM      3  C   UNL     1       1.702   6.680  20.783  0.00  0.00    +0.000 C 
ATOM      4  C   UNL     1       0.661   7.824  20.740  0.00  0.00    +0.000 C 
ATOM      5  C   UNL     1       1.164   9.073  19.986  0.00  0.00    +0.000 C 
ATOM      6  C   UNL     1       1.766   8.693  18.585  0.00  0.00    +0.000 C 
ATOM      7  C   UNL     1       0.699   8.034  17.649  0.00  0.00    +0.000 C 
ATOM      8  C   UNL     1       2.420   9.973  17.977  0.00  0.00    +0.000 C 
ATOM      9  C   UNL     1       1.822  11.351  18.241  0.00  0.00    +0.000 C 
ATOM     10  C   UNL     1       1.127  11.551  19.586  0.00  0.00    +0.000 C 
ATOM     11  C   UNL     1       0.189  10.365  19.949  0.00  0.00    +0.000 C 
ATOM     12  C   UNL     1      -0.443  10.620  21.336  0.00  0.00    +0.000 C 
ATOM     13  C   UNL     1       2.929   7.587  18.730  0.00  0.00    +0.000 C 
ENDROOT
BRANCH  10  14
ATOM     14  O   UNL     1       0.456  12.810  19.581  0.00  0.00    +0.000 OA
ATOM     15  H   UNL     1       0.058  12.937  18.703  0.00  0.00    +0.000 HD
ENDBRANCH  10  14
BRANCH  11  16
ATOM     16  C   UNL     1      -0.991  10.305  18.925  0.00  0.00    +0.000 C 
BRANCH  16  17
ATOM     17  O   UNL     1      -1.895  11.436  18.958  0.00  0.00    +0.000 OA
BRANCH  17  18
ATOM     18  C   UNL     1      -2.809  11.510  17.947  0.00  0.00    +0.000 C 
ATOM     19  O   UNL     1      -2.561  11.531  16.751  0.00  0.00    +0.000 OA
BRANCH  18  20
ATOM     20  C   UNL     1      -4.187  11.631  18.457  0.00  0.00    +0.000 A 
ATOM     21  C   UNL     1      -5.303  11.081  17.818  0.00  0.00    +0.000 A 
ATOM     22  C   UNL     1      -6.560  11.235  18.394  0.00  0.00    +0.000 A 
ATOM     23  C   UNL     1      -6.663  11.936  19.586  0.00  0.00    +0.000 A 
ATOM     24  N   UNL     1      -5.607  12.483  20.235  0.00  0.00    +0.000 NA
ATOM     25  C   UNL     1      -4.392  12.317  19.650  0.00  0.00    +0.000 A 
ENDBRANCH  18  20
ENDBRANCH  17  18
ENDBRANCH  16  17
ENDBRANCH  11  16
BRANCH  13  26
ATOM     26  C   UNL     1       3.604   7.355  17.331  0.00  0.00    +0.000 C 
BRANCH  26  27
ATOM     27  C   UNL     1       5.087   7.160  17.180  0.00  0.00    +0.000 C 
ATOM     28  C   UNL     1       5.682   6.063  16.697  0.00  0.00    +0.000 C 
ATOM     29  C   UNL     1       5.121   4.950  16.017  0.00  0.00    +0.000 C 
ATOM     30  C   UNL     1       6.142   4.124  15.825  0.00  0.00    +0.000 C 
ATOM     31  O   UNL     1       7.380   4.536  16.318  0.00  0.00    +0.000 OA
ATOM     32  C   UNL     1       7.134   5.773  16.887  0.00  0.00    +0.000 C 
ATOM     33  O   UNL     1       7.947   6.459  17.484  0.00  0.00    +0.000 OA
ENDBRANCH  26  27
ENDBRANCH  13  26
TORSDOF 7
ENDMDL
MODEL 7
REMARK VINA RESULT:      -7.0      2.861      5.000
REMARK  Name = 
REMARK  9 active torsions:
REMARK  status: ('A' for Active; 'I' for Inactive)
REMARK    1  A    between atoms: C_6  and  C_7
REMARK    2  A    between atoms: C_10  and  O_11
REMARK    3  A    between atoms: C_12  and  C_13
REMARK    4  A    between atoms: C_12  and  C_14
REMARK    5  A    between atoms: C_14  and  O_15
REMARK    6  A    between atoms: O_15  and  C_16
REMARK    7  A    between atoms: C_16  and  C_18
REMARK    8  A    between atoms: C_24  and  C_25
REMARK    9  A    between atoms: C_25  and  C_26
REMARK                            x       y       z     vdW  Elec       q    Type
REMARK                         _______ _______ _______ _____ _____    ______ ____
ROOT
ATOM      1  C   UNL     1      -0.383   7.795  21.572  0.00  0.00    +0.000 C 
ATOM      2  C   UNL     1       0.228   8.991  21.645  0.00  0.00    +0.000 C 
ATOM      3  C   UNL     1      -0.025   9.914  22.820  0.00  0.00    +0.000 C 
ATOM      4  C   UNL     1      -0.553  11.312  22.419  0.00  0.00    +0.000 C 
ATOM      5  C   UNL     1       0.262  11.964  21.281  0.00  0.00    +0.000 C 
ATOM      6  C   UNL     1       0.455  10.975  20.076  0.00  0.00    +0.000 C 
ATOM      7  C   UNL     1      -0.911  10.559  19.436  0.00  0.00    +0.000 C 
ATOM      8  C   UNL     1       1.440  11.635  19.062  0.00  0.00    +0.000 C 
ATOM      9  C   UNL     1       1.453  13.147  18.864  0.00  0.00    +0.000 C 
ATOM     10  C   UNL     1       1.099  14.001  20.079  0.00  0.00    +0.000 C 
ATOM     11  C   UNL     1      -0.149  13.464  20.836  0.00  0.00    +0.000 C 
ATOM     12  C   UNL     1      -0.418  14.354  22.071  0.00  0.00    +0.000 C 
ATOM     13  C   UNL     1       1.123   9.590  20.558  0.00  0.00    +0.000 C 
ENDROOT
BRANCH  10  14
ATOM     14  O   UNL     1       0.959  15.360  19.668  0.00  0.00    +0.000 OA
ATOM     15  H   UNL     1       1.289  15.929  20.385  0.00  0.00    +0.000 HD
ENDBRANCH  10  14
BRANCH  11  16
ATOM     16  C   UNL     1      -1.406  13.586  19.915  0.00  0.00    +0.000 C 
BRANCH  16  17
ATOM     17  O   UNL     1      -2.640  13.918  20.597  0.00  0.00    +0.000 OA
BRANCH  17  18
ATOM     18  C   UNL     1      -3.623  12.970  20.566  0.00  0.00    +0.000 C 
ATOM     19  O   UNL     1      -3.978  12.333  19.586  0.00  0.00    +0.000 OA
BRANCH  18  20
ATOM     20  C   UNL     1      -4.289  12.822  21.873  0.00  0.00    +0.000 A 
ATOM     21  C   UNL     1      -3.614  12.843  23.096  0.00  0.00    +0.000 A 
ATOM     22  C   UNL     1      -4.341  12.714  24.276  0.00  0.00    +0.000 A 
ATOM     23  C   UNL     1      -5.717  12.567  24.195  0.00  0.00    +0.000 A 
ATOM     24  N   UNL     1      -6.408  12.541  23.030  0.00  0.00    +0.000 NA
ATOM     25  C   UNL     1      -5.673  12.669  21.894  0.00  0.00    +0.000 A 
ENDBRANCH  18  20
ENDBRANCH  17  18
ENDBRANCH  16  17
ENDBRANCH  11  16
BRANCH  13  26
ATOM     26  C   UNL     1       1.439   8.699  19.302  0.00  0.00    +0.000 C 
BRANCH  26  27
ATOM     27  C   UNL     1       2.180   7.396  19.411  0.00  0.00    +0.000 C 
ATOM     28  C   UNL     1       3.078   6.936  18.531  0.00  0.00    +0.000 C 
ATOM     29  C   UNL     1       3.717   7.602  17.453  0.00  0.00    +0.000 C 
ATOM     30  C   UNL     1       4.456   6.666  16.871  0.00  0.00    +0.000 C 
ATOM     31  O   UNL     1       4.393   5.387  17.424  0.00  0.00    +0.000 OA
ATOM     32  C   UNL     1       3.521   5.511  18.490  0.00  0.00    +0.000 C 
ATOM     33  O   UNL     1       3.144   4.604  19.214  0.00  0.00    +0.000 OA
ENDBRANCH  26  27
ENDBRANCH  13  26
TORSDOF 7
ENDMDL
MODEL 8
REMARK VINA RESULT:      -6.9      4.252      9.455
REMARK  Name = 
REMARK  9 active torsions:
REMARK  status: ('A' for Active; 'I' for Inactive)
REMARK    1  A    between atoms: C_6  and  C_7
REMARK    2  A    between atoms: C_10  and  O_11
REMARK    3  A    between atoms: C_12  and  C_13
REMARK    4  A    between atoms: C_12  and  C_14
REMARK    5  A    between atoms: C_14  and  O_15
REMARK    6  A    between atoms: O_15  and  C_16
REMARK    7  A    between atoms: C_16  and  C_18
REMARK    8  A    between atoms: C_24  and  C_25
REMARK    9  A    between atoms: C_25  and  C_26
REMARK                            x       y       z     vdW  Elec       q    Type
REMARK                         _______ _______ _______ _____ _____    ______ ____
ROOT
ATOM      1  C   UNL     1       1.361   4.597  20.470  0.00  0.00    +0.000 C 
ATOM      2  C   UNL     1       1.788   4.712  19.199  0.00  0.00    +0.000 C 
ATOM      3  C   UNL     1       1.927   3.485  18.320  0.00  0.00    +0.000 C 
ATOM      4  C   UNL     1       3.347   3.287  17.740  0.00  0.00    +0.000 C 
ATOM      5  C   UNL     1       3.930   4.571  17.112  0.00  0.00    +0.000 C 
ATOM      6  C   UNL     1       3.795   5.797  18.085  0.00  0.00    +0.000 C 
ATOM      7  C   UNL     1       4.588   5.577  19.416  0.00  0.00    +0.000 C 
ATOM      8  C   UNL     1       4.227   7.080  17.308  0.00  0.00    +0.000 C 
ATOM      9  C   UNL     1       5.326   7.017  16.254  0.00  0.00    +0.000 C 
ATOM     10  C   UNL     1       5.454   5.710  15.474  0.00  0.00    +0.000 C 
ATOM     11  C   UNL     1       5.379   4.460  16.398  0.00  0.00    +0.000 C 
ATOM     12  C   UNL     1       5.474   3.182  15.535  0.00  0.00    +0.000 C 
ATOM     13  C   UNL     1       2.265   6.010  18.546  0.00  0.00    +0.000 C 
ENDROOT
BRANCH  10  14
ATOM     14  O   UNL     1       6.644   5.750  14.690  0.00  0.00    +0.000 OA
ATOM     15  H   UNL     1       7.094   4.891  14.776  0.00  0.00    +0.000 HD
ENDBRANCH  10  14
BRANCH  11  16
ATOM     16  C   UNL     1       6.615   4.447  17.354  0.00  0.00    +0.000 C 
BRANCH  16  17
ATOM     17  O   UNL     1       7.463   5.620  17.282  0.00  0.00    +0.000 OA
BRANCH  17  18
ATOM     18  C   UNL     1       7.927   6.106  18.470  0.00  0.00    +0.000 C 
ATOM     19  O   UNL     1       8.089   5.464  19.497  0.00  0.00    +0.000 OA
BRANCH  18  20
ATOM     20  C   UNL     1       8.168   7.559  18.416  0.00  0.00    +0.000 A 
ATOM     21  C   UNL     1       8.904   8.261  19.375  0.00  0.00    +0.000 A 
ATOM     22  C   UNL     1       9.089   9.631  19.221  0.00  0.00    +0.000 A 
ATOM     23  C   UNL     1       8.532  10.256  18.116  0.00  0.00    +0.000 A 
ATOM     24  N   UNL     1       7.812   9.612  17.165  0.00  0.00    +0.000 NA
ATOM     25  C   UNL     1       7.647   8.275  17.342  0.00  0.00    +0.000 A 
ENDBRANCH  18  20
ENDBRANCH  17  18
ENDBRANCH  16  17
ENDBRANCH  11  16
BRANCH  13  26
ATOM     26  C   UNL     1       2.155   7.333  19.387  0.00  0.00    +0.000 C 
BRANCH  26  27
ATOM     27  C   UNL     1       1.382   8.527  18.902  0.00  0.00    +0.000 C 
ATOM     28  C   UNL     1       0.787   9.437  19.683  0.00  0.00    +0.000 C 
ATOM     29  C   UNL     1       0.907   9.654  21.081  0.00  0.00    +0.000 C 
ATOM     30  C   UNL     1       0.051  10.633  21.344  0.00  0.00    +0.000 C 
ATOM     31  O   UNL     1      -0.682  11.129  20.266  0.00  0.00    +0.000 OA
ATOM     32  C   UNL     1      -0.246  10.391  19.180  0.00  0.00    +0.000 C 
ATOM     33  O   UNL     1      -0.678  10.472  18.042  0.00  0.00    +0.000 OA
ENDBRANCH  26  27
ENDBRANCH  13  26
TORSDOF 7
ENDMDL
MODEL 9
REMARK VINA RESULT:      -6.9      1.513      1.925
REMARK  Name = 
REMARK  9 active torsions:
REMARK  status: ('A' for Active; 'I' for Inactive)
REMARK    1  A    between atoms: C_6  and  C_7
REMARK    2  A    between atoms: C_10  and  O_11
REMARK    3  A    between atoms: C_12  and  C_13
REMARK    4  A    between atoms: C_12  and  C_14
REMARK    5  A    between atoms: C_14  and  O_15
REMARK    6  A    between atoms: O_15  and  C_16
REMARK    7  A    between atoms: C_16  and  C_18
REMARK    8  A    between atoms: C_24  and  C_25
REMARK    9  A    between atoms: C_25  and  C_26
REMARK                            x       y       z     vdW  Elec       q    Type
REMARK                         _______ _______ _______ _____ _____    ______ ____
ROOT
ATOM      1  C   UNL     1       1.527   9.573  17.900  0.00  0.00    +0.000 C 
ATOM      2  C   UNL     1       0.403   9.780  18.611  0.00  0.00    +0.000 C 
ATOM      3  C   UNL     1      -0.766  10.526  18.002  0.00  0.00    +0.000 C 
ATOM      4  C   UNL     1      -1.203  11.773  18.808  0.00  0.00    +0.000 C 
ATOM      5  C   UNL     1      -1.362  11.494  20.318  0.00  0.00    +0.000 C 
ATOM      6  C   UNL     1      -0.103  10.756  20.900  0.00  0.00    +0.000 C 
ATOM      7  C   UNL     1       1.196  11.618  20.763  0.00  0.00    +0.000 C 
ATOM      8  C   UNL     1      -0.422  10.343  22.371  0.00  0.00    +0.000 C 
ATOM      9  C   UNL     1      -1.309  11.218  23.248  0.00  0.00    +0.000 C 
ATOM     10  C   UNL     1      -2.408  12.008  22.541  0.00  0.00    +0.000 C 
ATOM     11  C   UNL     1      -1.896  12.706  21.248  0.00  0.00    +0.000 C 
ATOM     12  C   UNL     1      -3.071  13.447  20.570  0.00  0.00    +0.000 C 
ATOM     13  C   UNL     1       0.211   9.403  20.082  0.00  0.00    +0.000 C 
ENDROOT
BRANCH  10  14
ATOM     14  O   UNL     1      -2.998  12.918  23.467  0.00  0.00    +0.000 OA
ATOM     15  H   UNL     1      -2.306  13.528  23.776  0.00  0.00    +0.000 HD
ENDBRANCH  10  14
BRANCH  11  16
ATOM     16  C   UNL     1      -0.841  13.794  21.630  0.00  0.00    +0.000 C 
BRANCH  16  17
ATOM     17  O   UNL     1      -0.527  14.743  20.580  0.00  0.00    +0.000 OA
BRANCH  17  18
ATOM     18  C   UNL     1       0.509  15.597  20.827  0.00  0.00    +0.000 C 
ATOM     19  O   UNL     1       0.466  16.596  21.529  0.00  0.00    +0.000 OA
BRANCH  18  20
ATOM     20  C   UNL     1       1.725  15.221  20.084  0.00  0.00    +0.000 A 
ATOM     21  C   UNL     1       3.019  15.348  20.597  0.00  0.00    +0.000 A 
ATOM     22  C   UNL     1       4.100  14.945  19.819  0.00  0.00    +0.000 A 
ATOM     23  C   UNL     1       3.854  14.432  18.555  0.00  0.00    +0.000 A 
ATOM     24  N   UNL     1       2.616  14.293  18.022  0.00  0.00    +0.000 NA
ATOM     25  C   UNL     1       1.579  14.695  18.803  0.00  0.00    +0.000 A 
ENDBRANCH  18  20
ENDBRANCH  17  18
ENDBRANCH  16  17
ENDBRANCH  11  16
BRANCH  13  26
ATOM     26  C   UNL     1       1.375   8.623  20.793  0.00  0.00    +0.000 C 
BRANCH  26  27
ATOM     27  C   UNL     1       1.386   7.124  20.900  0.00  0.00    +0.000 C 
ATOM     28  C   UNL     1       2.051   6.291  20.089  0.00  0.00    +0.000 C 
ATOM     29  C   UNL     1       3.051   6.571  19.121  0.00  0.00    +0.000 C 
ATOM     30  C   UNL     1       3.316   5.397  18.562  0.00  0.00    +0.000 C 
ATOM     31  O   UNL     1       2.587   4.304  19.031  0.00  0.00    +0.000 OA
ATOM     32  C   UNL     1       1.762   4.829  20.010  0.00  0.00    +0.000 C 
ATOM     33  O   UNL     1       0.917   4.212  20.638  0.00  0.00    +0.000 OA
ENDBRANCH  26  27
ENDBRANCH  13  26
TORSDOF 7
ENDMDL
