MODEL 1
REMARK VINA RESULT:      -6.8      0.000      0.000
REMARK  Name = 
REMARK  10 active torsions:
REMARK  status: ('A' for Active; 'I' for Inactive)
REMARK    1  A    between atoms: C_1  and  C_2
REMARK    2  A    between atoms: C_2  and  O_3
REMARK    3  A    between atoms: O_3  and  C_4
REMARK    4  A    between atoms: C_4  and  C_6
REMARK    5  A    between atoms: C_10  and  C_12
REMARK    6  A    between atoms: C_12  and  N_13
REMARK    7  A    between atoms: N_16  and  C_17
REMARK    8  A    between atoms: C_20  and  O_21
REMARK    9  A    between atoms: O_21  and  C_22
REMARK   10  A    between atoms: C_28  and  C_29
REMARK                            x       y       z     vdW  Elec       q    Type
REMARK                         _______ _______ _______ _____ _____    ______ ____
ROOT
ATOM      1  C   UNL     1       4.099   5.333  18.068  0.00  0.00    +0.000 A 
ATOM      2  S   UNL     1       3.753   6.975  17.720  0.00  0.00    +0.000 S 
ATOM      3  C   UNL     1       2.588   7.006  18.957  0.00  0.00    +0.000 A 
ATOM      4  N   UNL     1       1.874   8.140  19.255  0.00  0.00    +0.000 N 
ATOM      5  C   UNL     1       1.753   9.258  18.456  0.00  0.00    +0.000 C 
ATOM      6  O   UNL     1       2.197   9.406  17.320  0.00  0.00    +0.000 OA
ATOM      7  N   UNL     1       2.462   5.897  19.646  0.00  0.00    +0.000 NA
ATOM      8  C   UNL     1       3.292   4.909  19.116  0.00  0.00    +0.000 A 
ATOM      9  C   UNL     1       3.219   3.541  19.703  0.00  0.00    +0.000 C 
ATOM     10  H   UNL     1       1.362   8.106  20.125  0.00  0.00    +0.000 HD
ENDROOT
BRANCH   1  11
ATOM     11  C   UNL     1       5.065   4.638  17.252  0.00  0.00    +0.000 C 
ATOM     12  O   UNL     1       4.923   4.316  16.075  0.00  0.00    +0.000 OA
BRANCH  11  13
ATOM     13  O   UNL     1       6.154   4.302  17.998  0.00  0.00    +0.000 OA
BRANCH  13  15
ATOM     14  C   UNL     1       7.520   6.238  17.739  0.00  0.00    +0.000 C 
ATOM     15  C   UNL     1       7.418   4.745  17.484  0.00  0.00    +0.000 C 
ENDBRANCH  13  15
ENDBRANCH  11  13
ENDBRANCH   1  11
BRANCH   5  16
ATOM     16  C   UNL     1       0.938  10.383  19.103  0.00  0.00    +0.000 C 
BRANCH  16  17
ATOM     17  N   UNL     1      -0.353   9.886  19.631  0.00  0.00    +0.000 NA
ATOM     18  C   UNL     1      -0.423  10.000  21.116  0.00  0.00    +0.000 C 
ATOM     19  C   UNL     1      -0.425  11.444  21.663  0.00  0.00    +0.000 C 
ATOM     20  N   UNL     1      -1.500  12.225  21.035  0.00  0.00    +0.000 N 
ATOM     21  C   UNL     1      -1.585  12.162  19.572  0.00  0.00    +0.000 C 
ATOM     22  C   UNL     1      -1.477  10.691  19.078  0.00  0.00    +0.000 C 
BRANCH  20  23
ATOM     23  C   UNL     1      -2.512  12.801  21.781  0.00  0.00    +0.000 A 
ATOM     24  C   UNL     1      -3.187  13.945  21.329  0.00  0.00    +0.000 A 
ATOM     25  C   UNL     1      -4.202  14.547  22.085  0.00  0.00    +0.000 A 
ATOM     26  C   UNL     1      -4.591  14.003  23.304  0.00  0.00    +0.000 A 
ATOM     27  C   UNL     1      -3.931  12.878  23.782  0.00  0.00    +0.000 A 
ATOM     28  C   UNL     1      -2.906  12.291  23.026  0.00  0.00    +0.000 A 
BRANCH  26  29
ATOM     29  O   UNL     1      -5.589  14.670  23.961  0.00  0.00    +0.000 OA
ATOM     30  C   UNL     1      -6.524  15.338  23.122  0.00  0.00    +0.000 C 
ENDBRANCH  26  29
ENDBRANCH  20  23
ENDBRANCH  16  17
ENDBRANCH   5  16
TORSDOF 7
ENDMDL
MODEL 2
REMARK VINA RESULT:      -6.6      1.685      2.385
REMARK  Name = 
REMARK  10 active torsions:
REMARK  status: ('A' for Active; 'I' for Inactive)
REMARK    1  A    between atoms: C_1  and  C_2
REMARK    2  A    between atoms: C_2  and  O_3
REMARK    3  A    between atoms: O_3  and  C_4
REMARK    4  A    between atoms: C_4  and  C_6
REMARK    5  A    between atoms: C_10  and  C_12
REMARK    6  A    between atoms: C_12  and  N_13
REMARK    7  A    between atoms: N_16  and  C_17
REMARK    8  A    between atoms: C_20  and  O_21
REMARK    9  A    between atoms: O_21  and  C_22
REMARK   10  A    between atoms: C_28  and  C_29
REMARK                            x       y       z     vdW  Elec       q    Type
REMARK                         _______ _______ _______ _____ _____    ______ ____
ROOT
ATOM      1  C   UNL     1       3.473   4.761  19.527  0.00  0.00    +0.000 A 
ATOM      2  S   UNL     1       3.462   6.235  18.652  0.00  0.00    +0.000 S 
ATOM      3  C   UNL     1       2.250   6.848  19.672  0.00  0.00    +0.000 A 
ATOM      4  N   UNL     1       1.744   8.116  19.520  0.00  0.00    +0.000 N 
ATOM      5  C   UNL     1       1.884   8.918  18.407  0.00  0.00    +0.000 C 
ATOM      6  O   UNL     1       2.417   8.618  17.342  0.00  0.00    +0.000 OA
ATOM      7  N   UNL     1       1.877   6.057  20.650  0.00  0.00    +0.000 NA
ATOM      8  C   UNL     1       2.539   4.833  20.552  0.00  0.00    +0.000 A 
ATOM      9  C   UNL     1       2.175   3.759  21.519  0.00  0.00    +0.000 C 
ATOM     10  H   UNL     1       1.183   8.447  20.292  0.00  0.00    +0.000 HD
ENDROOT
BRANCH   1  11
ATOM     11  C   UNL     1       4.340   3.696  19.084  0.00  0.00    +0.000 C 
ATOM     12  O   UNL     1       5.344   3.289  19.663  0.00  0.00    +0.000 OA
BRANCH  11  13
ATOM     13  O   UNL     1       3.938   3.240  17.865  0.00  0.00    +0.000 OA
BRANCH  13  15
ATOM     14  C   UNL     1       1.892   2.070  18.223  0.00  0.00    +0.000 C 
ATOM     15  C   UNL     1       3.358   1.928  17.855  0.00  0.00    +0.000 C 
ENDBRANCH  13  15
ENDBRANCH  11  13
ENDBRANCH   1  11
BRANCH   5  16
ATOM     16  C   UNL     1       1.256  10.306  18.576  0.00  0.00    +0.000 C 
BRANCH  16  17
ATOM     17  N   UNL     1      -0.199  10.218  18.838  0.00  0.00    +0.000 NA
ATOM     18  C   UNL     1      -0.488  10.050  20.291  0.00  0.00    +0.000 C 
ATOM     19  C   UNL     1      -0.109  11.255  21.179  0.00  0.00    +0.000 C 
ATOM     20  N   UNL     1      -0.735  12.483  20.666  0.00  0.00    +0.000 N 
ATOM     21  C   UNL     1      -0.575  12.748  19.233  0.00  0.00    +0.000 C 
ATOM     22  C   UNL     1      -0.876  11.470  18.399  0.00  0.00    +0.000 C 
BRANCH  20  23
ATOM     23  C   UNL     1      -1.614  13.226  21.433  0.00  0.00    +0.000 A 
ATOM     24  C   UNL     1      -1.870  12.893  22.771  0.00  0.00    +0.000 A 
ATOM     25  C   UNL     1      -2.772  13.629  23.553  0.00  0.00    +0.000 A 
ATOM     26  C   UNL     1      -3.423  14.737  23.023  0.00  0.00    +0.000 A 
ATOM     27  C   UNL     1      -3.199  15.081  21.696  0.00  0.00    +0.000 A 
ATOM     28  C   UNL     1      -2.306  14.330  20.917  0.00  0.00    +0.000 A 
BRANCH  26  29
ATOM     29  O   UNL     1      -4.283  15.381  23.869  0.00  0.00    +0.000 OA
ATOM     30  C   UNL     1      -3.662  16.150  24.893  0.00  0.00    +0.000 C 
ENDBRANCH  26  29
ENDBRANCH  20  23
ENDBRANCH  16  17
ENDBRANCH   5  16
TORSDOF 7
ENDMDL
MODEL 3
REMARK VINA RESULT:      -6.6      1.194      1.697
REMARK  Name = 
REMARK  10 active torsions:
REMARK  status: ('A' for Active; 'I' for Inactive)
REMARK    1  A    between atoms: C_1  and  C_2
REMARK    2  A    between atoms: C_2  and  O_3
REMARK    3  A    between atoms: O_3  and  C_4
REMARK    4  A    between atoms: C_4  and  C_6
REMARK    5  A    between atoms: C_10  and  C_12
REMARK    6  A    between atoms: C_12  and  N_13
REMARK    7  A    between atoms: N_16  and  C_17
REMARK    8  A    between atoms: C_20  and  O_21
REMARK    9  A    between atoms: O_21  and  C_22
REMARK   10  A    between atoms: C_28  and  C_29
REMARK                            x       y       z     vdW  Elec       q    Type
REMARK                         _______ _______ _______ _____ _____    ______ ____
ROOT
ATOM      1  C   UNL     1       3.230   5.027  18.656  0.00  0.00    +0.000 A 
ATOM      2  S   UNL     1       3.181   6.601  17.982  0.00  0.00    +0.000 S 
ATOM      3  C   UNL     1       2.296   7.162  19.319  0.00  0.00    +0.000 A 
ATOM      4  N   UNL     1       1.904   8.473  19.434  0.00  0.00    +0.000 N 
ATOM      5  C   UNL     1       1.878   9.406  18.418  0.00  0.00    +0.000 C 
ATOM      6  O   UNL     1       2.127   9.212  17.231  0.00  0.00    +0.000 OA
ATOM      7  N   UNL     1       2.067   6.277  20.260  0.00  0.00    +0.000 NA
ATOM      8  C   UNL     1       2.559   5.031  19.872  0.00  0.00    +0.000 A 
ATOM      9  C   UNL     1       2.307   3.867  20.769  0.00  0.00    +0.000 C 
ATOM     10  H   UNL     1       1.566   8.739  20.348  0.00  0.00    +0.000 HD
ENDROOT
BRANCH   1  11
ATOM     11  C   UNL     1       3.862   3.968  17.906  0.00  0.00    +0.000 C 
ATOM     12  O   UNL     1       4.046   2.816  18.291  0.00  0.00    +0.000 OA
BRANCH  11  13
ATOM     13  O   UNL     1       4.315   4.445  16.713  0.00  0.00    +0.000 OA
BRANCH  13  15
ATOM     14  C   UNL     1       6.673   4.624  16.410  0.00  0.00    +0.000 C 
ATOM     15  C   UNL     1       5.448   3.760  16.163  0.00  0.00    +0.000 C 
ENDBRANCH  13  15
ENDBRANCH  11  13
ENDBRANCH   1  11
BRANCH   5  16
ATOM     16  C   UNL     1       1.451  10.802  18.885  0.00  0.00    +0.000 C 
BRANCH  16  17
ATOM     17  N   UNL     1       0.060  11.110  18.483  0.00  0.00    +0.000 NA
ATOM     18  C   UNL     1      -0.926  10.272  19.223  0.00  0.00    +0.000 C 
ATOM     19  C   UNL     1      -1.001  10.536  20.743  0.00  0.00    +0.000 C 
ATOM     20  N   UNL     1      -1.240  11.964  21.001  0.00  0.00    +0.000 N 
ATOM     21  C   UNL     1      -0.372  12.910  20.292  0.00  0.00    +0.000 C 
ATOM     22  C   UNL     1      -0.259  12.532  18.788  0.00  0.00    +0.000 C 
BRANCH  20  23
ATOM     23  C   UNL     1      -2.358  12.402  21.687  0.00  0.00    +0.000 A 
ATOM     24  C   UNL     1      -2.499  12.177  23.064  0.00  0.00    +0.000 A 
ATOM     25  C   UNL     1      -3.635  12.602  23.767  0.00  0.00    +0.000 A 
ATOM     26  C   UNL     1      -4.652  13.290  23.114  0.00  0.00    +0.000 A 
ATOM     27  C   UNL     1      -4.545  13.514  21.747  0.00  0.00    +0.000 A 
ATOM     28  C   UNL     1      -3.411  13.072  21.049  0.00  0.00    +0.000 A 
BRANCH  26  29
ATOM     29  O   UNL     1      -5.716  13.656  23.891  0.00  0.00    +0.000 OA
ATOM     30  C   UNL     1      -6.678  12.632  24.122  0.00  0.00    +0.000 C 
ENDBRANCH  26  29
ENDBRANCH  20  23
ENDBRANCH  16  17
ENDBRANCH   5  16
TORSDOF 7
ENDMDL
MODEL 4
REMARK VINA RESULT:      -6.6      1.983      2.504
REMARK  Name = 
REMARK  10 active torsions:
REMARK  status: ('A' for Active; 'I' for Inactive)
REMARK    1  A    between atoms: C_1  and  C_2
REMARK    2  A    between atoms: C_2  and  O_3
REMARK    3  A    between atoms: O_3  and  C_4
REMARK    4  A    between atoms: C_4  and  C_6
REMARK    5  A    between atoms: C_10  and  C_12
REMARK    6  A    between atoms: C_12  and  N_13
REMARK    7  A    between atoms: N_16  and  C_17
REMARK    8  A    between atoms: C_20  and  O_21
REMARK    9  A    between atoms: O_21  and  C_22
REMARK   10  A    between atoms: C_28  and  C_29
REMARK                            x       y       z     vdW  Elec       q    Type
REMARK                         _______ _______ _______ _____ _____    ______ ____
ROOT
ATOM      1  C   UNL     1       4.077   5.462  18.035  0.00  0.00    +0.000 A 
ATOM      2  S   UNL     1       2.968   5.836  19.288  0.00  0.00    +0.000 S 
ATOM      3  C   UNL     1       2.720   7.381  18.626  0.00  0.00    +0.000 A 
ATOM      4  N   UNL     1       1.848   8.281  19.188  0.00  0.00    +0.000 N 
ATOM      5  C   UNL     1       1.319   8.215  20.460  0.00  0.00    +0.000 C 
ATOM      6  O   UNL     1       1.587   7.390  21.330  0.00  0.00    +0.000 OA
ATOM      7  N   UNL     1       3.366   7.632  17.513  0.00  0.00    +0.000 NA
ATOM      8  C   UNL     1       4.188   6.554  17.185  0.00  0.00    +0.000 A 
ATOM      9  C   UNL     1       5.081   6.688  15.999  0.00  0.00    +0.000 C 
ATOM     10  H   UNL     1       1.628   9.080  18.610  0.00  0.00    +0.000 HD
ENDROOT
BRANCH   1  11
ATOM     11  C   UNL     1       4.745   4.183  18.057  0.00  0.00    +0.000 C 
ATOM     12  O   UNL     1       4.476   3.212  17.354  0.00  0.00    +0.000 OA
BRANCH  11  13
ATOM     13  O   UNL     1       5.685   4.163  19.043  0.00  0.00    +0.000 OA
BRANCH  13  15
ATOM     14  C   UNL     1       7.671   4.654  17.821  0.00  0.00    +0.000 C 
ATOM     15  C   UNL     1       6.735   5.131  18.917  0.00  0.00    +0.000 C 
ENDBRANCH  13  15
ENDBRANCH  11  13
ENDBRANCH   1  11
BRANCH   5  16
ATOM     16  C   UNL     1       0.324   9.341  20.764  0.00  0.00    +0.000 C 
BRANCH  16  17
ATOM     17  N   UNL     1       0.853  10.276  21.782  0.00  0.00    +0.000 NA
ATOM     18  C   UNL     1       0.743  11.695  21.339  0.00  0.00    +0.000 C 
ATOM     19  C   UNL     1      -0.700  12.223  21.186  0.00  0.00    +0.000 C 
ATOM     20  N   UNL     1      -1.455  12.011  22.429  0.00  0.00    +0.000 N 
ATOM     21  C   UNL     1      -1.392  10.666  23.011  0.00  0.00    +0.000 C 
ATOM     22  C   UNL     1       0.076  10.151  23.046  0.00  0.00    +0.000 C 
BRANCH  20  23
ATOM     23  C   UNL     1      -2.005  13.065  23.136  0.00  0.00    +0.000 A 
ATOM     24  C   UNL     1      -1.218  14.147  23.557  0.00  0.00    +0.000 A 
ATOM     25  C   UNL     1      -1.761  15.212  24.287  0.00  0.00    +0.000 A 
ATOM     26  C   UNL     1      -3.117  15.239  24.594  0.00  0.00    +0.000 A 
ATOM     27  C   UNL     1      -3.918  14.173  24.201  0.00  0.00    +0.000 A 
ATOM     28  C   UNL     1      -3.363  13.104  23.483  0.00  0.00    +0.000 A 
BRANCH  26  29
ATOM     29  O   UNL     1      -3.542  16.322  25.313  0.00  0.00    +0.000 OA
ATOM     30  C   UNL     1      -4.799  16.857  24.913  0.00  0.00    +0.000 C 
ENDBRANCH  26  29
ENDBRANCH  20  23
ENDBRANCH  16  17
ENDBRANCH   5  16
TORSDOF 7
ENDMDL
MODEL 5
REMARK VINA RESULT:      -6.6      1.382      1.602
REMARK  Name = 
REMARK  10 active torsions:
REMARK  status: ('A' for Active; 'I' for Inactive)
REMARK    1  A    between atoms: C_1  and  C_2
REMARK    2  A    between atoms: C_2  and  O_3
REMARK    3  A    between atoms: O_3  and  C_4
REMARK    4  A    between atoms: C_4  and  C_6
REMARK    5  A    between atoms: C_10  and  C_12
REMARK    6  A    between atoms: C_12  and  N_13
REMARK    7  A    between atoms: N_16  and  C_17
REMARK    8  A    between atoms: C_20  and  O_21
REMARK    9  A    between atoms: O_21  and  C_22
REMARK   10  A    between atoms: C_28  and  C_29
REMARK                            x       y       z     vdW  Elec       q    Type
REMARK                         _______ _______ _______ _____ _____    ______ ____
ROOT
ATOM      1  C   UNL     1       3.632   4.833  19.243  0.00  0.00    +0.000 A 
ATOM      2  S   UNL     1       3.514   6.375  18.503  0.00  0.00    +0.000 S 
ATOM      3  C   UNL     1       2.294   6.823  19.598  0.00  0.00    +0.000 A 
ATOM      4  N   UNL     1       1.712   8.066  19.569  0.00  0.00    +0.000 N 
ATOM      5  C   UNL     1       1.777   8.970  18.530  0.00  0.00    +0.000 C 
ATOM      6  O   UNL     1       2.299   8.797  17.432  0.00  0.00    +0.000 OA
ATOM      7  N   UNL     1       1.992   5.927  20.508  0.00  0.00    +0.000 NA
ATOM      8  C   UNL     1       2.721   4.759  20.288  0.00  0.00    +0.000 A 
ATOM      9  C   UNL     1       2.444   3.584  21.163  0.00  0.00    +0.000 C 
ATOM     10  H   UNL     1       1.152   8.293  20.378  0.00  0.00    +0.000 HD
ENDROOT
BRANCH   1  11
ATOM     11  C   UNL     1       4.549   3.866  18.690  0.00  0.00    +0.000 C 
ATOM     12  O   UNL     1       4.249   2.893  18.001  0.00  0.00    +0.000 OA
BRANCH  11  13
ATOM     13  O   UNL     1       5.817   4.128  19.110  0.00  0.00    +0.000 OA
BRANCH  13  15
ATOM     14  C   UNL     1       7.594   5.684  18.790  0.00  0.00    +0.000 C 
ATOM     15  C   UNL     1       6.702   4.658  18.114  0.00  0.00    +0.000 C 
ENDBRANCH  13  15
ENDBRANCH  11  13
ENDBRANCH   1  11
BRANCH   5  16
ATOM     16  C   UNL     1       1.073  10.297  18.834  0.00  0.00    +0.000 C 
BRANCH  16  17
ATOM     17  N   UNL     1      -0.220  10.084  19.522  0.00  0.00    +0.000 NA
ATOM     18  C   UNL     1      -0.249  10.742  20.860  0.00  0.00    +0.000 C 
ATOM     19  C   UNL     1      -0.190  12.285  20.832  0.00  0.00    +0.000 C 
ATOM     20  N   UNL     1      -1.254  12.820  19.970  0.00  0.00    +0.000 N 
ATOM     21  C   UNL     1      -1.376  12.224  18.636  0.00  0.00    +0.000 C 
ATOM     22  C   UNL     1      -1.330  10.671  18.722  0.00  0.00    +0.000 C 
BRANCH  20  23
ATOM     23  C   UNL     1      -2.227  13.672  20.460  0.00  0.00    +0.000 A 
ATOM     24  C   UNL     1      -3.529  13.217  20.714  0.00  0.00    +0.000 A 
ATOM     25  C   UNL     1      -4.529  14.074  21.194  0.00  0.00    +0.000 A 
ATOM     26  C   UNL     1      -4.244  15.408  21.461  0.00  0.00    +0.000 A 
ATOM     27  C   UNL     1      -2.965  15.890  21.206  0.00  0.00    +0.000 A 
ATOM     28  C   UNL     1      -1.976  15.028  20.711  0.00  0.00    +0.000 A 
BRANCH  26  29
ATOM     29  O   UNL     1      -5.290  16.158  21.924  0.00  0.00    +0.000 OA
ATOM     30  C   UNL     1      -6.122  15.512  22.880  0.00  0.00    +0.000 C 
ENDBRANCH  26  29
ENDBRANCH  20  23
ENDBRANCH  16  17
ENDBRANCH   5  16
TORSDOF 7
ENDMDL
MODEL 6
REMARK VINA RESULT:      -6.5      1.413      2.180
REMARK  Name = 
REMARK  10 active torsions:
REMARK  status: ('A' for Active; 'I' for Inactive)
REMARK    1  A    between atoms: C_1  and  C_2
REMARK    2  A    between atoms: C_2  and  O_3
REMARK    3  A    between atoms: O_3  and  C_4
REMARK    4  A    between atoms: C_4  and  C_6
REMARK    5  A    between atoms: C_10  and  C_12
REMARK    6  A    between atoms: C_12  and  N_13
REMARK    7  A    between atoms: N_16  and  C_17
REMARK    8  A    between atoms: C_20  and  O_21
REMARK    9  A    between atoms: O_21  and  C_22
REMARK   10  A    between atoms: C_28  and  C_29
REMARK                            x       y       z     vdW  Elec       q    Type
REMARK                         _______ _______ _______ _____ _____    ______ ____
ROOT
ATOM      1  C   UNL     1       5.040   5.143  17.886  0.00  0.00    +0.000 A 
ATOM      2  S   UNL     1       4.515   6.761  17.674  0.00  0.00    +0.000 S 
ATOM      3  C   UNL     1       3.011   6.380  18.367  0.00  0.00    +0.000 A 
ATOM      4  N   UNL     1       2.027   7.322  18.532  0.00  0.00    +0.000 N 
ATOM      5  C   UNL     1       1.971   8.556  17.918  0.00  0.00    +0.000 C 
ATOM      6  O   UNL     1       2.744   8.994  17.069  0.00  0.00    +0.000 OA
ATOM      7  N   UNL     1       2.878   5.145  18.789  0.00  0.00    +0.000 NA
ATOM      8  C   UNL     1       4.021   4.408  18.477  0.00  0.00    +0.000 A 
ATOM      9  C   UNL     1       4.022   2.950  18.788  0.00  0.00    +0.000 C 
ATOM     10  H   UNL     1       1.262   7.040  19.129  0.00  0.00    +0.000 HD
ENDROOT
BRANCH   1  11
ATOM     11  C   UNL     1       6.348   4.768  17.406  0.00  0.00    +0.000 C 
ATOM     12  O   UNL     1       7.290   4.382  18.094  0.00  0.00    +0.000 OA
BRANCH  11  13
ATOM     13  O   UNL     1       6.433   4.981  16.063  0.00  0.00    +0.000 OA
BRANCH  13  15
ATOM     14  C   UNL     1       6.331   4.011  13.888  0.00  0.00    +0.000 C 
ATOM     15  C   UNL     1       5.654   4.098  15.245  0.00  0.00    +0.000 C 
ENDBRANCH  13  15
ENDBRANCH  11  13
ENDBRANCH   1  11
BRANCH   5  16
ATOM     16  C   UNL     1       0.774   9.403  18.363  0.00  0.00    +0.000 C 
BRANCH  16  17
ATOM     17  N   UNL     1       1.193  10.526  19.232  0.00  0.00    +0.000 NA
ATOM     18  C   UNL     1       0.466  11.784  18.897  0.00  0.00    +0.000 C 
ATOM     19  C   UNL     1      -1.053  11.756  19.176  0.00  0.00    +0.000 C 
ATOM     20  N   UNL     1      -1.308  11.367  20.571  0.00  0.00    +0.000 N 
ATOM     21  C   UNL     1      -0.611  10.171  21.054  0.00  0.00    +0.000 C 
ATOM     22  C   UNL     1       0.892  10.212  20.656  0.00  0.00    +0.000 C 
BRANCH  20  23
ATOM     23  C   UNL     1      -1.980  12.200  21.447  0.00  0.00    +0.000 A 
ATOM     24  C   UNL     1      -1.800  12.093  22.834  0.00  0.00    +0.000 A 
ATOM     25  C   UNL     1      -2.489  12.921  23.732  0.00  0.00    +0.000 A 
ATOM     26  C   UNL     1      -3.358  13.900  23.264  0.00  0.00    +0.000 A 
ATOM     27  C   UNL     1      -3.566  14.019  21.895  0.00  0.00    +0.000 A 
ATOM     28  C   UNL     1      -2.884  13.177  21.005  0.00  0.00    +0.000 A 
BRANCH  26  29
ATOM     29  O   UNL     1      -3.980  14.650  24.223  0.00  0.00    +0.000 OA
ATOM     30  C   UNL     1      -3.109  15.358  25.098  0.00  0.00    +0.000 C 
ENDBRANCH  26  29
ENDBRANCH  20  23
ENDBRANCH  16  17
ENDBRANCH   5  16
TORSDOF 7
ENDMDL
MODEL 7
REMARK VINA RESULT:      -6.5      1.413      1.787
REMARK  Name = 
REMARK  10 active torsions:
REMARK  status: ('A' for Active; 'I' for Inactive)
REMARK    1  A    between atoms: C_1  and  C_2
REMARK    2  A    between atoms: C_2  and  O_3
REMARK    3  A    between atoms: O_3  and  C_4
REMARK    4  A    between atoms: C_4  and  C_6
REMARK    5  A    between atoms: C_10  and  C_12
REMARK    6  A    between atoms: C_12  and  N_13
REMARK    7  A    between atoms: N_16  and  C_17
REMARK    8  A    between atoms: C_20  and  O_21
REMARK    9  A    between atoms: O_21  and  C_22
REMARK   10  A    between atoms: C_28  and  C_29
REMARK                            x       y       z     vdW  Elec       q    Type
REMARK                         _______ _______ _______ _____ _____    ______ ____
ROOT
ATOM      1  C   UNL     1       4.396   5.396  17.529  0.00  0.00    +0.000 A 
ATOM      2  S   UNL     1       3.995   7.062  17.551  0.00  0.00    +0.000 S 
ATOM      3  C   UNL     1       2.491   6.706  18.256  0.00  0.00    +0.000 A 
ATOM      4  N   UNL     1       1.592   7.689  18.586  0.00  0.00    +0.000 N 
ATOM      5  C   UNL     1       1.613   8.994  18.138  0.00  0.00    +0.000 C 
ATOM      6  O   UNL     1       2.388   9.481  17.319  0.00  0.00    +0.000 OA
ATOM      7  N   UNL     1       2.275   5.439  18.522  0.00  0.00    +0.000 NA
ATOM      8  C   UNL     1       3.343   4.667  18.066  0.00  0.00    +0.000 A 
ATOM      9  C   UNL     1       3.239   3.185  18.187  0.00  0.00    +0.000 C 
ATOM     10  H   UNL     1       0.828   7.389  19.175  0.00  0.00    +0.000 HD
ENDROOT
BRANCH   1  11
ATOM     11  C   UNL     1       5.652   4.990  16.946  0.00  0.00    +0.000 C 
ATOM     12  O   UNL     1       5.925   4.973  15.748  0.00  0.00    +0.000 OA
BRANCH  11  13
ATOM     13  O   UNL     1       6.495   4.537  17.917  0.00  0.00    +0.000 OA
BRANCH  13  15
ATOM     14  C   UNL     1       7.931   6.208  18.825  0.00  0.00    +0.000 C 
ATOM     15  C   UNL     1       6.661   5.405  19.046  0.00  0.00    +0.000 C 
ENDBRANCH  13  15
ENDBRANCH  11  13
ENDBRANCH   1  11
BRANCH   5  16
ATOM     16  C   UNL     1       0.504   9.862  18.742  0.00  0.00    +0.000 C 
BRANCH  16  17
ATOM     17  N   UNL     1       1.059  10.978  19.540  0.00  0.00    +0.000 NA
ATOM     18  C   UNL     1       0.269  12.230  19.362  0.00  0.00    +0.000 C 
ATOM     19  C   UNL     1      -1.175  12.177  19.907  0.00  0.00    +0.000 C 
ATOM     20  N   UNL     1      -1.172  11.766  21.318  0.00  0.00    +0.000 N 
ATOM     21  C   UNL     1      -0.387  10.573  21.649  0.00  0.00    +0.000 C 
ATOM     22  C   UNL     1       1.021  10.640  20.990  0.00  0.00    +0.000 C 
BRANCH  20  23
ATOM     23  C   UNL     1      -1.687  12.577  22.313  0.00  0.00    +0.000 A 
ATOM     24  C   UNL     1      -0.938  13.637  22.846  0.00  0.00    +0.000 A 
ATOM     25  C   UNL     1      -1.443  14.454  23.866  0.00  0.00    +0.000 A 
ATOM     26  C   UNL     1      -2.725  14.251  24.364  0.00  0.00    +0.000 A 
ATOM     27  C   UNL     1      -3.484  13.199  23.865  0.00  0.00    +0.000 A 
ATOM     28  C   UNL     1      -2.965  12.377  22.854  0.00  0.00    +0.000 A 
BRANCH  26  29
ATOM     29  O   UNL     1      -3.118  15.102  25.360  0.00  0.00    +0.000 OA
ATOM     30  C   UNL     1      -3.925  16.195  24.937  0.00  0.00    +0.000 C 
ENDBRANCH  26  29
ENDBRANCH  20  23
ENDBRANCH  16  17
ENDBRANCH   5  16
TORSDOF 7
ENDMDL
MODEL 8
REMARK VINA RESULT:      -6.5      2.004      2.586
REMARK  Name = 
REMARK  10 active torsions:
REMARK  status: ('A' for Active; 'I' for Inactive)
REMARK    1  A    between atoms: C_1  and  C_2
REMARK    2  A    between atoms: C_2  and  O_3
REMARK    3  A    between atoms: O_3  and  C_4
REMARK    4  A    between atoms: C_4  and  C_6
REMARK    5  A    between atoms: C_10  and  C_12
REMARK    6  A    between atoms: C_12  and  N_13
REMARK    7  A    between atoms: N_16  and  C_17
REMARK    8  A    between atoms: C_20  and  O_21
REMARK    9  A    between atoms: O_21  and  C_22
REMARK   10  A    between atoms: C_28  and  C_29
REMARK                            x       y       z     vdW  Elec       q    Type
REMARK                         _______ _______ _______ _____ _____    ______ ____
ROOT
ATOM      1  C   UNL     1       4.475   5.380  17.039  0.00  0.00    +0.000 A 
ATOM      2  S   UNL     1       3.861   6.851  17.668  0.00  0.00    +0.000 S 
ATOM      3  C   UNL     1       2.884   5.993  18.761  0.00  0.00    +0.000 A 
ATOM      4  N   UNL     1       2.068   6.630  19.663  0.00  0.00    +0.000 N 
ATOM      5  C   UNL     1       1.686   7.954  19.618  0.00  0.00    +0.000 C 
ATOM      6  O   UNL     1       1.945   8.769  18.736  0.00  0.00    +0.000 OA
ATOM      7  N   UNL     1       3.008   4.687  18.728  0.00  0.00    +0.000 NA
ATOM      8  C   UNL     1       3.886   4.317  17.710  0.00  0.00    +0.000 A 
ATOM      9  C   UNL     1       4.083   2.862  17.448  0.00  0.00    +0.000 C 
ATOM     10  H   UNL     1       1.690   6.038  20.389  0.00  0.00    +0.000 HD
ENDROOT
BRANCH   1  11
ATOM     11  C   UNL     1       5.406   5.430  15.938  0.00  0.00    +0.000 C 
ATOM     12  O   UNL     1       6.121   6.382  15.634  0.00  0.00    +0.000 OA
BRANCH  11  13
ATOM     13  O   UNL     1       5.330   4.282  15.207  0.00  0.00    +0.000 OA
BRANCH  13  15
ATOM     14  C   UNL     1       5.698   3.690  12.927  0.00  0.00    +0.000 C 
ATOM     15  C   UNL     1       6.364   4.101  14.229  0.00  0.00    +0.000 C 
ENDBRANCH  13  15
ENDBRANCH  11  13
ENDBRANCH   1  11
BRANCH   5  16
ATOM     16  C   UNL     1       0.820   8.378  20.810  0.00  0.00    +0.000 C 
BRANCH  16  17
ATOM     17  N   UNL     1       1.326   9.619  21.439  0.00  0.00    +0.000 NA
ATOM     18  C   UNL     1       0.766  10.836  20.786  0.00  0.00    +0.000 C 
ATOM     19  C   UNL     1      -0.756  11.029  20.956  0.00  0.00    +0.000 C 
ATOM     20  N   UNL     1      -1.119  10.994  22.380  0.00  0.00    +0.000 N 
ATOM     21  C   UNL     1      -0.589   9.873  23.162  0.00  0.00    +0.000 C 
ATOM     22  C   UNL     1       0.926   9.667  22.872  0.00  0.00    +0.000 C 
BRANCH  20  23
ATOM     23  C   UNL     1      -1.730  12.068  23.002  0.00  0.00    +0.000 A 
ATOM     24  C   UNL     1      -1.057  13.286  23.174  0.00  0.00    +0.000 A 
ATOM     25  C   UNL     1      -1.659  14.376  23.817  0.00  0.00    +0.000 A 
ATOM     26  C   UNL     1      -2.966  14.285  24.283  0.00  0.00    +0.000 A 
ATOM     27  C   UNL     1      -3.652  13.085  24.139  0.00  0.00    +0.000 A 
ATOM     28  C   UNL     1      -3.035  11.995  23.507  0.00  0.00    +0.000 A 
BRANCH  26  29
ATOM     29  O   UNL     1      -3.457  15.404  24.898  0.00  0.00    +0.000 OA
ATOM     30  C   UNL     1      -2.634  16.560  24.798  0.00  0.00    +0.000 C 
ENDBRANCH  26  29
ENDBRANCH  20  23
ENDBRANCH  16  17
ENDBRANCH   5  16
TORSDOF 7
ENDMDL
MODEL 9
REMARK VINA RESULT:      -6.5      0.709      1.134
REMARK  Name = 
REMARK  10 active torsions:
REMARK  status: ('A' for Active; 'I' for Inactive)
REMARK    1  A    between atoms: C_1  and  C_2
REMARK    2  A    between atoms: C_2  and  O_3
REMARK    3  A    between atoms: O_3  and  C_4
REMARK    4  A    between atoms: C_4  and  C_6
REMARK    5  A    between atoms: C_10  and  C_12
REMARK    6  A    between atoms: C_12  and  N_13
REMARK    7  A    between atoms: N_16  and  C_17
REMARK    8  A    between atoms: C_20  and  O_21
REMARK    9  A    between atoms: O_21  and  C_22
REMARK   10  A    between atoms: C_28  and  C_29
REMARK                            x       y       z     vdW  Elec       q    Type
REMARK                         _______ _______ _______ _____ _____    ______ ____
ROOT
ATOM      1  C   UNL     1       4.046   5.438  17.372  0.00  0.00    +0.000 A 
ATOM      2  S   UNL     1       3.784   7.130  17.311  0.00  0.00    +0.000 S 
ATOM      3  C   UNL     1       2.533   6.992  18.452  0.00  0.00    +0.000 A 
ATOM      4  N   UNL     1       1.838   8.086  18.906  0.00  0.00    +0.000 N 
ATOM      5  C   UNL     1       1.816   9.335  18.321  0.00  0.00    +0.000 C 
ATOM      6  O   UNL     1       2.347   9.665  17.264  0.00  0.00    +0.000 OA
ATOM      7  N   UNL     1       2.318   5.783  18.915  0.00  0.00    +0.000 NA
ATOM      8  C   UNL     1       3.151   4.870  18.269  0.00  0.00    +0.000 A 
ATOM      9  C   UNL     1       2.986   3.423  18.588  0.00  0.00    +0.000 C 
ATOM     10  H   UNL     1       1.263   7.919  19.720  0.00  0.00    +0.000 HD
ENDROOT
BRANCH   1  11
ATOM     11  C   UNL     1       5.046   4.857  16.508  0.00  0.00    +0.000 C 
ATOM     12  O   UNL     1       5.144   3.670  16.206  0.00  0.00    +0.000 OA
BRANCH  11  13
ATOM     13  O   UNL     1       5.942   5.808  16.124  0.00  0.00    +0.000 OA
BRANCH  13  15
ATOM     14  C   UNL     1       7.419   6.775  17.726  0.00  0.00    +0.000 C 
ATOM     15  C   UNL     1       7.257   5.682  16.684  0.00  0.00    +0.000 C 
ENDBRANCH  13  15
ENDBRANCH  11  13
ENDBRANCH   1  11
BRANCH   5  16
ATOM     16  C   UNL     1       0.994  10.361  19.109  0.00  0.00    +0.000 C 
BRANCH  16  17
ATOM     17  N   UNL     1      -0.237   9.759  19.669  0.00  0.00    +0.000 NA
ATOM     18  C   UNL     1      -0.305   9.918  21.150  0.00  0.00    +0.000 C 
ATOM     19  C   UNL     1      -0.444  11.373  21.647  0.00  0.00    +0.000 C 
ATOM     20  N   UNL     1      -1.596  12.023  21.005  0.00  0.00    +0.000 N 
ATOM     21  C   UNL     1      -1.687  11.901  19.547  0.00  0.00    +0.000 C 
ATOM     22  C   UNL     1      -1.440  10.431  19.102  0.00  0.00    +0.000 C 
BRANCH  20  23
ATOM     23  C   UNL     1      -2.654  12.524  21.743  0.00  0.00    +0.000 A 
ATOM     24  C   UNL     1      -2.797  12.220  23.105  0.00  0.00    +0.000 A 
ATOM     25  C   UNL     1      -3.874  12.707  23.859  0.00  0.00    +0.000 A 
ATOM     26  C   UNL     1      -4.824  13.538  23.275  0.00  0.00    +0.000 A 
ATOM     27  C   UNL     1      -4.714  13.844  21.924  0.00  0.00    +0.000 A 
ATOM     28  C   UNL     1      -3.642  13.339  21.175  0.00  0.00    +0.000 A 
BRANCH  26  29
ATOM     29  O   UNL     1      -5.834  13.955  24.098  0.00  0.00    +0.000 OA
ATOM     30  C   UNL     1      -6.334  15.260  23.829  0.00  0.00    +0.000 C 
ENDBRANCH  26  29
ENDBRANCH  20  23
ENDBRANCH  16  17
ENDBRANCH   5  16
TORSDOF 7
ENDMDL
