MODEL 1
REMARK VINA RESULT:      -7.4      0.000      0.000
REMARK  Name = 
REMARK  8 active torsions:
REMARK  status: ('A' for Active; 'I' for Inactive)
REMARK    1  A    between atoms: C_1  and  O_2
REMARK    2  A    between atoms: O_2  and  C_3
REMARK    3  A    between atoms: C_6  and  N_7
REMARK    4  A    between atoms: C_11  and  S_12
REMARK    5  A    between atoms: S_12  and  C_13
REMARK    6  A    between atoms: C_13  and  C_14
REMARK    7  A    between atoms: N_16  and  C_17
REMARK    8  A    between atoms: N_16  and  C_18
REMARK                            x       y       z     vdW  Elec       q    Type
REMARK                         _______ _______ _______ _____ _____    ______ ____
ROOT
ATOM      1  N   UNL     1       4.437   3.980  18.712  0.00  0.00    +0.000 N 
ATOM      2  N   UNL     1       4.783   2.869  19.414  0.00  0.00    +0.000 NA
ATOM      3  N   UNL     1       3.890   2.756  20.387  0.00  0.00    +0.000 NA
ATOM      4  N   UNL     1       2.900   3.695  20.267  0.00  0.00    +0.000 NA
ATOM      5  C   UNL     1       3.223   4.425  19.222  0.00  0.00    +0.000 A 
ENDROOT
BRANCH   1   9
ATOM      6  C   UNL     1       6.926   5.093  15.487  0.00  0.00    +0.000 A 
ATOM      7  C   UNL     1       7.175   5.581  16.771  0.00  0.00    +0.000 A 
ATOM      8  C   UNL     1       6.320   5.259  17.832  0.00  0.00    +0.000 A 
ATOM      9  C   UNL     1       5.213   4.428  17.609  0.00  0.00    +0.000 A 
ATOM     10  C   UNL     1       4.910   4.033  16.302  0.00  0.00    +0.000 A 
ATOM     11  C   UNL     1       5.765   4.359  15.244  0.00  0.00    +0.000 A 
BRANCH   6  13
ATOM     12  C   UNL     1       7.528   4.975  13.213  0.00  0.00    +0.000 C 
ATOM     13  O   UNL     1       7.852   5.413  14.531  0.00  0.00    +0.000 OA
ENDBRANCH   6  13
ENDBRANCH   1   9
BRANCH   5  14
ATOM     14  S   UNL     1       2.156   5.548  18.432  0.00  0.00    +0.000 S 
BRANCH  14  15
ATOM     15  C   UNL     1       2.992   7.142  18.680  0.00  0.00    +0.000 C 
BRANCH  15  16
ATOM     16  C   UNL     1       2.067   8.333  18.452  0.00  0.00    +0.000 C 
ATOM     17  O   UNL     1       1.910   8.804  17.326  0.00  0.00    +0.000 OA
ATOM     18  N   UNL     1       1.414   8.915  19.540  0.00  0.00    +0.000 N 
ATOM     19  C   UNL     1       1.362   8.309  20.871  0.00  0.00    +0.000 C 
BRANCH  18  20
ATOM     20  C   UNL     1       0.517  10.084  19.340  0.00  0.00    +0.000 C 
ATOM     21  C   UNL     1       1.276  11.422  19.280  0.00  0.00    +0.000 C 
ATOM     22  C   UNL     1       1.325  11.991  20.693  0.00  0.00    +0.000 C 
ATOM     23  S   UNL     1      -0.304  11.670  21.337  0.00  0.00    +0.000 S 
ATOM     24  O   UNL     1      -1.165  12.743  20.869  0.00  0.00    +0.000 OA
ATOM     25  O   UNL     1      -0.233  11.336  22.739  0.00  0.00    +0.000 OA
ATOM     26  C   UNL     1      -0.655  10.227  20.333  0.00  0.00    +0.000 C 
ENDBRANCH  18  20
ENDBRANCH  15  16
ENDBRANCH  14  15
ENDBRANCH   5  14
TORSDOF 6
ENDMDL
MODEL 2
REMARK VINA RESULT:      -7.2      3.354      6.822
REMARK  Name = 
REMARK  8 active torsions:
REMARK  status: ('A' for Active; 'I' for Inactive)
REMARK    1  A    between atoms: C_1  and  O_2
REMARK    2  A    between atoms: O_2  and  C_3
REMARK    3  A    between atoms: C_6  and  N_7
REMARK    4  A    between atoms: C_11  and  S_12
REMARK    5  A    between atoms: S_12  and  C_13
REMARK    6  A    between atoms: C_13  and  C_14
REMARK    7  A    between atoms: N_16  and  C_17
REMARK    8  A    between atoms: N_16  and  C_18
REMARK                            x       y       z     vdW  Elec       q    Type
REMARK                         _______ _______ _______ _____ _____    ______ ____
ROOT
ATOM      1  N   UNL     1       1.880   4.193  20.403  0.00  0.00    +0.000 N 
ATOM      2  N   UNL     1       2.048   4.129  21.749  0.00  0.00    +0.000 NA
ATOM      3  N   UNL     1       1.780   2.878  22.096  0.00  0.00    +0.000 NA
ATOM      4  N   UNL     1       1.556   2.094  20.995  0.00  0.00    +0.000 NA
ATOM      5  C   UNL     1       1.648   2.896  19.957  0.00  0.00    +0.000 A 
ENDROOT
BRANCH   1   9
ATOM      6  C   UNL     1       2.094   7.819  18.250  0.00  0.00    +0.000 A 
ATOM      7  C   UNL     1       2.174   6.597  17.582  0.00  0.00    +0.000 A 
ATOM      8  C   UNL     1       2.159   5.393  18.297  0.00  0.00    +0.000 A 
ATOM      9  C   UNL     1       2.048   5.413  19.694  0.00  0.00    +0.000 A 
ATOM     10  C   UNL     1       2.078   6.641  20.363  0.00  0.00    +0.000 A 
ATOM     11  C   UNL     1       2.096   7.842  19.645  0.00  0.00    +0.000 A 
BRANCH   6  13
ATOM     12  C   UNL     1       1.703  10.140  18.141  0.00  0.00    +0.000 C 
ATOM     13  O   UNL     1       2.055   8.937  17.460  0.00  0.00    +0.000 OA
ENDBRANCH   6  13
ENDBRANCH   1   9
BRANCH   5  14
ATOM     14  S   UNL     1       1.768   2.368  18.305  0.00  0.00    +0.000 S 
BRANCH  14  15
ATOM     15  C   UNL     1       3.439   1.660  18.228  0.00  0.00    +0.000 C 
BRANCH  15  16
ATOM     16  C   UNL     1       4.484   2.546  18.898  0.00  0.00    +0.000 C 
ATOM     17  O   UNL     1       4.813   2.359  20.069  0.00  0.00    +0.000 OA
ATOM     18  N   UNL     1       5.050   3.603  18.183  0.00  0.00    +0.000 N 
ATOM     19  C   UNL     1       4.892   3.780  16.739  0.00  0.00    +0.000 C 
BRANCH  18  20
ATOM     20  C   UNL     1       6.062   4.485  18.822  0.00  0.00    +0.000 C 
ATOM     21  C   UNL     1       5.502   5.869  19.198  0.00  0.00    +0.000 C 
ATOM     22  C   UNL     1       5.759   6.808  18.025  0.00  0.00    +0.000 C 
ATOM     23  S   UNL     1       7.405   6.387  17.497  0.00  0.00    +0.000 S 
ATOM     24  O   UNL     1       8.326   7.111  18.357  0.00  0.00    +0.000 OA
ATOM     25  O   UNL     1       7.511   6.475  16.060  0.00  0.00    +0.000 OA
ATOM     26  C   UNL     1       7.385   4.683  18.052  0.00  0.00    +0.000 C 
ENDBRANCH  18  20
ENDBRANCH  15  16
ENDBRANCH  14  15
ENDBRANCH   5  14
TORSDOF 6
ENDMDL
MODEL 3
REMARK VINA RESULT:      -7.1      2.792      4.471
REMARK  Name = 
REMARK  8 active torsions:
REMARK  status: ('A' for Active; 'I' for Inactive)
REMARK    1  A    between atoms: C_1  and  O_2
REMARK    2  A    between atoms: O_2  and  C_3
REMARK    3  A    between atoms: C_6  and  N_7
REMARK    4  A    between atoms: C_11  and  S_12
REMARK    5  A    between atoms: S_12  and  C_13
REMARK    6  A    between atoms: C_13  and  C_14
REMARK    7  A    between atoms: N_16  and  C_17
REMARK    8  A    between atoms: N_16  and  C_18
REMARK                            x       y       z     vdW  Elec       q    Type
REMARK                         _______ _______ _______ _____ _____    ______ ____
ROOT
ATOM      1  N   UNL     1       4.782   4.419  16.511  0.00  0.00    +0.000 N 
ATOM      2  N   UNL     1       5.472   3.754  15.548  0.00  0.00    +0.000 NA
ATOM      3  N   UNL     1       6.071   4.683  14.815  0.00  0.00    +0.000 NA
ATOM      4  N   UNL     1       5.886   5.932  15.347  0.00  0.00    +0.000 NA
ATOM      5  C   UNL     1       5.122   5.763  16.403  0.00  0.00    +0.000 A 
ENDROOT
BRANCH   1   9
ATOM      6  C   UNL     1       2.355   2.612  19.455  0.00  0.00    +0.000 A 
ATOM      7  C   UNL     1       3.717   2.803  19.686  0.00  0.00    +0.000 A 
ATOM      8  C   UNL     1       4.537   3.350  18.691  0.00  0.00    +0.000 A 
ATOM      9  C   UNL     1       3.983   3.725  17.459  0.00  0.00    +0.000 A 
ATOM     10  C   UNL     1       2.641   3.431  17.198  0.00  0.00    +0.000 A 
ATOM     11  C   UNL     1       1.826   2.881  18.193  0.00  0.00    +0.000 A 
BRANCH   6  13
ATOM     12  C   UNL     1       1.882   2.768  21.758  0.00  0.00    +0.000 C 
ATOM     13  O   UNL     1       1.627   2.127  20.510  0.00  0.00    +0.000 OA
ENDBRANCH   6  13
ENDBRANCH   1   9
BRANCH   5  14
ATOM     14  S   UNL     1       4.843   6.967  17.626  0.00  0.00    +0.000 S 
BRANCH  14  15
ATOM     15  C   UNL     1       3.031   7.014  17.742  0.00  0.00    +0.000 C 
BRANCH  15  16
ATOM     16  C   UNL     1       2.534   7.027  19.184  0.00  0.00    +0.000 C 
ATOM     17  O   UNL     1       2.793   6.098  19.949  0.00  0.00    +0.000 OA
ATOM     18  N   UNL     1       1.749   8.091  19.632  0.00  0.00    +0.000 N 
ATOM     19  C   UNL     1       1.565   9.333  18.881  0.00  0.00    +0.000 C 
BRANCH  18  20
ATOM     20  C   UNL     1       1.246   8.116  21.031  0.00  0.00    +0.000 C 
ATOM     21  C   UNL     1      -0.290   8.060  21.120  0.00  0.00    +0.000 C 
ATOM     22  C   UNL     1      -0.806   9.494  21.151  0.00  0.00    +0.000 C 
ATOM     23  S   UNL     1       0.335  10.332  22.229  0.00  0.00    +0.000 S 
ATOM     24  O   UNL     1      -0.105  10.081  23.591  0.00  0.00    +0.000 OA
ATOM     25  O   UNL     1       0.570  11.679  21.765  0.00  0.00    +0.000 OA
ATOM     26  C   UNL     1       1.748   9.274  21.920  0.00  0.00    +0.000 C 
ENDBRANCH  18  20
ENDBRANCH  15  16
ENDBRANCH  14  15
ENDBRANCH   5  14
TORSDOF 6
ENDMDL
MODEL 4
REMARK VINA RESULT:      -7.1      1.256      1.484
REMARK  Name = 
REMARK  8 active torsions:
REMARK  status: ('A' for Active; 'I' for Inactive)
REMARK    1  A    between atoms: C_1  and  O_2
REMARK    2  A    between atoms: O_2  and  C_3
REMARK    3  A    between atoms: C_6  and  N_7
REMARK    4  A    between atoms: C_11  and  S_12
REMARK    5  A    between atoms: S_12  and  C_13
REMARK    6  A    between atoms: C_13  and  C_14
REMARK    7  A    between atoms: N_16  and  C_17
REMARK    8  A    between atoms: N_16  and  C_18
REMARK                            x       y       z     vdW  Elec       q    Type
REMARK                         _______ _______ _______ _____ _____    ______ ____
ROOT
ATOM      1  N   UNL     1       3.932   3.538  19.870  0.00  0.00    +0.000 N 
ATOM      2  N   UNL     1       4.255   2.382  20.506  0.00  0.00    +0.000 NA
ATOM      3  N   UNL     1       3.365   2.234  21.477  0.00  0.00    +0.000 NA
ATOM      4  N   UNL     1       2.397   3.202  21.416  0.00  0.00    +0.000 NA
ATOM      5  C   UNL     1       2.731   3.982  20.412  0.00  0.00    +0.000 A 
ENDROOT
BRANCH   1   9
ATOM      6  C   UNL     1       6.425   4.772  16.693  0.00  0.00    +0.000 A 
ATOM      7  C   UNL     1       6.710   5.157  18.003  0.00  0.00    +0.000 A 
ATOM      8  C   UNL     1       5.856   4.797  19.052  0.00  0.00    +0.000 A 
ATOM      9  C   UNL     1       4.712   4.030  18.789  0.00  0.00    +0.000 A 
ATOM     10  C   UNL     1       4.376   3.741  17.463  0.00  0.00    +0.000 A 
ATOM     11  C   UNL     1       5.231   4.106  16.416  0.00  0.00    +0.000 A 
BRANCH   6  13
ATOM     12  C   UNL     1       6.995   4.785  14.407  0.00  0.00    +0.000 C 
ATOM     13  O   UNL     1       7.351   5.120  15.746  0.00  0.00    +0.000 OA
ENDBRANCH   6  13
ENDBRANCH   1   9
BRANCH   5  14
ATOM     14  S   UNL     1       1.687   5.173  19.695  0.00  0.00    +0.000 S 
BRANCH  14  15
ATOM     15  C   UNL     1       2.658   6.701  19.838  0.00  0.00    +0.000 C 
BRANCH  15  16
ATOM     16  C   UNL     1       2.205   7.779  18.859  0.00  0.00    +0.000 C 
ATOM     17  O   UNL     1       2.522   7.728  17.672  0.00  0.00    +0.000 OA
ATOM     18  N   UNL     1       1.447   8.856  19.324  0.00  0.00    +0.000 N 
ATOM     19  C   UNL     1       0.840   8.904  20.655  0.00  0.00    +0.000 C 
BRANCH  18  20
ATOM     20  C   UNL     1       1.005   9.923  18.388  0.00  0.00    +0.000 C 
ATOM     21  C   UNL     1       1.987  11.107  18.318  0.00  0.00    +0.000 C 
ATOM     22  C   UNL     1       1.541  12.141  19.346  0.00  0.00    +0.000 C 
ATOM     23  S   UNL     1      -0.232  12.162  19.184  0.00  0.00    +0.000 S 
ATOM     24  O   UNL     1      -0.547  13.042  18.073  0.00  0.00    +0.000 OA
ATOM     25  O   UNL     1      -0.852  12.349  20.475  0.00  0.00    +0.000 OA
ATOM     26  C   UNL     1      -0.419  10.477  18.602  0.00  0.00    +0.000 C 
ENDBRANCH  18  20
ENDBRANCH  15  16
ENDBRANCH  14  15
ENDBRANCH   5  14
TORSDOF 6
ENDMDL
MODEL 5
REMARK VINA RESULT:      -7.1      2.031      2.719
REMARK  Name = 
REMARK  8 active torsions:
REMARK  status: ('A' for Active; 'I' for Inactive)
REMARK    1  A    between atoms: C_1  and  O_2
REMARK    2  A    between atoms: O_2  and  C_3
REMARK    3  A    between atoms: C_6  and  N_7
REMARK    4  A    between atoms: C_11  and  S_12
REMARK    5  A    between atoms: S_12  and  C_13
REMARK    6  A    between atoms: C_13  and  C_14
REMARK    7  A    between atoms: N_16  and  C_17
REMARK    8  A    between atoms: N_16  and  C_18
REMARK                            x       y       z     vdW  Elec       q    Type
REMARK                         _______ _______ _______ _____ _____    ______ ____
ROOT
ATOM      1  N   UNL     1       2.995   4.139  18.152  0.00  0.00    +0.000 N 
ATOM      2  N   UNL     1       2.332   3.303  17.311  0.00  0.00    +0.000 NA
ATOM      3  N   UNL     1       1.240   2.919  17.958  0.00  0.00    +0.000 NA
ATOM      4  N   UNL     1       1.112   3.575  19.153  0.00  0.00    +0.000 NA
ATOM      5  C   UNL     1       2.173   4.345  19.255  0.00  0.00    +0.000 A 
ENDROOT
BRANCH   1   9
ATOM      6  C   UNL     1       6.626   6.080  17.220  0.00  0.00    +0.000 A 
ATOM      7  C   UNL     1       5.519   6.216  16.382  0.00  0.00    +0.000 A 
ATOM      8  C   UNL     1       4.330   5.530  16.657  0.00  0.00    +0.000 A 
ATOM      9  C   UNL     1       4.244   4.711  17.792  0.00  0.00    +0.000 A 
ATOM     10  C   UNL     1       5.389   4.495  18.565  0.00  0.00    +0.000 A 
ATOM     11  C   UNL     1       6.576   5.181  18.285  0.00  0.00    +0.000 A 
BRANCH   6  13
ATOM     12  C   UNL     1       7.873   8.027  17.674  0.00  0.00    +0.000 C 
ATOM     13  O   UNL     1       7.721   6.838  16.900  0.00  0.00    +0.000 OA
ENDBRANCH   6  13
ENDBRANCH   1   9
BRANCH   5  14
ATOM     14  S   UNL     1       2.359   5.625  20.418  0.00  0.00    +0.000 S 
BRANCH  14  15
ATOM     15  C   UNL     1       2.082   7.119  19.422  0.00  0.00    +0.000 C 
BRANCH  15  16
ATOM     16  C   UNL     1       1.602   8.301  20.258  0.00  0.00    +0.000 C 
ATOM     17  O   UNL     1       1.513   8.213  21.482  0.00  0.00    +0.000 OA
ATOM     18  N   UNL     1       1.229   9.487  19.622  0.00  0.00    +0.000 N 
ATOM     19  C   UNL     1       1.496   9.767  18.211  0.00  0.00    +0.000 C 
BRANCH  18  20
ATOM     20  C   UNL     1       0.748  10.646  20.419  0.00  0.00    +0.000 C 
ATOM     21  C   UNL     1      -0.759  10.578  20.731  0.00  0.00    +0.000 C 
ATOM     22  C   UNL     1      -1.496  11.325  19.625  0.00  0.00    +0.000 C 
ATOM     23  S   UNL     1      -0.488  12.764  19.339  0.00  0.00    +0.000 S 
ATOM     24  O   UNL     1      -0.863  13.750  20.338  0.00  0.00    +0.000 OA
ATOM     25  O   UNL     1      -0.477  13.100  17.935  0.00  0.00    +0.000 OA
ATOM     26  C   UNL     1       1.071  12.046  19.857  0.00  0.00    +0.000 C 
ENDBRANCH  18  20
ENDBRANCH  15  16
ENDBRANCH  14  15
ENDBRANCH   5  14
TORSDOF 6
ENDMDL
MODEL 6
REMARK VINA RESULT:      -6.9      1.234      1.429
REMARK  Name = 
REMARK  8 active torsions:
REMARK  status: ('A' for Active; 'I' for Inactive)
REMARK    1  A    between atoms: C_1  and  O_2
REMARK    2  A    between atoms: O_2  and  C_3
REMARK    3  A    between atoms: C_6  and  N_7
REMARK    4  A    between atoms: C_11  and  S_12
REMARK    5  A    between atoms: S_12  and  C_13
REMARK    6  A    between atoms: C_13  and  C_14
REMARK    7  A    between atoms: N_16  and  C_17
REMARK    8  A    between atoms: N_16  and  C_18
REMARK                            x       y       z     vdW  Elec       q    Type
REMARK                         _______ _______ _______ _____ _____    ______ ____
ROOT
ATOM      1  N   UNL     1       4.537   3.807  18.824  0.00  0.00    +0.000 N 
ATOM      2  N   UNL     1       4.947   2.710  19.512  0.00  0.00    +0.000 NA
ATOM      3  N   UNL     1       4.073   2.544  20.496  0.00  0.00    +0.000 NA
ATOM      4  N   UNL     1       3.037   3.434  20.396  0.00  0.00    +0.000 NA
ATOM      5  C   UNL     1       3.308   4.186  19.353  0.00  0.00    +0.000 A 
ENDROOT
BRANCH   1   9
ATOM      6  C   UNL     1       6.914   5.058  15.566  0.00  0.00    +0.000 A 
ATOM      7  C   UNL     1       7.205   5.493  16.859  0.00  0.00    +0.000 A 
ATOM      8  C   UNL     1       6.387   5.125  17.934  0.00  0.00    +0.000 A 
ATOM      9  C   UNL     1       5.274   4.302  17.715  0.00  0.00    +0.000 A 
ATOM     10  C   UNL     1       4.928   3.960  16.404  0.00  0.00    +0.000 A 
ATOM     11  C   UNL     1       5.747   4.332  15.332  0.00  0.00    +0.000 A 
BRANCH   6  13
ATOM     12  C   UNL     1       7.467   4.986  13.277  0.00  0.00    +0.000 C 
ATOM     13  O   UNL     1       7.807   5.420  14.593  0.00  0.00    +0.000 OA
ENDBRANCH   6  13
ENDBRANCH   1   9
BRANCH   5  14
ATOM     14  S   UNL     1       2.176   5.261  18.587  0.00  0.00    +0.000 S 
BRANCH  14  15
ATOM     15  C   UNL     1       2.821   6.903  19.021  0.00  0.00    +0.000 C 
BRANCH  15  16
ATOM     16  C   UNL     1       1.829   7.728  19.834  0.00  0.00    +0.000 C 
ATOM     17  O   UNL     1       1.470   7.361  20.952  0.00  0.00    +0.000 OA
ATOM     18  N   UNL     1       1.296   8.897  19.288  0.00  0.00    +0.000 N 
ATOM     19  C   UNL     1       1.809   9.530  18.073  0.00  0.00    +0.000 C 
BRANCH  18  20
ATOM     20  C   UNL     1       0.318   9.708  20.061  0.00  0.00    +0.000 C 
ATOM     21  C   UNL     1      -0.473  10.695  19.183  0.00  0.00    +0.000 C 
ATOM     22  C   UNL     1       0.280  12.021  19.182  0.00  0.00    +0.000 C 
ATOM     23  S   UNL     1       0.800  12.216  20.873  0.00  0.00    +0.000 S 
ATOM     24  O   UNL     1      -0.323  12.784  21.600  0.00  0.00    +0.000 OA
ATOM     25  O   UNL     1       2.105  12.829  20.931  0.00  0.00    +0.000 OA
ATOM     26  C   UNL     1       0.873  10.472  21.282  0.00  0.00    +0.000 C 
ENDBRANCH  18  20
ENDBRANCH  15  16
ENDBRANCH  14  15
ENDBRANCH   5  14
TORSDOF 6
ENDMDL
MODEL 7
REMARK VINA RESULT:      -6.9      2.180      2.702
REMARK  Name = 
REMARK  8 active torsions:
REMARK  status: ('A' for Active; 'I' for Inactive)
REMARK    1  A    between atoms: C_1  and  O_2
REMARK    2  A    between atoms: O_2  and  C_3
REMARK    3  A    between atoms: C_6  and  N_7
REMARK    4  A    between atoms: C_11  and  S_12
REMARK    5  A    between atoms: S_12  and  C_13
REMARK    6  A    between atoms: C_13  and  C_14
REMARK    7  A    between atoms: N_16  and  C_17
REMARK    8  A    between atoms: N_16  and  C_18
REMARK                            x       y       z     vdW  Elec       q    Type
REMARK                         _______ _______ _______ _____ _____    ______ ____
ROOT
ATOM      1  N   UNL     1       3.088   4.357  18.256  0.00  0.00    +0.000 N 
ATOM      2  N   UNL     1       2.649   3.453  17.342  0.00  0.00    +0.000 NA
ATOM      3  N   UNL     1       1.610   2.843  17.896  0.00  0.00    +0.000 NA
ATOM      4  N   UNL     1       1.285   3.408  19.100  0.00  0.00    +0.000 NA
ATOM      5  C   UNL     1       2.174   4.356  19.304  0.00  0.00    +0.000 A 
ENDROOT
BRANCH   1   9
ATOM      6  C   UNL     1       6.584   6.546  17.354  0.00  0.00    +0.000 A 
ATOM      7  C   UNL     1       6.547   5.703  18.465  0.00  0.00    +0.000 A 
ATOM      8  C   UNL     1       5.373   5.017  18.799  0.00  0.00    +0.000 A 
ATOM      9  C   UNL     1       4.228   5.167  18.005  0.00  0.00    +0.000 A 
ATOM     10  C   UNL     1       4.240   6.096  16.960  0.00  0.00    +0.000 A 
ATOM     11  C   UNL     1       5.415   6.781  16.631  0.00  0.00    +0.000 A 
BRANCH   6  13
ATOM     12  C   UNL     1       8.007   8.394  17.688  0.00  0.00    +0.000 C 
ATOM     13  O   UNL     1       7.794   7.123  17.075  0.00  0.00    +0.000 OA
ENDBRANCH   6  13
ENDBRANCH   1   9
BRANCH   5  14
ATOM     14  S   UNL     1       2.042   5.592  20.519  0.00  0.00    +0.000 S 
BRANCH  14  15
ATOM     15  C   UNL     1       1.902   7.113  19.535  0.00  0.00    +0.000 C 
BRANCH  15  16
ATOM     16  C   UNL     1       1.504   8.322  20.376  0.00  0.00    +0.000 C 
ATOM     17  O   UNL     1       1.425   8.240  21.601  0.00  0.00    +0.000 OA
ATOM     18  N   UNL     1       1.193   9.527  19.744  0.00  0.00    +0.000 N 
ATOM     19  C   UNL     1       1.458   9.791  18.329  0.00  0.00    +0.000 C 
BRANCH  18  20
ATOM     20  C   UNL     1       0.791  10.713  20.545  0.00  0.00    +0.000 C 
ATOM     21  C   UNL     1      -0.715  10.742  20.864  0.00  0.00    +0.000 C 
ATOM     22  C   UNL     1      -1.408  11.537  19.763  0.00  0.00    +0.000 C 
ATOM     23  S   UNL     1      -0.310  12.909  19.476  0.00  0.00    +0.000 S 
ATOM     24  O   UNL     1      -0.617  13.915  20.478  0.00  0.00    +0.000 OA
ATOM     25  O   UNL     1      -0.284  13.247  18.072  0.00  0.00    +0.000 OA
ATOM     26  C   UNL     1       1.201  12.091  19.984  0.00  0.00    +0.000 C 
ENDBRANCH  18  20
ENDBRANCH  15  16
ENDBRANCH  14  15
ENDBRANCH   5  14
TORSDOF 6
ENDMDL
MODEL 8
REMARK VINA RESULT:      -6.8      1.926      2.706
REMARK  Name = 
REMARK  8 active torsions:
REMARK  status: ('A' for Active; 'I' for Inactive)
REMARK    1  A    between atoms: C_1  and  O_2
REMARK    2  A    between atoms: O_2  and  C_3
REMARK    3  A    between atoms: C_6  and  N_7
REMARK    4  A    between atoms: C_11  and  S_12
REMARK    5  A    between atoms: S_12  and  C_13
REMARK    6  A    between atoms: C_13  and  C_14
REMARK    7  A    between atoms: N_16  and  C_17
REMARK    8  A    between atoms: N_16  and  C_18
REMARK                            x       y       z     vdW  Elec       q    Type
REMARK                         _______ _______ _______ _____ _____    ______ ____
ROOT
ATOM      1  N   UNL     1       2.964   4.256  19.416  0.00  0.00    +0.000 N 
ATOM      2  N   UNL     1       2.313   3.072  19.555  0.00  0.00    +0.000 NA
ATOM      3  N   UNL     1       1.312   3.298  20.395  0.00  0.00    +0.000 NA
ATOM      4  N   UNL     1       1.221   4.627  20.715  0.00  0.00    +0.000 NA
ATOM      5  C   UNL     1       2.216   5.216  20.089  0.00  0.00    +0.000 A 
ENDROOT
BRANCH   1   9
ATOM      6  C   UNL     1       6.342   4.863  16.956  0.00  0.00    +0.000 A 
ATOM      7  C   UNL     1       5.141   4.413  16.406  0.00  0.00    +0.000 A 
ATOM      8  C   UNL     1       4.035   4.158  17.226  0.00  0.00    +0.000 A 
ATOM      9  C   UNL     1       4.128   4.369  18.609  0.00  0.00    +0.000 A 
ATOM     10  C   UNL     1       5.364   4.715  19.164  0.00  0.00    +0.000 A 
ATOM     11  C   UNL     1       6.468   4.967  18.341  0.00  0.00    +0.000 A 
BRANCH   6  13
ATOM     12  C   UNL     1       7.026   4.880  14.702  0.00  0.00    +0.000 C 
ATOM     13  O   UNL     1       7.345   5.143  16.067  0.00  0.00    +0.000 OA
ENDBRANCH   6  13
ENDBRANCH   1   9
BRANCH   5  14
ATOM     14  S   UNL     1       2.380   6.935  19.889  0.00  0.00    +0.000 S 
BRANCH  14  15
ATOM     15  C   UNL     1       1.001   7.590  20.875  0.00  0.00    +0.000 C 
BRANCH  15  16
ATOM     16  C   UNL     1       1.218   9.039  21.298  0.00  0.00    +0.000 C 
ATOM     17  O   UNL     1       1.731   9.310  22.383  0.00  0.00    +0.000 OA
ATOM     18  N   UNL     1       0.798  10.072  20.457  0.00  0.00    +0.000 N 
ATOM     19  C   UNL     1       0.378   9.866  19.070  0.00  0.00    +0.000 C 
BRANCH  18  20
ATOM     20  C   UNL     1       0.990  11.490  20.857  0.00  0.00    +0.000 C 
ATOM     21  C   UNL     1      -0.222  12.074  21.607  0.00  0.00    +0.000 C 
ATOM     22  C   UNL     1      -1.135  12.727  20.576  0.00  0.00    +0.000 C 
ATOM     23  S   UNL     1      -0.009  13.558  19.477  0.00  0.00    +0.000 S 
ATOM     24  O   UNL     1       0.315  14.836  20.087  0.00  0.00    +0.000 OA
ATOM     25  O   UNL     1      -0.490  13.489  18.117  0.00  0.00    +0.000 OA
ATOM     26  C   UNL     1       1.393  12.471  19.735  0.00  0.00    +0.000 C 
ENDBRANCH  18  20
ENDBRANCH  15  16
ENDBRANCH  14  15
ENDBRANCH   5  14
TORSDOF 6
ENDMDL
MODEL 9
REMARK VINA RESULT:      -6.8      1.851      2.532
REMARK  Name = 
REMARK  8 active torsions:
REMARK  status: ('A' for Active; 'I' for Inactive)
REMARK    1  A    between atoms: C_1  and  O_2
REMARK    2  A    between atoms: O_2  and  C_3
REMARK    3  A    between atoms: C_6  and  N_7
REMARK    4  A    between atoms: C_11  and  S_12
REMARK    5  A    between atoms: S_12  and  C_13
REMARK    6  A    between atoms: C_13  and  C_14
REMARK    7  A    between atoms: N_16  and  C_17
REMARK    8  A    between atoms: N_16  and  C_18
REMARK                            x       y       z     vdW  Elec       q    Type
REMARK                         _______ _______ _______ _____ _____    ______ ____
ROOT
ATOM      1  N   UNL     1       3.512   5.182  19.428  0.00  0.00    +0.000 N 
ATOM      2  N   UNL     1       3.095   4.230  20.304  0.00  0.00    +0.000 NA
ATOM      3  N   UNL     1       2.112   4.779  21.004  0.00  0.00    +0.000 NA
ATOM      4  N   UNL     1       1.796   6.024  20.528  0.00  0.00    +0.000 NA
ATOM      5  C   UNL     1       2.635   6.255  19.543  0.00  0.00    +0.000 A 
ENDROOT
BRANCH   1   9
ATOM      6  C   UNL     1       6.681   4.740  16.673  0.00  0.00    +0.000 A 
ATOM      7  C   UNL     1       5.382   4.372  16.319  0.00  0.00    +0.000 A 
ATOM      8  C   UNL     1       4.339   4.465  17.247  0.00  0.00    +0.000 A 
ATOM      9  C   UNL     1       4.594   4.945  18.540  0.00  0.00    +0.000 A 
ATOM     10  C   UNL     1       5.915   5.208  18.919  0.00  0.00    +0.000 A 
ATOM     11  C   UNL     1       6.956   5.111  17.989  0.00  0.00    +0.000 A 
BRANCH   6  13
ATOM     12  C   UNL     1       7.102   4.804  14.356  0.00  0.00    +0.000 C 
ATOM     13  O   UNL     1       7.619   4.670  15.679  0.00  0.00    +0.000 OA
ENDBRANCH   6  13
ENDBRANCH   1   9
BRANCH   5  14
ATOM     14  S   UNL     1       2.473   7.544  18.387  0.00  0.00    +0.000 S 
BRANCH  14  15
ATOM     15  C   UNL     1       1.506   8.784  19.298  0.00  0.00    +0.000 C 
BRANCH  15  16
ATOM     16  C   UNL     1       1.515  10.150  18.619  0.00  0.00    +0.000 C 
ATOM     17  O   UNL     1       2.187  10.347  17.607  0.00  0.00    +0.000 OA
ATOM     18  N   UNL     1       0.778  11.199  19.173  0.00  0.00    +0.000 N 
ATOM     19  C   UNL     1      -0.210  11.019  20.237  0.00  0.00    +0.000 C 
BRANCH  18  20
ATOM     20  C   UNL     1       0.784  12.540  18.534  0.00  0.00    +0.000 C 
ATOM     21  C   UNL     1       1.830  13.493  19.142  0.00  0.00    +0.000 C 
ATOM     22  C   UNL     1       1.149  14.280  20.256  0.00  0.00    +0.000 C 
ATOM     23  S   UNL     1      -0.449  14.677  19.579  0.00  0.00    +0.000 S 
ATOM     24  O   UNL     1      -0.281  15.865  18.761  0.00  0.00    +0.000 OA
ATOM     25  O   UNL     1      -1.458  14.625  20.610  0.00  0.00    +0.000 OA
ATOM     26  C   UNL     1      -0.571  13.276  18.468  0.00  0.00    +0.000 C 
ENDBRANCH  18  20
ENDBRANCH  15  16
ENDBRANCH  14  15
ENDBRANCH   5  14
TORSDOF 6
ENDMDL
