MODEL 1
REMARK VINA RESULT:      -8.0      0.000      0.000
REMARK  Name = 
REMARK  11 active torsions:
REMARK  status: ('A' for Active; 'I' for Inactive)
REMARK    1  A    between atoms: C_1  and  C_2
REMARK    2  A    between atoms: C_5  and  C_6
REMARK    3  A    between atoms: N_7  and  O_8
REMARK    4  A    between atoms: N_9  and  C_10
REMARK    5  A    between atoms: C_10  and  C_11
REMARK    6  A    between atoms: C_11  and  N_12
REMARK    7  A    between atoms: C_18  and  O_19
REMARK    8  A    between atoms: O_19  and  C_20
REMARK    9  A    between atoms: C_24  and  C_25
REMARK   10  A    between atoms: C_25  and  C_26
REMARK   11  A    between atoms: C_25  and  C_27
REMARK                            x       y       z     vdW  Elec       q    Type
REMARK                         _______ _______ _______ _____ _____    ______ ____
ROOT
ATOM      1  C   UNL     1       5.032   3.509  13.058  0.00  0.00    +0.000 C 
ATOM      2  C   UNL     1       5.687   4.345  14.112  0.00  0.00    +0.000 A 
ATOM      3  C   UNL     1       7.030   4.200  14.419  0.00  0.00    +0.000 A 
ATOM      4  C   UNL     1       7.563   4.929  15.481  0.00  0.00    +0.000 A 
ATOM      5  C   UNL     1       6.750   5.797  16.227  0.00  0.00    +0.000 A 
ATOM      6  C   UNL     1       5.419   5.932  15.802  0.00  0.00    +0.000 A 
ATOM      7  N   UNL     1       4.887   5.208  14.776  0.00  0.00    +0.000 NA
ENDROOT
BRANCH   5   8
ATOM      8  C   UNL     1       7.330   6.413  17.486  0.00  0.00    +0.000 C 
ATOM      9  N   UNL     1       7.726   5.564  18.391  0.00  0.00    +0.000 NA
ATOM     10  N   UNL     1       7.451   7.807  17.516  0.00  0.00    +0.000 N 
ATOM     11  H   UNL     1       6.571   8.316  17.469  0.00  0.00    +0.000 HD
BRANCH   9  12
ATOM     12  O   UNL     1       8.225   6.156  19.550  0.00  0.00    +0.000 OA
ATOM     13  H   UNL     1       7.424   6.225  20.099  0.00  0.00    +0.000 HD
ENDBRANCH   9  12
BRANCH  10  14
ATOM     14  C   UNL     1       8.461   8.515  18.295  0.00  0.00    +0.000 C 
BRANCH  14  15
ATOM     15  C   UNL     1       8.289  10.055  18.262  0.00  0.00    +0.000 C 
BRANCH  15  16
ATOM     16  N   UNL     1       9.513  10.894  18.195  0.00  0.00    +0.000 NA
ATOM     17  C   UNL     1       9.227  12.245  17.681  0.00  0.00    +0.000 C 
ATOM     18  C   UNL     1      10.494  13.105  17.627  0.00  0.00    +0.000 C 
ATOM     19  C   UNL     1      11.166  13.203  18.989  0.00  0.00    +0.000 C 
ATOM     20  C   UNL     1      11.386  11.811  19.569  0.00  0.00    +0.000 C 
ATOM     21  C   UNL     1      10.093  10.993  19.555  0.00  0.00    +0.000 C 
ENDBRANCH  15  16
ENDBRANCH  14  15
ENDBRANCH  10  14
ENDBRANCH   5   8
BRANCH   6  22
ATOM     22  O   UNL     1       4.558   6.790  16.473  0.00  0.00    +0.000 OA
BRANCH  22  23
ATOM     23  C   UNL     1       3.842   6.314  17.557  0.00  0.00    +0.000 A 
ATOM     24  C   UNL     1       3.241   7.270  18.382  0.00  0.00    +0.000 A 
ATOM     25  C   UNL     1       2.405   6.878  19.421  0.00  0.00    +0.000 A 
ATOM     26  C   UNL     1       2.142   5.522  19.635  0.00  0.00    +0.000 A 
ATOM     27  C   UNL     1       2.724   4.540  18.815  0.00  0.00    +0.000 A 
ATOM     28  C   UNL     1       3.584   4.955  17.778  0.00  0.00    +0.000 A 
BRANCH  27  29
ATOM     29  C   UNL     1       2.383   3.078  19.040  0.00  0.00    +0.000 C 
ATOM     30  C   UNL     1       2.921   2.189  17.915  0.00  0.00    +0.000 C 
ATOM     31  C   UNL     1       2.869   2.572  20.401  0.00  0.00    +0.000 C 
ENDBRANCH  27  29
ENDBRANCH  22  23
ENDBRANCH   6  22
TORSDOF 8
ENDMDL
MODEL 2
REMARK VINA RESULT:      -7.9      0.687      1.201
REMARK  Name = 
REMARK  11 active torsions:
REMARK  status: ('A' for Active; 'I' for Inactive)
REMARK    1  A    between atoms: C_1  and  C_2
REMARK    2  A    between atoms: C_5  and  C_6
REMARK    3  A    between atoms: N_7  and  O_8
REMARK    4  A    between atoms: N_9  and  C_10
REMARK    5  A    between atoms: C_10  and  C_11
REMARK    6  A    between atoms: C_11  and  N_12
REMARK    7  A    between atoms: C_18  and  O_19
REMARK    8  A    between atoms: O_19  and  C_20
REMARK    9  A    between atoms: C_24  and  C_25
REMARK   10  A    between atoms: C_25  and  C_26
REMARK   11  A    between atoms: C_25  and  C_27
REMARK                            x       y       z     vdW  Elec       q    Type
REMARK                         _______ _______ _______ _____ _____    ______ ____
ROOT
ATOM      1  C   UNL     1       5.364   3.462  12.815  0.00  0.00    +0.000 C 
ATOM      2  C   UNL     1       5.903   4.328  13.910  0.00  0.00    +0.000 A 
ATOM      3  C   UNL     1       7.252   4.344  14.223  0.00  0.00    +0.000 A 
ATOM      4  C   UNL     1       7.682   5.088  15.320  0.00  0.00    +0.000 A 
ATOM      5  C   UNL     1       6.761   5.809  16.096  0.00  0.00    +0.000 A 
ATOM      6  C   UNL     1       5.425   5.790  15.666  0.00  0.00    +0.000 A 
ATOM      7  N   UNL     1       4.995   5.049  14.605  0.00  0.00    +0.000 NA
ENDROOT
BRANCH   5   8
ATOM      8  C   UNL     1       7.252   6.438  17.386  0.00  0.00    +0.000 C 
ATOM      9  N   UNL     1       7.692   5.602  18.283  0.00  0.00    +0.000 NA
ATOM     10  N   UNL     1       7.257   7.836  17.453  0.00  0.00    +0.000 N 
ATOM     11  H   UNL     1       6.339   8.272  17.390  0.00  0.00    +0.000 HD
BRANCH   9  12
ATOM     12  O   UNL     1       8.107   6.202  19.470  0.00  0.00    +0.000 OA
ATOM     13  H   UNL     1       7.345   6.036  20.054  0.00  0.00    +0.000 HD
ENDBRANCH   9  12
BRANCH  10  14
ATOM     14  C   UNL     1       8.183   8.604  18.277  0.00  0.00    +0.000 C 
BRANCH  14  15
ATOM     15  C   UNL     1       8.612   9.944  17.627  0.00  0.00    +0.000 C 
BRANCH  15  16
ATOM     16  N   UNL     1       9.182  10.997  18.506  0.00  0.00    +0.000 NA
ATOM     17  C   UNL     1       9.485  10.486  19.854  0.00  0.00    +0.000 C 
ATOM     18  C   UNL     1      10.082  11.577  20.749  0.00  0.00    +0.000 C 
ATOM     19  C   UNL     1      11.335  12.184  20.134  0.00  0.00    +0.000 C 
ATOM     20  C   UNL     1      11.054  12.638  18.707  0.00  0.00    +0.000 C 
ATOM     21  C   UNL     1      10.422  11.515  17.882  0.00  0.00    +0.000 C 
ENDBRANCH  15  16
ENDBRANCH  14  15
ENDBRANCH  10  14
ENDBRANCH   5   8
BRANCH   6  22
ATOM     22  O   UNL     1       4.458   6.498  16.366  0.00  0.00    +0.000 OA
BRANCH  22  23
ATOM     23  C   UNL     1       3.934   5.957  17.527  0.00  0.00    +0.000 A 
ATOM     24  C   UNL     1       3.206   6.822  18.350  0.00  0.00    +0.000 A 
ATOM     25  C   UNL     1       2.545   6.335  19.472  0.00  0.00    +0.000 A 
ATOM     26  C   UNL     1       2.585   4.970  19.772  0.00  0.00    +0.000 A 
ATOM     27  C   UNL     1       3.301   4.076  18.956  0.00  0.00    +0.000 A 
ATOM     28  C   UNL     1       3.981   4.591  17.834  0.00  0.00    +0.000 A 
BRANCH  27  29
ATOM     29  C   UNL     1       3.288   2.593  19.278  0.00  0.00    +0.000 C 
ATOM     30  C   UNL     1       4.257   2.250  20.413  0.00  0.00    +0.000 C 
ATOM     31  C   UNL     1       1.881   2.083  19.603  0.00  0.00    +0.000 C 
ENDBRANCH  27  29
ENDBRANCH  22  23
ENDBRANCH   6  22
TORSDOF 8
ENDMDL
MODEL 3
REMARK VINA RESULT:      -7.9      2.579      7.664
REMARK  Name = 
REMARK  11 active torsions:
REMARK  status: ('A' for Active; 'I' for Inactive)
REMARK    1  A    between atoms: C_1  and  C_2
REMARK    2  A    between atoms: C_5  and  C_6
REMARK    3  A    between atoms: N_7  and  O_8
REMARK    4  A    between atoms: N_9  and  C_10
REMARK    5  A    between atoms: C_10  and  C_11
REMARK    6  A    between atoms: C_11  and  N_12
REMARK    7  A    between atoms: C_18  and  O_19
REMARK    8  A    between atoms: O_19  and  C_20
REMARK    9  A    between atoms: C_24  and  C_25
REMARK   10  A    between atoms: C_25  and  C_26
REMARK   11  A    between atoms: C_25  and  C_27
REMARK                            x       y       z     vdW  Elec       q    Type
REMARK                         _______ _______ _______ _____ _____    ______ ____
ROOT
ATOM      1  C   UNL     1       8.601   8.881  17.422  0.00  0.00    +0.000 C 
ATOM      2  C   UNL     1       7.740   7.699  17.739  0.00  0.00    +0.000 A 
ATOM      3  C   UNL     1       7.877   7.002  18.928  0.00  0.00    +0.000 A 
ATOM      4  C   UNL     1       7.123   5.847  19.126  0.00  0.00    +0.000 A 
ATOM      5  C   UNL     1       6.237   5.397  18.133  0.00  0.00    +0.000 A 
ATOM      6  C   UNL     1       6.112   6.202  16.990  0.00  0.00    +0.000 A 
ATOM      7  N   UNL     1       6.861   7.323  16.784  0.00  0.00    +0.000 NA
ENDROOT
BRANCH   5   8
ATOM      8  C   UNL     1       5.591   4.037  18.316  0.00  0.00    +0.000 C 
ATOM      9  N   UNL     1       5.637   3.556  19.525  0.00  0.00    +0.000 NA
ATOM     10  N   UNL     1       4.951   3.480  17.202  0.00  0.00    +0.000 N 
ATOM     11  H   UNL     1       5.562   3.274  16.415  0.00  0.00    +0.000 HD
BRANCH   9  12
ATOM     12  O   UNL     1       5.065   2.291  19.659  0.00  0.00    +0.000 OA
ATOM     13  H   UNL     1       5.676   1.862  20.284  0.00  0.00    +0.000 HD
ENDBRANCH   9  12
BRANCH  10  14
ATOM     14  C   UNL     1       3.828   2.554  17.293  0.00  0.00    +0.000 C 
BRANCH  14  15
ATOM     15  C   UNL     1       2.450   3.264  17.282  0.00  0.00    +0.000 C 
BRANCH  15  16
ATOM     16  N   UNL     1       1.763   3.477  18.582  0.00  0.00    +0.000 NA
ATOM     17  C   UNL     1       2.029   2.382  19.532  0.00  0.00    +0.000 C 
ATOM     18  C   UNL     1       1.326   2.618  20.873  0.00  0.00    +0.000 C 
ATOM     19  C   UNL     1       1.728   3.949  21.493  0.00  0.00    +0.000 C 
ATOM     20  C   UNL     1       1.539   5.077  20.486  0.00  0.00    +0.000 C 
ATOM     21  C   UNL     1       2.230   4.759  19.159  0.00  0.00    +0.000 C 
ENDBRANCH  15  16
ENDBRANCH  14  15
ENDBRANCH  10  14
ENDBRANCH   5   8
BRANCH   6  22
ATOM     22  O   UNL     1       5.239   5.839  15.975  0.00  0.00    +0.000 OA
BRANCH  22  23
ATOM     23  C   UNL     1       5.747   5.275  14.818  0.00  0.00    +0.000 A 
ATOM     24  C   UNL     1       7.106   5.482  14.562  0.00  0.00    +0.000 A 
ATOM     25  C   UNL     1       7.725   4.852  13.488  0.00  0.00    +0.000 A 
ATOM     26  C   UNL     1       6.994   3.987  12.668  0.00  0.00    +0.000 A 
ATOM     27  C   UNL     1       5.629   3.751  12.909  0.00  0.00    +0.000 A 
ATOM     28  C   UNL     1       5.015   4.413  13.991  0.00  0.00    +0.000 A 
BRANCH  27  29
ATOM     29  C   UNL     1       4.873   2.770  12.032  0.00  0.00    +0.000 C 
ATOM     30  C   UNL     1       3.974   3.486  11.021  0.00  0.00    +0.000 C 
ATOM     31  C   UNL     1       5.809   1.790  11.317  0.00  0.00    +0.000 C 
ENDBRANCH  27  29
ENDBRANCH  22  23
ENDBRANCH   6  22
TORSDOF 8
ENDMDL
MODEL 4
REMARK VINA RESULT:      -7.9      1.224      2.385
REMARK  Name = 
REMARK  11 active torsions:
REMARK  status: ('A' for Active; 'I' for Inactive)
REMARK    1  A    between atoms: C_1  and  C_2
REMARK    2  A    between atoms: C_5  and  C_6
REMARK    3  A    between atoms: N_7  and  O_8
REMARK    4  A    between atoms: N_9  and  C_10
REMARK    5  A    between atoms: C_10  and  C_11
REMARK    6  A    between atoms: C_11  and  N_12
REMARK    7  A    between atoms: C_18  and  O_19
REMARK    8  A    between atoms: O_19  and  C_20
REMARK    9  A    between atoms: C_24  and  C_25
REMARK   10  A    between atoms: C_25  and  C_26
REMARK   11  A    between atoms: C_25  and  C_27
REMARK                            x       y       z     vdW  Elec       q    Type
REMARK                         _______ _______ _______ _____ _____    ______ ____
ROOT
ATOM      1  C   UNL     1       5.614   3.180  13.054  0.00  0.00    +0.000 C 
ATOM      2  C   UNL     1       6.000   3.975  14.262  0.00  0.00    +0.000 A 
ATOM      3  C   UNL     1       6.886   5.037  14.175  0.00  0.00    +0.000 A 
ATOM      4  C   UNL     1       7.292   5.675  15.346  0.00  0.00    +0.000 A 
ATOM      5  C   UNL     1       6.810   5.247  16.594  0.00  0.00    +0.000 A 
ATOM      6  C   UNL     1       5.865   4.209  16.580  0.00  0.00    +0.000 A 
ATOM      7  N   UNL     1       5.478   3.569  15.440  0.00  0.00    +0.000 NA
ENDROOT
BRANCH   5   8
ATOM      8  C   UNL     1       7.431   5.844  17.842  0.00  0.00    +0.000 C 
ATOM      9  N   UNL     1       7.889   4.982  18.704  0.00  0.00    +0.000 NA
ATOM     10  N   UNL     1       7.520   7.239  17.905  0.00  0.00    +0.000 N 
ATOM     11  H   UNL     1       6.626   7.727  17.910  0.00  0.00    +0.000 HD
BRANCH   9  12
ATOM     12  O   UNL     1       8.425   5.555  19.856  0.00  0.00    +0.000 OA
ATOM     13  H   UNL     1       9.143   6.102  19.490  0.00  0.00    +0.000 HD
ENDBRANCH   9  12
BRANCH  10  14
ATOM     14  C   UNL     1       8.547   7.952  18.656  0.00  0.00    +0.000 C 
BRANCH  14  15
ATOM     15  C   UNL     1       8.537   9.481  18.404  0.00  0.00    +0.000 C 
BRANCH  15  16
ATOM     16  N   UNL     1       9.685  10.280  18.906  0.00  0.00    +0.000 NA
ATOM     17  C   UNL     1      10.193  11.216  17.887  0.00  0.00    +0.000 C 
ATOM     18  C   UNL     1      11.369  12.041  18.419  0.00  0.00    +0.000 C 
ATOM     19  C   UNL     1      10.994  12.806  19.680  0.00  0.00    +0.000 C 
ATOM     20  C   UNL     1      10.386  11.860  20.708  0.00  0.00    +0.000 C 
ATOM     21  C   UNL     1       9.248  11.038  20.102  0.00  0.00    +0.000 C 
ENDBRANCH  15  16
ENDBRANCH  14  15
ENDBRANCH  10  14
ENDBRANCH   5   8
BRANCH   6  22
ATOM     22  O   UNL     1       5.324   3.745  17.771  0.00  0.00    +0.000 OA
BRANCH  22  23
ATOM     23  C   UNL     1       4.048   4.142  18.131  0.00  0.00    +0.000 A 
ATOM     24  C   UNL     1       3.204   3.153  18.647  0.00  0.00    +0.000 A 
ATOM     25  C   UNL     1       1.950   3.487  19.145  0.00  0.00    +0.000 A 
ATOM     26  C   UNL     1       1.533   4.822  19.154  0.00  0.00    +0.000 A 
ATOM     27  C   UNL     1       2.365   5.838  18.652  0.00  0.00    +0.000 A 
ATOM     28  C   UNL     1       3.625   5.478  18.134  0.00  0.00    +0.000 A 
BRANCH  27  29
ATOM     29  C   UNL     1       1.906   7.283  18.719  0.00  0.00    +0.000 C 
ATOM     30  C   UNL     1       1.928   7.821  20.152  0.00  0.00    +0.000 C 
ATOM     31  C   UNL     1       2.719   8.193  17.793  0.00  0.00    +0.000 C 
ENDBRANCH  27  29
ENDBRANCH  22  23
ENDBRANCH   6  22
TORSDOF 8
ENDMDL
MODEL 5
REMARK VINA RESULT:      -7.8      1.280      2.405
REMARK  Name = 
REMARK  11 active torsions:
REMARK  status: ('A' for Active; 'I' for Inactive)
REMARK    1  A    between atoms: C_1  and  C_2
REMARK    2  A    between atoms: C_5  and  C_6
REMARK    3  A    between atoms: N_7  and  O_8
REMARK    4  A    between atoms: N_9  and  C_10
REMARK    5  A    between atoms: C_10  and  C_11
REMARK    6  A    between atoms: C_11  and  N_12
REMARK    7  A    between atoms: C_18  and  O_19
REMARK    8  A    between atoms: O_19  and  C_20
REMARK    9  A    between atoms: C_24  and  C_25
REMARK   10  A    between atoms: C_25  and  C_26
REMARK   11  A    between atoms: C_25  and  C_27
REMARK                            x       y       z     vdW  Elec       q    Type
REMARK                         _______ _______ _______ _____ _____    ______ ____
ROOT
ATOM      1  C   UNL     1       6.160   3.144  12.539  0.00  0.00    +0.000 C 
ATOM      2  C   UNL     1       6.369   3.987  13.758  0.00  0.00    +0.000 A 
ATOM      3  C   UNL     1       7.164   5.122  13.724  0.00  0.00    +0.000 A 
ATOM      4  C   UNL     1       7.410   5.810  14.911  0.00  0.00    +0.000 A 
ATOM      5  C   UNL     1       6.860   5.358  16.122  0.00  0.00    +0.000 A 
ATOM      6  C   UNL     1       6.014   4.240  16.051  0.00  0.00    +0.000 A 
ATOM      7  N   UNL     1       5.785   3.553  14.896  0.00  0.00    +0.000 NA
ENDROOT
BRANCH   5   8
ATOM      8  C   UNL     1       7.317   6.025  17.406  0.00  0.00    +0.000 C 
ATOM      9  N   UNL     1       7.754   5.217  18.329  0.00  0.00    +0.000 NA
ATOM     10  N   UNL     1       7.296   7.424  17.440  0.00  0.00    +0.000 N 
ATOM     11  H   UNL     1       6.372   7.842  17.350  0.00  0.00    +0.000 HD
BRANCH   9  12
ATOM     12  O   UNL     1       8.137   5.852  19.510  0.00  0.00    +0.000 OA
ATOM     13  H   UNL     1       8.141   6.788  19.240  0.00  0.00    +0.000 HD
ENDBRANCH   9  12
BRANCH  10  14
ATOM     14  C   UNL     1       8.193   8.227  18.263  0.00  0.00    +0.000 C 
BRANCH  14  15
ATOM     15  C   UNL     1       8.594   9.569  17.598  0.00  0.00    +0.000 C 
BRANCH  15  16
ATOM     16  N   UNL     1       8.979  10.699  18.482  0.00  0.00    +0.000 NA
ATOM     17  C   UNL     1       9.344  10.242  19.834  0.00  0.00    +0.000 C 
ATOM     18  C   UNL     1       9.750  11.414  20.733  0.00  0.00    +0.000 C 
ATOM     19  C   UNL     1      10.897  12.214  20.132  0.00  0.00    +0.000 C 
ATOM     20  C   UNL     1      10.564  12.616  18.700  0.00  0.00    +0.000 C 
ATOM     21  C   UNL     1      10.128  11.408  17.871  0.00  0.00    +0.000 C 
ENDBRANCH  15  16
ENDBRANCH  14  15
ENDBRANCH  10  14
ENDBRANCH   5   8
BRANCH   6  22
ATOM     22  O   UNL     1       5.413   3.748  17.201  0.00  0.00    +0.000 OA
BRANCH  22  23
ATOM     23  C   UNL     1       4.168   4.224  17.568  0.00  0.00    +0.000 A 
ATOM     24  C   UNL     1       3.089   3.349  17.414  0.00  0.00    +0.000 A 
ATOM     25  C   UNL     1       1.823   3.702  17.869  0.00  0.00    +0.000 A 
ATOM     26  C   UNL     1       1.627   4.931  18.507  0.00  0.00    +0.000 A 
ATOM     27  C   UNL     1       2.696   5.827  18.685  0.00  0.00    +0.000 A 
ATOM     28  C   UNL     1       3.967   5.459  18.200  0.00  0.00    +0.000 A 
BRANCH  27  29
ATOM     29  C   UNL     1       2.464   7.132  19.424  0.00  0.00    +0.000 C 
ATOM     30  C   UNL     1       2.137   8.278  18.463  0.00  0.00    +0.000 C 
ATOM     31  C   UNL     1       1.376   7.006  20.496  0.00  0.00    +0.000 C 
ENDBRANCH  27  29
ENDBRANCH  22  23
ENDBRANCH   6  22
TORSDOF 8
ENDMDL
MODEL 6
REMARK VINA RESULT:      -7.7      1.025      1.765
REMARK  Name = 
REMARK  11 active torsions:
REMARK  status: ('A' for Active; 'I' for Inactive)
REMARK    1  A    between atoms: C_1  and  C_2
REMARK    2  A    between atoms: C_5  and  C_6
REMARK    3  A    between atoms: N_7  and  O_8
REMARK    4  A    between atoms: N_9  and  C_10
REMARK    5  A    between atoms: C_10  and  C_11
REMARK    6  A    between atoms: C_11  and  N_12
REMARK    7  A    between atoms: C_18  and  O_19
REMARK    8  A    between atoms: O_19  and  C_20
REMARK    9  A    between atoms: C_24  and  C_25
REMARK   10  A    between atoms: C_25  and  C_26
REMARK   11  A    between atoms: C_25  and  C_27
REMARK                            x       y       z     vdW  Elec       q    Type
REMARK                         _______ _______ _______ _____ _____    ______ ____
ROOT
ATOM      1  C   UNL     1       5.479   3.334  12.563  0.00  0.00    +0.000 C 
ATOM      2  C   UNL     1       5.930   4.217  13.685  0.00  0.00    +0.000 A 
ATOM      3  C   UNL     1       7.244   4.645  13.784  0.00  0.00    +0.000 A 
ATOM      4  C   UNL     1       7.632   5.377  14.905  0.00  0.00    +0.000 A 
ATOM      5  C   UNL     1       6.705   5.673  15.918  0.00  0.00    +0.000 A 
ATOM      6  C   UNL     1       5.383   5.257  15.701  0.00  0.00    +0.000 A 
ATOM      7  N   UNL     1       5.001   4.526  14.615  0.00  0.00    +0.000 NA
ENDROOT
BRANCH   5   8
ATOM      8  C   UNL     1       7.224   6.298  17.199  0.00  0.00    +0.000 C 
ATOM      9  N   UNL     1       7.584   5.455  18.125  0.00  0.00    +0.000 NA
ATOM     10  N   UNL     1       7.335   7.693  17.229  0.00  0.00    +0.000 N 
ATOM     11  H   UNL     1       6.455   8.196  17.139  0.00  0.00    +0.000 HD
BRANCH   9  12
ATOM     12  O   UNL     1       8.026   6.055  19.303  0.00  0.00    +0.000 OA
ATOM     13  H   UNL     1       7.186   6.236  19.761  0.00  0.00    +0.000 HD
ENDBRANCH   9  12
BRANCH  10  14
ATOM     14  C   UNL     1       8.305   8.410  18.049  0.00  0.00    +0.000 C 
BRANCH  14  15
ATOM     15  C   UNL     1       8.126   9.949  18.001  0.00  0.00    +0.000 C 
BRANCH  15  16
ATOM     16  N   UNL     1       9.312  10.800  18.276  0.00  0.00    +0.000 NA
ATOM     17  C   UNL     1       9.093  12.199  17.871  0.00  0.00    +0.000 C 
ATOM     18  C   UNL     1      10.319  13.069  18.171  0.00  0.00    +0.000 C 
ATOM     19  C   UNL     1      10.703  13.012  19.642  0.00  0.00    +0.000 C 
ATOM     20  C   UNL     1      10.846  11.564  20.093  0.00  0.00    +0.000 C 
ATOM     21  C   UNL     1       9.608  10.744  19.727  0.00  0.00    +0.000 C 
ENDBRANCH  15  16
ENDBRANCH  14  15
ENDBRANCH  10  14
ENDBRANCH   5   8
BRANCH   6  22
ATOM     22  O   UNL     1       4.403   5.534  16.644  0.00  0.00    +0.000 OA
BRANCH  22  23
ATOM     23  C   UNL     1       3.881   4.498  17.398  0.00  0.00    +0.000 A 
ATOM     24  C   UNL     1       4.344   3.211  17.105  0.00  0.00    +0.000 A 
ATOM     25  C   UNL     1       3.964   2.129  17.891  0.00  0.00    +0.000 A 
ATOM     26  C   UNL     1       3.131   2.326  18.996  0.00  0.00    +0.000 A 
ATOM     27  C   UNL     1       2.659   3.610  19.321  0.00  0.00    +0.000 A 
ATOM     28  C   UNL     1       3.039   4.691  18.501  0.00  0.00    +0.000 A 
BRANCH  27  29
ATOM     29  C   UNL     1       1.795   3.800  20.554  0.00  0.00    +0.000 C 
ATOM     30  C   UNL     1       0.332   3.437  20.286  0.00  0.00    +0.000 C 
ATOM     31  C   UNL     1       2.327   3.020  21.761  0.00  0.00    +0.000 C 
ENDBRANCH  27  29
ENDBRANCH  22  23
ENDBRANCH   6  22
TORSDOF 8
ENDMDL
MODEL 7
REMARK VINA RESULT:      -7.7      1.090      2.022
REMARK  Name = 
REMARK  11 active torsions:
REMARK  status: ('A' for Active; 'I' for Inactive)
REMARK    1  A    between atoms: C_1  and  C_2
REMARK    2  A    between atoms: C_5  and  C_6
REMARK    3  A    between atoms: N_7  and  O_8
REMARK    4  A    between atoms: N_9  and  C_10
REMARK    5  A    between atoms: C_10  and  C_11
REMARK    6  A    between atoms: C_11  and  N_12
REMARK    7  A    between atoms: C_18  and  O_19
REMARK    8  A    between atoms: O_19  and  C_20
REMARK    9  A    between atoms: C_24  and  C_25
REMARK   10  A    between atoms: C_25  and  C_26
REMARK   11  A    between atoms: C_25  and  C_27
REMARK                            x       y       z     vdW  Elec       q    Type
REMARK                         _______ _______ _______ _____ _____    ______ ____
ROOT
ATOM      1  C   UNL     1       5.409   3.310  12.670  0.00  0.00    +0.000 C 
ATOM      2  C   UNL     1       5.887   4.235  13.746  0.00  0.00    +0.000 A 
ATOM      3  C   UNL     1       7.205   4.657  13.804  0.00  0.00    +0.000 A 
ATOM      4  C   UNL     1       7.619   5.432  14.886  0.00  0.00    +0.000 A 
ATOM      5  C   UNL     1       6.712   5.778  15.902  0.00  0.00    +0.000 A 
ATOM      6  C   UNL     1       5.383   5.363  15.726  0.00  0.00    +0.000 A 
ATOM      7  N   UNL     1       4.976   4.590  14.679  0.00  0.00    +0.000 NA
ENDROOT
BRANCH   5   8
ATOM      8  C   UNL     1       7.258   6.452  17.146  0.00  0.00    +0.000 C 
ATOM      9  N   UNL     1       7.589   5.648  18.116  0.00  0.00    +0.000 NA
ATOM     10  N   UNL     1       7.423   7.841  17.099  0.00  0.00    +0.000 N 
ATOM     11  H   UNL     1       6.562   8.372  16.982  0.00  0.00    +0.000 HD
BRANCH   9  12
ATOM     12  O   UNL     1       8.057   6.294  19.259  0.00  0.00    +0.000 OA
ATOM     13  H   UNL     1       7.891   7.229  19.042  0.00  0.00    +0.000 HD
ENDBRANCH   9  12
BRANCH  10  14
ATOM     14  C   UNL     1       8.421   8.565  17.878  0.00  0.00    +0.000 C 
BRANCH  14  15
ATOM     15  C   UNL     1       7.972   9.996  18.267  0.00  0.00    +0.000 C 
BRANCH  15  16
ATOM     16  N   UNL     1       9.018  10.973  18.667  0.00  0.00    +0.000 NA
ATOM     17  C   UNL     1       9.382  10.840  20.088  0.00  0.00    +0.000 C 
ATOM     18  C   UNL     1      10.469  11.844  20.485  0.00  0.00    +0.000 C 
ATOM     19  C   UNL     1      11.712  11.700  19.619  0.00  0.00    +0.000 C 
ATOM     20  C   UNL     1      11.333  11.748  18.143  0.00  0.00    +0.000 C 
ATOM     21  C   UNL     1      10.217  10.752  17.824  0.00  0.00    +0.000 C 
ENDBRANCH  15  16
ENDBRANCH  14  15
ENDBRANCH  10  14
ENDBRANCH   5   8
BRANCH   6  22
ATOM     22  O   UNL     1       4.422   5.687  16.674  0.00  0.00    +0.000 OA
BRANCH  22  23
ATOM     23  C   UNL     1       3.934   4.695  17.505  0.00  0.00    +0.000 A 
ATOM     24  C   UNL     1       4.261   3.377  17.170  0.00  0.00    +0.000 A 
ATOM     25  C   UNL     1       3.914   2.329  18.015  0.00  0.00    +0.000 A 
ATOM     26  C   UNL     1       3.254   2.589  19.220  0.00  0.00    +0.000 A 
ATOM     27  C   UNL     1       2.922   3.905  19.587  0.00  0.00    +0.000 A 
ATOM     28  C   UNL     1       3.265   4.953  18.709  0.00  0.00    +0.000 A 
BRANCH  27  29
ATOM     29  C   UNL     1       2.249   4.163  20.922  0.00  0.00    +0.000 C 
ATOM     30  C   UNL     1       1.538   5.519  20.948  0.00  0.00    +0.000 C 
ATOM     31  C   UNL     1       1.278   3.042  21.308  0.00  0.00    +0.000 C 
ENDBRANCH  27  29
ENDBRANCH  22  23
ENDBRANCH   6  22
TORSDOF 8
ENDMDL
MODEL 8
REMARK VINA RESULT:      -7.5      3.678      6.476
REMARK  Name = 
REMARK  11 active torsions:
REMARK  status: ('A' for Active; 'I' for Inactive)
REMARK    1  A    between atoms: C_1  and  C_2
REMARK    2  A    between atoms: C_5  and  C_6
REMARK    3  A    between atoms: N_7  and  O_8
REMARK    4  A    between atoms: N_9  and  C_10
REMARK    5  A    between atoms: C_10  and  C_11
REMARK    6  A    between atoms: C_11  and  N_12
REMARK    7  A    between atoms: C_18  and  O_19
REMARK    8  A    between atoms: O_19  and  C_20
REMARK    9  A    between atoms: C_24  and  C_25
REMARK   10  A    between atoms: C_25  and  C_26
REMARK   11  A    between atoms: C_25  and  C_27
REMARK                            x       y       z     vdW  Elec       q    Type
REMARK                         _______ _______ _______ _____ _____    ______ ____
ROOT
ATOM      1  C   UNL     1       0.331   2.386  19.009  0.00  0.00    +0.000 C 
ATOM      2  C   UNL     1       1.614   3.132  18.813  0.00  0.00    +0.000 A 
ATOM      3  C   UNL     1       2.636   2.619  18.031  0.00  0.00    +0.000 A 
ATOM      4  C   UNL     1       3.848   3.305  17.969  0.00  0.00    +0.000 A 
ATOM      5  C   UNL     1       4.028   4.497  18.689  0.00  0.00    +0.000 A 
ATOM      6  C   UNL     1       2.917   4.977  19.399  0.00  0.00    +0.000 A 
ATOM      7  N   UNL     1       1.736   4.301  19.479  0.00  0.00    +0.000 NA
ENDROOT
BRANCH   5   8
ATOM      8  C   UNL     1       5.422   5.094  18.742  0.00  0.00    +0.000 C 
ATOM      9  N   UNL     1       6.119   4.790  19.798  0.00  0.00    +0.000 NA
ATOM     10  N   UNL     1       5.839   5.837  17.632  0.00  0.00    +0.000 N 
ATOM     11  H   UNL     1       5.300   6.681  17.451  0.00  0.00    +0.000 HD
BRANCH   9  12
ATOM     12  O   UNL     1       7.383   5.377  19.838  0.00  0.00    +0.000 OA
ATOM     13  H   UNL     1       7.169   6.292  20.092  0.00  0.00    +0.000 HD
ENDBRANCH   9  12
BRANCH  10  14
ATOM     14  C   UNL     1       7.234   5.971  17.226  0.00  0.00    +0.000 C 
BRANCH  14  15
ATOM     15  C   UNL     1       7.405   6.238  15.709  0.00  0.00    +0.000 C 
BRANCH  15  16
ATOM     16  N   UNL     1       7.237   5.094  14.775  0.00  0.00    +0.000 NA
ATOM     17  C   UNL     1       5.830   4.669  14.672  0.00  0.00    +0.000 C 
ATOM     18  C   UNL     1       5.667   3.497  13.698  0.00  0.00    +0.000 C 
ATOM     19  C   UNL     1       6.206   3.836  12.316  0.00  0.00    +0.000 C 
ATOM     20  C   UNL     1       7.632   4.361  12.420  0.00  0.00    +0.000 C 
ATOM     21  C   UNL     1       7.732   5.499  13.438  0.00  0.00    +0.000 C 
ENDBRANCH  15  16
ENDBRANCH  14  15
ENDBRANCH  10  14
ENDBRANCH   5   8
BRANCH   6  22
ATOM     22  O   UNL     1       3.009   6.162  20.116  0.00  0.00    +0.000 OA
BRANCH  22  23
ATOM     23  C   UNL     1       2.456   7.314  19.587  0.00  0.00    +0.000 A 
ATOM     24  C   UNL     1       2.742   7.591  18.247  0.00  0.00    +0.000 A 
ATOM     25  C   UNL     1       2.132   8.661  17.602  0.00  0.00    +0.000 A 
ATOM     26  C   UNL     1       1.208   9.457  18.288  0.00  0.00    +0.000 A 
ATOM     27  C   UNL     1       0.894   9.195  19.633  0.00  0.00    +0.000 A 
ATOM     28  C   UNL     1       1.537   8.118  20.275  0.00  0.00    +0.000 A 
BRANCH  27  29
ATOM     29  C   UNL     1      -0.148  10.045  20.337  0.00  0.00    +0.000 C 
ATOM     30  C   UNL     1       0.494  11.160  21.167  0.00  0.00    +0.000 C 
ATOM     31  C   UNL     1      -1.176  10.628  19.362  0.00  0.00    +0.000 C 
ENDBRANCH  27  29
ENDBRANCH  22  23
ENDBRANCH   6  22
TORSDOF 8
ENDMDL
MODEL 9
REMARK VINA RESULT:      -7.4      4.459      7.977
REMARK  Name = 
REMARK  11 active torsions:
REMARK  status: ('A' for Active; 'I' for Inactive)
REMARK    1  A    between atoms: C_1  and  C_2
REMARK    2  A    between atoms: C_5  and  C_6
REMARK    3  A    between atoms: N_7  and  O_8
REMARK    4  A    between atoms: N_9  and  C_10
REMARK    5  A    between atoms: C_10  and  C_11
REMARK    6  A    between atoms: C_11  and  N_12
REMARK    7  A    between atoms: C_18  and  O_19
REMARK    8  A    between atoms: O_19  and  C_20
REMARK    9  A    between atoms: C_24  and  C_25
REMARK   10  A    between atoms: C_25  and  C_26
REMARK   11  A    between atoms: C_25  and  C_27
REMARK                            x       y       z     vdW  Elec       q    Type
REMARK                         _______ _______ _______ _____ _____    ______ ____
ROOT
ATOM      1  C   UNL     1       2.898   2.606  19.967  0.00  0.00    +0.000 C 
ATOM      2  C   UNL     1       2.750   4.087  19.809  0.00  0.00    +0.000 A 
ATOM      3  C   UNL     1       2.000   4.838  20.700  0.00  0.00    +0.000 A 
ATOM      4  C   UNL     1       1.810   6.195  20.446  0.00  0.00    +0.000 A 
ATOM      5  C   UNL     1       2.369   6.790  19.303  0.00  0.00    +0.000 A 
ATOM      6  C   UNL     1       3.168   5.969  18.494  0.00  0.00    +0.000 A 
ATOM      7  N   UNL     1       3.344   4.637  18.727  0.00  0.00    +0.000 NA
ENDROOT
BRANCH   5   8
ATOM      8  C   UNL     1       1.969   8.216  18.973  0.00  0.00    +0.000 C 
ATOM      9  N   UNL     1       2.198   8.590  17.747  0.00  0.00    +0.000 NA
ATOM     10  N   UNL     1       1.334   8.950  19.982  0.00  0.00    +0.000 N 
ATOM     11  H   UNL     1       1.899   9.120  20.811  0.00  0.00    +0.000 HD
BRANCH   9  12
ATOM     12  O   UNL     1       1.851   9.913  17.479  0.00  0.00    +0.000 OA
ATOM     13  H   UNL     1       2.651  10.390  17.765  0.00  0.00    +0.000 HD
ENDBRANCH   9  12
BRANCH  10  14
ATOM     14  C   UNL     1       0.387  10.029  19.724  0.00  0.00    +0.000 C 
BRANCH  14  15
ATOM     15  C   UNL     1       0.414  11.137  20.808  0.00  0.00    +0.000 C 
BRANCH  15  16
ATOM     16  N   UNL     1      -0.885  11.629  21.336  0.00  0.00    +0.000 NA
ATOM     17  C   UNL     1      -1.047  11.326  22.769  0.00  0.00    +0.000 C 
ATOM     18  C   UNL     1      -2.384  11.848  23.305  0.00  0.00    +0.000 C 
ATOM     19  C   UNL     1      -2.537  13.345  23.074  0.00  0.00    +0.000 C 
ATOM     20  C   UNL     1      -2.283  13.680  21.610  0.00  0.00    +0.000 C 
ATOM     21  C   UNL     1      -0.955  13.094  21.128  0.00  0.00    +0.000 C 
ENDBRANCH  15  16
ENDBRANCH  14  15
ENDBRANCH  10  14
ENDBRANCH   5   8
BRANCH   6  22
ATOM     22  O   UNL     1       3.776   6.490  17.360  0.00  0.00    +0.000 OA
BRANCH  22  23
ATOM     23  C   UNL     1       5.010   6.000  16.971  0.00  0.00    +0.000 A 
ATOM     24  C   UNL     1       5.998   5.930  17.958  0.00  0.00    +0.000 A 
ATOM     25  C   UNL     1       7.227   5.340  17.684  0.00  0.00    +0.000 A 
ATOM     26  C   UNL     1       7.475   4.792  16.422  0.00  0.00    +0.000 A 
ATOM     27  C   UNL     1       6.496   4.838  15.414  0.00  0.00    +0.000 A 
ATOM     28  C   UNL     1       5.263   5.457  15.704  0.00  0.00    +0.000 A 
BRANCH  27  29
ATOM     29  C   UNL     1       6.775   4.192  14.069  0.00  0.00    +0.000 C 
ATOM     30  C   UNL     1       5.482   3.802  13.347  0.00  0.00    +0.000 C 
ATOM     31  C   UNL     1       7.644   5.077  13.170  0.00  0.00    +0.000 C 
ENDBRANCH  27  29
ENDBRANCH  22  23
ENDBRANCH   6  22
TORSDOF 8
ENDMDL
