MODEL 1
REMARK VINA RESULT:      -7.4      0.000      0.000
REMARK  Name = 
REMARK  6 active torsions:
REMARK  status: ('A' for Active; 'I' for Inactive)
REMARK    1  A    between atoms: C_1  and  C_2
REMARK    2  A    between atoms: C_5  and  C_6
REMARK    3  A    between atoms: C_7  and  C_8
REMARK    4  A    between atoms: C_18  and  N_19
REMARK    5  A    between atoms: N_19  and  C_20
REMARK    6  A    between atoms: N_19  and  C_21
REMARK                            x       y       z     vdW  Elec       q    Type
REMARK                         _______ _______ _______ _____ _____    ______ ____
ROOT
ATOM      1  C   UNL     1       5.829   6.830  17.231  0.00  0.00    +0.000 C 
ATOM      2  O   UNL     1       6.215   7.941  16.880  0.00  0.00    +0.000 OA
ATOM      3  N   UNL     1       4.507   6.628  17.682  0.00  0.00    +0.000 N 
ATOM      4  C   UNL     1       3.641   7.800  17.589  0.00  0.00    +0.000 C 
ATOM      5  C   UNL     1       2.142   7.496  17.779  0.00  0.00    +0.000 C 
ATOM      6  C   UNL     1       1.341   8.790  17.989  0.00  0.00    +0.000 C 
ATOM      7  C   UNL     1       1.585   9.395  19.371  0.00  0.00    +0.000 C 
ATOM      8  C   UNL     1       1.412   8.348  20.460  0.00  0.00    +0.000 C 
ATOM      9  O   UNL     1       2.217   7.210  20.194  0.00  0.00    +0.000 OA
ATOM     10  C   UNL     1       1.885   6.550  18.964  0.00  0.00    +0.000 C 
ATOM     11  C   UNL     1       2.759   5.274  18.811  0.00  0.00    +0.000 C 
ATOM     12  C   UNL     1       4.233   5.752  18.833  0.00  0.00    +0.000 C 
ENDROOT
BRANCH   1  19
ATOM     13  C   UNL     1       7.859   5.776  19.520  0.00  0.00    +0.000 C 
ATOM     14  C   UNL     1       7.632   5.236  18.157  0.00  0.00    +0.000 A 
ATOM     15  N   UNL     1       8.333   4.172  17.742  0.00  0.00    +0.000 NA
ATOM     16  O   UNL     1       7.936   3.949  16.441  0.00  0.00    +0.000 OA
ATOM     17  C   UNL     1       7.002   4.867  16.080  0.00  0.00    +0.000 A 
ATOM     18  C   UNL     1       6.546   4.782  14.676  0.00  0.00    +0.000 C 
ATOM     19  C   UNL     1       6.724   5.691  17.155  0.00  0.00    +0.000 A 
ENDBRANCH   1  19
BRANCH  11  20
ATOM     20  N   UNL     1       2.477   4.143  19.736  0.00  0.00    +0.000 NA
ATOM     21  C   UNL     1       3.208   2.928  19.362  0.00  0.00    +0.000 C 
ATOM     22  C   UNL     1       1.058   3.841  19.898  0.00  0.00    +0.000 C 
ENDBRANCH  11  20
TORSDOF 2
ENDMDL
MODEL 2
REMARK VINA RESULT:      -7.0      0.431      1.731
REMARK  Name = 
REMARK  6 active torsions:
REMARK  status: ('A' for Active; 'I' for Inactive)
REMARK    1  A    between atoms: C_1  and  C_2
REMARK    2  A    between atoms: C_5  and  C_6
REMARK    3  A    between atoms: C_7  and  C_8
REMARK    4  A    between atoms: C_18  and  N_19
REMARK    5  A    between atoms: N_19  and  C_20
REMARK    6  A    between atoms: N_19  and  C_21
REMARK                            x       y       z     vdW  Elec       q    Type
REMARK                         _______ _______ _______ _____ _____    ______ ____
ROOT
ATOM      1  C   UNL     1       5.868   6.935  17.265  0.00  0.00    +0.000 C 
ATOM      2  O   UNL     1       6.243   8.057  16.937  0.00  0.00    +0.000 OA
ATOM      3  N   UNL     1       4.542   6.707  17.691  0.00  0.00    +0.000 N 
ATOM      4  C   UNL     1       3.660   7.868  17.603  0.00  0.00    +0.000 C 
ATOM      5  C   UNL     1       2.163   7.539  17.764  0.00  0.00    +0.000 C 
ATOM      6  C   UNL     1       1.340   8.818  17.982  0.00  0.00    +0.000 C 
ATOM      7  C   UNL     1       1.554   9.404  19.377  0.00  0.00    +0.000 C 
ATOM      8  C   UNL     1       1.379   8.338  20.447  0.00  0.00    +0.000 C 
ATOM      9  O   UNL     1       2.205   7.216  20.176  0.00  0.00    +0.000 OA
ATOM     10  C   UNL     1       1.902   6.571  18.930  0.00  0.00    +0.000 C 
ATOM     11  C   UNL     1       2.796   5.310  18.771  0.00  0.00    +0.000 C 
ATOM     12  C   UNL     1       4.263   5.809  18.824  0.00  0.00    +0.000 C 
ENDROOT
BRANCH   1  19
ATOM     13  C   UNL     1       6.228   4.874  14.796  0.00  0.00    +0.000 C 
ATOM     14  C   UNL     1       6.928   4.892  16.105  0.00  0.00    +0.000 A 
ATOM     15  N   UNL     1       7.842   3.951  16.376  0.00  0.00    +0.000 NA
ATOM     16  O   UNL     1       8.268   4.207  17.663  0.00  0.00    +0.000 OA
ATOM     17  C   UNL     1       7.618   5.293  18.156  0.00  0.00    +0.000 A 
ATOM     18  C   UNL     1       7.932   5.629  19.562  0.00  0.00    +0.000 C 
ATOM     19  C   UNL     1       6.781   5.811  17.185  0.00  0.00    +0.000 A 
ENDBRANCH   1  19
BRANCH  11  20
ATOM     20  N   UNL     1       2.517   4.161  19.674  0.00  0.00    +0.000 NA
ATOM     21  C   UNL     1       3.238   2.951  19.267  0.00  0.00    +0.000 C 
ATOM     22  C   UNL     1       1.098   3.862  19.841  0.00  0.00    +0.000 C 
ENDBRANCH  11  20
TORSDOF 2
ENDMDL
MODEL 3
REMARK VINA RESULT:      -6.5      2.821      6.100
REMARK  Name = 
REMARK  6 active torsions:
REMARK  status: ('A' for Active; 'I' for Inactive)
REMARK    1  A    between atoms: C_1  and  C_2
REMARK    2  A    between atoms: C_5  and  C_6
REMARK    3  A    between atoms: C_7  and  C_8
REMARK    4  A    between atoms: C_18  and  N_19
REMARK    5  A    between atoms: N_19  and  C_20
REMARK    6  A    between atoms: N_19  and  C_21
REMARK                            x       y       z     vdW  Elec       q    Type
REMARK                         _______ _______ _______ _____ _____    ______ ____
ROOT
ATOM      1  C   UNL     1       3.384   2.915  18.396  0.00  0.00    +0.000 C 
ATOM      2  O   UNL     1       2.822   2.139  17.629  0.00  0.00    +0.000 OA
ATOM      3  N   UNL     1       4.225   3.938  17.909  0.00  0.00    +0.000 N 
ATOM      4  C   UNL     1       4.275   4.051  16.453  0.00  0.00    +0.000 C 
ATOM      5  C   UNL     1       4.933   5.347  15.941  0.00  0.00    +0.000 C 
ATOM      6  C   UNL     1       5.238   5.252  14.439  0.00  0.00    +0.000 C 
ATOM      7  C   UNL     1       6.415   4.321  14.153  0.00  0.00    +0.000 C 
ATOM      8  C   UNL     1       7.608   4.668  15.031  0.00  0.00    +0.000 C 
ATOM      9  O   UNL     1       7.232   4.696  16.399  0.00  0.00    +0.000 OA
ATOM     10  C   UNL     1       6.230   5.680  16.696  0.00  0.00    +0.000 C 
ATOM     11  C   UNL     1       5.956   5.690  18.226  0.00  0.00    +0.000 C 
ATOM     12  C   UNL     1       5.489   4.258  18.593  0.00  0.00    +0.000 C 
ENDROOT
BRANCH   1  19
ATOM     13  C   UNL     1       1.124   4.438  20.141  0.00  0.00    +0.000 C 
ATOM     14  C   UNL     1       2.177   3.498  20.598  0.00  0.00    +0.000 A 
ATOM     15  N   UNL     1       2.273   3.196  21.900  0.00  0.00    +0.000 NA
ATOM     16  O   UNL     1       3.358   2.353  22.008  0.00  0.00    +0.000 OA
ATOM     17  C   UNL     1       3.906   2.147  20.782  0.00  0.00    +0.000 A 
ATOM     18  C   UNL     1       5.129   1.315  20.770  0.00  0.00    +0.000 C 
ATOM     19  C   UNL     1       3.162   2.813  19.826  0.00  0.00    +0.000 A 
ENDBRANCH   1  19
BRANCH  11  20
ATOM     20  N   UNL     1       7.033   6.218  19.106  0.00  0.00    +0.000 NA
ATOM     21  C   UNL     1       7.928   7.136  18.394  0.00  0.00    +0.000 C 
ATOM     22  C   UNL     1       7.815   5.186  19.781  0.00  0.00    +0.000 C 
ENDBRANCH  11  20
TORSDOF 2
ENDMDL
MODEL 4
REMARK VINA RESULT:      -6.5      1.808      3.995
REMARK  Name = 
REMARK  6 active torsions:
REMARK  status: ('A' for Active; 'I' for Inactive)
REMARK    1  A    between atoms: C_1  and  C_2
REMARK    2  A    between atoms: C_5  and  C_6
REMARK    3  A    between atoms: C_7  and  C_8
REMARK    4  A    between atoms: C_18  and  N_19
REMARK    5  A    between atoms: N_19  and  C_20
REMARK    6  A    between atoms: N_19  and  C_21
REMARK                            x       y       z     vdW  Elec       q    Type
REMARK                         _______ _______ _______ _____ _____    ______ ____
ROOT
ATOM      1  C   UNL     1       5.684   4.240  18.153  0.00  0.00    +0.000 C 
ATOM      2  O   UNL     1       6.059   3.081  18.305  0.00  0.00    +0.000 OA
ATOM      3  N   UNL     1       4.586   4.750  18.879  0.00  0.00    +0.000 N 
ATOM      4  C   UNL     1       4.028   3.835  19.872  0.00  0.00    +0.000 C 
ATOM      5  C   UNL     1       3.053   4.497  20.865  0.00  0.00    +0.000 C 
ATOM      6  C   UNL     1       2.272   3.438  21.657  0.00  0.00    +0.000 C 
ATOM      7  C   UNL     1       1.219   2.742  20.796  0.00  0.00    +0.000 C 
ATOM      8  C   UNL     1       0.358   3.760  20.063  0.00  0.00    +0.000 C 
ATOM      9  O   UNL     1       1.169   4.669  19.335  0.00  0.00    +0.000 OA
ATOM     10  C   UNL     1       2.056   5.434  20.164  0.00  0.00    +0.000 C 
ATOM     11  C   UNL     1       2.829   6.456  19.284  0.00  0.00    +0.000 C 
ATOM     12  C   UNL     1       3.598   5.624  18.226  0.00  0.00    +0.000 C 
ENDROOT
BRANCH   1  19
ATOM     13  C   UNL     1       5.673   4.137  14.919  0.00  0.00    +0.000 C 
ATOM     14  C   UNL     1       6.401   5.065  15.819  0.00  0.00    +0.000 A 
ATOM     15  N   UNL     1       7.189   6.013  15.292  0.00  0.00    +0.000 NA
ATOM     16  O   UNL     1       7.752   6.667  16.367  0.00  0.00    +0.000 OA
ATOM     17  C   UNL     1       7.304   6.121  17.527  0.00  0.00    +0.000 A 
ATOM     18  C   UNL     1       7.893   6.687  18.759  0.00  0.00    +0.000 C 
ATOM     19  C   UNL     1       6.392   5.120  17.244  0.00  0.00    +0.000 A 
ENDBRANCH   1  19
BRANCH  11  20
ATOM     20  N   UNL     1       2.050   7.587  18.713  0.00  0.00    +0.000 NA
ATOM     21  C   UNL     1       2.802   8.311  17.683  0.00  0.00    +0.000 C 
ATOM     22  C   UNL     1       1.539   8.526  19.708  0.00  0.00    +0.000 C 
ENDBRANCH  11  20
TORSDOF 2
ENDMDL
MODEL 5
REMARK VINA RESULT:      -6.4      1.801      4.172
REMARK  Name = 
REMARK  6 active torsions:
REMARK  status: ('A' for Active; 'I' for Inactive)
REMARK    1  A    between atoms: C_1  and  C_2
REMARK    2  A    between atoms: C_5  and  C_6
REMARK    3  A    between atoms: C_7  and  C_8
REMARK    4  A    between atoms: C_18  and  N_19
REMARK    5  A    between atoms: N_19  and  C_20
REMARK    6  A    between atoms: N_19  and  C_21
REMARK                            x       y       z     vdW  Elec       q    Type
REMARK                         _______ _______ _______ _____ _____    ______ ____
ROOT
ATOM      1  C   UNL     1       5.406   3.537  16.828  0.00  0.00    +0.000 C 
ATOM      2  O   UNL     1       5.426   2.356  16.498  0.00  0.00    +0.000 OA
ATOM      3  N   UNL     1       4.593   3.981  17.893  0.00  0.00    +0.000 N 
ATOM      4  C   UNL     1       3.887   2.921  18.610  0.00  0.00    +0.000 C 
ATOM      5  C   UNL     1       3.263   3.368  19.946  0.00  0.00    +0.000 C 
ATOM      6  C   UNL     1       2.282   2.310  20.475  0.00  0.00    +0.000 C 
ATOM      7  C   UNL     1       0.986   2.277  19.665  0.00  0.00    +0.000 C 
ATOM      8  C   UNL     1       0.405   3.674  19.514  0.00  0.00    +0.000 C 
ATOM      9  O   UNL     1       1.375   4.566  18.987  0.00  0.00    +0.000 OA
ATOM     10  C   UNL     1       2.530   4.714  19.825  0.00  0.00    +0.000 C 
ATOM     11  C   UNL     1       3.484   5.773  19.205  0.00  0.00    +0.000 C 
ATOM     12  C   UNL     1       3.855   5.251  17.794  0.00  0.00    +0.000 C 
ENDROOT
BRANCH   1  19
ATOM     13  C   UNL     1       5.881   3.815  13.640  0.00  0.00    +0.000 C 
ATOM     14  C   UNL     1       6.475   4.610  14.743  0.00  0.00    +0.000 A 
ATOM     15  N   UNL     1       7.343   5.591  14.457  0.00  0.00    +0.000 NA
ATOM     16  O   UNL     1       7.744   6.098  15.674  0.00  0.00    +0.000 OA
ATOM     17  C   UNL     1       7.121   5.433  16.680  0.00  0.00    +0.000 A 
ATOM     18  C   UNL     1       7.523   5.834  18.045  0.00  0.00    +0.000 C 
ATOM     19  C   UNL     1       6.252   4.498  16.147  0.00  0.00    +0.000 A 
ENDBRANCH   1  19
BRANCH  11  20
ATOM     20  N   UNL     1       3.030   7.190  19.225  0.00  0.00    +0.000 NA
ATOM     21  C   UNL     1       1.993   7.424  20.235  0.00  0.00    +0.000 C 
ATOM     22  C   UNL     1       2.586   7.694  17.929  0.00  0.00    +0.000 C 
ENDBRANCH  11  20
TORSDOF 2
ENDMDL
MODEL 6
REMARK VINA RESULT:      -6.4      1.812      3.854
REMARK  Name = 
REMARK  6 active torsions:
REMARK  status: ('A' for Active; 'I' for Inactive)
REMARK    1  A    between atoms: C_1  and  C_2
REMARK    2  A    between atoms: C_5  and  C_6
REMARK    3  A    between atoms: C_7  and  C_8
REMARK    4  A    between atoms: C_18  and  N_19
REMARK    5  A    between atoms: N_19  and  C_20
REMARK    6  A    between atoms: N_19  and  C_21
REMARK                            x       y       z     vdW  Elec       q    Type
REMARK                         _______ _______ _______ _____ _____    ______ ____
ROOT
ATOM      1  C   UNL     1       5.738   4.666  18.420  0.00  0.00    +0.000 C 
ATOM      2  O   UNL     1       6.210   3.546  18.252  0.00  0.00    +0.000 OA
ATOM      3  N   UNL     1       4.540   4.849  19.143  0.00  0.00    +0.000 N 
ATOM      4  C   UNL     1       3.995   3.635  19.747  0.00  0.00    +0.000 C 
ATOM      5  C   UNL     1       2.882   3.888  20.782  0.00  0.00    +0.000 C 
ATOM      6  C   UNL     1       2.146   2.585  21.127  0.00  0.00    +0.000 C 
ATOM      7  C   UNL     1       1.239   2.122  19.988  0.00  0.00    +0.000 C 
ATOM      8  C   UNL     1       0.346   3.256  19.510  0.00  0.00    +0.000 C 
ATOM      9  O   UNL     1       1.121   4.400  19.183  0.00  0.00    +0.000 OA
ATOM     10  C   UNL     1       1.858   4.927  20.296  0.00  0.00    +0.000 C 
ATOM     11  C   UNL     1       2.598   6.222  19.856  0.00  0.00    +0.000 C 
ATOM     12  C   UNL     1       3.527   5.815  18.685  0.00  0.00    +0.000 C 
ENDROOT
BRANCH   1  19
ATOM     13  C   UNL     1       8.312   6.149  19.701  0.00  0.00    +0.000 C 
ATOM     14  C   UNL     1       7.552   6.496  18.475  0.00  0.00    +0.000 A 
ATOM     15  N   UNL     1       7.918   7.563  17.751  0.00  0.00    +0.000 NA
ATOM     16  O   UNL     1       7.003   7.646  16.724  0.00  0.00    +0.000 OA
ATOM     17  C   UNL     1       6.099   6.637  16.827  0.00  0.00    +0.000 A 
ATOM     18  C   UNL     1       5.015   6.657  15.821  0.00  0.00    +0.000 C 
ATOM     19  C   UNL     1       6.428   5.832  17.902  0.00  0.00    +0.000 A 
ENDBRANCH   1  19
BRANCH  11  20
ATOM     20  N   UNL     1       1.761   7.419  19.575  0.00  0.00    +0.000 NA
ATOM     21  C   UNL     1       2.307   8.230  18.481  0.00  0.00    +0.000 C 
ATOM     22  C   UNL     1       1.509   8.261  20.741  0.00  0.00    +0.000 C 
ENDBRANCH  11  20
TORSDOF 2
ENDMDL
MODEL 7
REMARK VINA RESULT:      -6.3      2.780      6.076
REMARK  Name = 
REMARK  6 active torsions:
REMARK  status: ('A' for Active; 'I' for Inactive)
REMARK    1  A    between atoms: C_1  and  C_2
REMARK    2  A    between atoms: C_5  and  C_6
REMARK    3  A    between atoms: C_7  and  C_8
REMARK    4  A    between atoms: C_18  and  N_19
REMARK    5  A    between atoms: N_19  and  C_20
REMARK    6  A    between atoms: N_19  and  C_21
REMARK                            x       y       z     vdW  Elec       q    Type
REMARK                         _______ _______ _______ _____ _____    ______ ____
ROOT
ATOM      1  C   UNL     1       3.383   3.023  18.354  0.00  0.00    +0.000 C 
ATOM      2  O   UNL     1       2.814   2.241  17.598  0.00  0.00    +0.000 OA
ATOM      3  N   UNL     1       4.241   4.025  17.852  0.00  0.00    +0.000 N 
ATOM      4  C   UNL     1       4.300   4.111  16.395  0.00  0.00    +0.000 C 
ATOM      5  C   UNL     1       4.978   5.388  15.863  0.00  0.00    +0.000 C 
ATOM      6  C   UNL     1       5.289   5.261  14.364  0.00  0.00    +0.000 C 
ATOM      7  C   UNL     1       6.455   4.308  14.102  0.00  0.00    +0.000 C 
ATOM      8  C   UNL     1       7.648   4.654  14.979  0.00  0.00    +0.000 C 
ATOM      9  O   UNL     1       7.265   4.713  16.344  0.00  0.00    +0.000 OA
ATOM     10  C   UNL     1       6.276   5.716  16.618  0.00  0.00    +0.000 C 
ATOM     11  C   UNL     1       5.995   5.758  18.146  0.00  0.00    +0.000 C 
ATOM     12  C   UNL     1       5.506   4.340  18.537  0.00  0.00    +0.000 C 
ENDROOT
BRANCH   1  19
ATOM     13  C   UNL     1       5.001   1.237  20.513  0.00  0.00    +0.000 C 
ATOM     14  C   UNL     1       3.853   2.151  20.734  0.00  0.00    +0.000 A 
ATOM     15  N   UNL     1       3.359   2.303  21.970  0.00  0.00    +0.000 NA
ATOM     16  O   UNL     1       2.289   3.162  21.839  0.00  0.00    +0.000 OA
ATOM     17  C   UNL     1       2.145   3.526  20.538  0.00  0.00    +0.000 A 
ATOM     18  C   UNL     1       0.981   4.393  20.251  0.00  0.00    +0.000 C 
ATOM     19  C   UNL     1       3.152   2.951  19.784  0.00  0.00    +0.000 A 
ENDBRANCH   1  19
BRANCH  11  20
ATOM     20  N   UNL     1       7.075   6.287  19.021  0.00  0.00    +0.000 NA
ATOM     21  C   UNL     1       7.946   7.232  18.315  0.00  0.00    +0.000 C 
ATOM     22  C   UNL     1       7.881   5.255  19.668  0.00  0.00    +0.000 C 
ENDBRANCH  11  20
TORSDOF 2
ENDMDL
MODEL 8
REMARK VINA RESULT:      -6.2      1.806      3.641
REMARK  Name = 
REMARK  6 active torsions:
REMARK  status: ('A' for Active; 'I' for Inactive)
REMARK    1  A    between atoms: C_1  and  C_2
REMARK    2  A    between atoms: C_5  and  C_6
REMARK    3  A    between atoms: C_7  and  C_8
REMARK    4  A    between atoms: C_18  and  N_19
REMARK    5  A    between atoms: N_19  and  C_20
REMARK    6  A    between atoms: N_19  and  C_21
REMARK                            x       y       z     vdW  Elec       q    Type
REMARK                         _______ _______ _______ _____ _____    ______ ____
ROOT
ATOM      1  C   UNL     1       5.695   4.171  18.165  0.00  0.00    +0.000 C 
ATOM      2  O   UNL     1       6.063   3.012  18.333  0.00  0.00    +0.000 OA
ATOM      3  N   UNL     1       4.598   4.697  18.882  0.00  0.00    +0.000 N 
ATOM      4  C   UNL     1       4.033   3.798  19.886  0.00  0.00    +0.000 C 
ATOM      5  C   UNL     1       3.060   4.479  20.868  0.00  0.00    +0.000 C 
ATOM      6  C   UNL     1       2.272   3.435  21.672  0.00  0.00    +0.000 C 
ATOM      7  C   UNL     1       1.215   2.734  20.819  0.00  0.00    +0.000 C 
ATOM      8  C   UNL     1       0.362   3.747  20.071  0.00  0.00    +0.000 C 
ATOM      9  O   UNL     1       1.180   4.641  19.332  0.00  0.00    +0.000 OA
ATOM     10  C   UNL     1       2.069   5.413  20.153  0.00  0.00    +0.000 C 
ATOM     11  C   UNL     1       2.850   6.418  19.262  0.00  0.00    +0.000 C 
ATOM     12  C   UNL     1       3.616   5.569  18.216  0.00  0.00    +0.000 C 
ENDROOT
BRANCH   1  19
ATOM     13  C   UNL     1       7.818   6.497  18.911  0.00  0.00    +0.000 C 
ATOM     14  C   UNL     1       7.332   6.073  17.575  0.00  0.00    +0.000 A 
ATOM     15  N   UNL     1       7.784   6.698  16.479  0.00  0.00    +0.000 NA
ATOM     16  O   UNL     1       7.120   6.117  15.419  0.00  0.00    +0.000 OA
ATOM     17  C   UNL     1       6.282   5.150  15.874  0.00  0.00    +0.000 A 
ATOM     18  C   UNL     1       5.452   4.498  14.838  0.00  0.00    +0.000 C 
ATOM     19  C   UNL     1       6.409   5.036  17.246  0.00  0.00    +0.000 A 
ENDBRANCH   1  19
BRANCH  11  20
ATOM     20  N   UNL     1       2.079   7.547  18.675  0.00  0.00    +0.000 NA
ATOM     21  C   UNL     1       2.844   8.264  17.650  0.00  0.00    +0.000 C 
ATOM     22  C   UNL     1       1.556   8.491  19.658  0.00  0.00    +0.000 C 
ENDBRANCH  11  20
TORSDOF 2
ENDMDL
MODEL 9
REMARK VINA RESULT:      -6.2      1.834      4.191
REMARK  Name = 
REMARK  6 active torsions:
REMARK  status: ('A' for Active; 'I' for Inactive)
REMARK    1  A    between atoms: C_1  and  C_2
REMARK    2  A    between atoms: C_5  and  C_6
REMARK    3  A    between atoms: C_7  and  C_8
REMARK    4  A    between atoms: C_18  and  N_19
REMARK    5  A    between atoms: N_19  and  C_20
REMARK    6  A    between atoms: N_19  and  C_21
REMARK                            x       y       z     vdW  Elec       q    Type
REMARK                         _______ _______ _______ _____ _____    ______ ____
ROOT
ATOM      1  C   UNL     1       5.749   4.636  18.467  0.00  0.00    +0.000 C 
ATOM      2  O   UNL     1       6.223   3.528  18.236  0.00  0.00    +0.000 OA
ATOM      3  N   UNL     1       4.518   4.773  19.145  0.00  0.00    +0.000 N 
ATOM      4  C   UNL     1       3.939   3.521  19.626  0.00  0.00    +0.000 C 
ATOM      5  C   UNL     1       2.779   3.702  20.624  0.00  0.00    +0.000 C 
ATOM      6  C   UNL     1       2.022   2.382  20.831  0.00  0.00    +0.000 C 
ATOM      7  C   UNL     1       1.168   2.016  19.618  0.00  0.00    +0.000 C 
ATOM      8  C   UNL     1       0.304   3.192  19.188  0.00  0.00    +0.000 C 
ATOM      9  O   UNL     1       1.099   4.351  18.988  0.00  0.00    +0.000 OA
ATOM     10  C   UNL     1       1.785   4.784  20.172  0.00  0.00    +0.000 C 
ATOM     11  C   UNL     1       2.551   6.102  19.870  0.00  0.00    +0.000 C 
ATOM     12  C   UNL     1       3.534   5.780  18.716  0.00  0.00    +0.000 C 
ENDROOT
BRANCH   1  19
ATOM     13  C   UNL     1       5.213   6.480  15.863  0.00  0.00    +0.000 C 
ATOM     14  C   UNL     1       6.244   6.636  16.918  0.00  0.00    +0.000 A 
ATOM     15  N   UNL     1       7.114   7.652  16.846  0.00  0.00    +0.000 NA
ATOM     16  O   UNL     1       7.958   7.497  17.925  0.00  0.00    +0.000 OA
ATOM     17  C   UNL     1       7.596   6.400  18.641  0.00  0.00    +0.000 A 
ATOM     18  C   UNL     1       8.471   6.079  19.788  0.00  0.00    +0.000 C 
ATOM     19  C   UNL     1       6.468   5.833  18.075  0.00  0.00    +0.000 A 
ENDBRANCH   1  19
BRANCH  11  20
ATOM     20  N   UNL     1       1.735   7.325  19.643  0.00  0.00    +0.000 NA
ATOM     21  C   UNL     1       2.275   8.158  18.564  0.00  0.00    +0.000 C 
ATOM     22  C   UNL     1       1.524   8.136  20.839  0.00  0.00    +0.000 C 
ENDBRANCH  11  20
TORSDOF 2
ENDMDL
