MODEL 1
REMARK VINA RESULT:      -6.8      0.000      0.000
REMARK  Name = 
REMARK  2 active torsions:
REMARK  status: ('A' for Active; 'I' for Inactive)
REMARK    1  A    between atoms: C_2  and  C_5
REMARK    2  A    between atoms: C_10  and  C_11
REMARK                            x       y       z     vdW  Elec       q    Type
REMARK                         _______ _______ _______ _____ _____    ______ ____
ROOT
ATOM      1  C   UNL     1       3.932   3.883  17.982  0.00  0.00    +0.000 C 
ATOM      2  C   UNL     1       2.692   4.503  17.229  0.00  0.00    +0.000 C 
ATOM      3  N   UNL     1       1.979   5.627  17.917  0.00  0.00    +0.000 NA
ATOM      4  C   UNL     1       2.174   6.940  17.278  0.00  0.00    +0.000 C 
ATOM      5  C   UNL     1       3.457   7.474  17.856  0.00  0.00    +0.000 C 
ATOM      6  C   UNL     1       3.345   7.072  19.320  0.00  0.00    +0.000 C 
ATOM      7  C   UNL     1       2.372   5.844  19.327  0.00  0.00    +0.000 C 
ATOM      8  C   UNL     1       2.709   4.512  20.027  0.00  0.00    +0.000 A 
ATOM      9  C   UNL     1       2.234   4.188  21.314  0.00  0.00    +0.000 A 
ATOM     10  C   UNL     1       2.488   2.923  21.868  0.00  0.00    +0.000 A 
ATOM     11  C   UNL     1       3.184   1.954  21.133  0.00  0.00    +0.000 A 
ATOM     12  C   UNL     1       3.642   2.254  19.857  0.00  0.00    +0.000 A 
ATOM     13  C   UNL     1       3.437   3.535  19.327  0.00  0.00    +0.000 A 
ENDROOT
BRANCH   1  19
ATOM     14  C   UNL     1       5.989   5.320  16.902  0.00  0.00    +0.000 A 
ATOM     15  C   UNL     1       7.202   5.967  17.217  0.00  0.00    +0.000 A 
ATOM     16  C   UNL     1       7.658   6.087  18.519  0.00  0.00    +0.000 A 
ATOM     17  C   UNL     1       6.912   5.585  19.566  0.00  0.00    +0.000 A 
ATOM     18  C   UNL     1       5.718   4.926  19.323  0.00  0.00    +0.000 A 
ATOM     19  C   UNL     1       5.237   4.713  18.007  0.00  0.00    +0.000 A 
BRANCH  14  21
ATOM     20  F   UNL     1       6.740   5.361  14.581  0.00  0.00    +0.000 F 
ATOM     21  C   UNL     1       5.619   5.353  15.391  0.00  0.00    +0.000 C 
ATOM     22  F   UNL     1       4.929   6.506  15.089  0.00  0.00    +0.000 F 
ATOM     23  F   UNL     1       4.908   4.263  14.959  0.00  0.00    +0.000 F 
ENDBRANCH  14  21
ENDBRANCH   1  19
TORSDOF 2
ENDMDL
MODEL 2
REMARK VINA RESULT:      -6.6      8.823     11.393
REMARK  Name = 
REMARK  2 active torsions:
REMARK  status: ('A' for Active; 'I' for Inactive)
REMARK    1  A    between atoms: C_2  and  C_5
REMARK    2  A    between atoms: C_10  and  C_11
REMARK                            x       y       z     vdW  Elec       q    Type
REMARK                         _______ _______ _______ _____ _____    ______ ____
ROOT
ATOM      1  C   UNL     1       8.887  13.953  18.239  0.00  0.00    +0.000 C 
ATOM      2  C   UNL     1       9.919  13.647  17.085  0.00  0.00    +0.000 C 
ATOM      3  N   UNL     1      11.294  14.220  17.242  0.00  0.00    +0.000 NA
ATOM      4  C   UNL     1      12.333  13.213  17.524  0.00  0.00    +0.000 C 
ATOM      5  C   UNL     1      12.303  13.023  19.016  0.00  0.00    +0.000 C 
ATOM      6  C   UNL     1      12.114  14.446  19.522  0.00  0.00    +0.000 C 
ATOM      7  C   UNL     1      11.437  15.210  18.333  0.00  0.00    +0.000 C 
ATOM      8  C   UNL     1      10.155  16.051  18.499  0.00  0.00    +0.000 A 
ATOM      9  C   UNL     1      10.179  17.451  18.652  0.00  0.00    +0.000 A 
ATOM     10  C   UNL     1       8.981  18.182  18.703  0.00  0.00    +0.000 A 
ATOM     11  C   UNL     1       7.748  17.532  18.560  0.00  0.00    +0.000 A 
ATOM     12  C   UNL     1       7.710  16.154  18.390  0.00  0.00    +0.000 A 
ATOM     13  C   UNL     1       8.904  15.419  18.397  0.00  0.00    +0.000 A 
ENDROOT
BRANCH   1  19
ATOM     14  C   UNL     1       9.202  11.752  19.826  0.00  0.00    +0.000 A 
ATOM     15  C   UNL     1       9.278  11.331  21.169  0.00  0.00    +0.000 A 
ATOM     16  C   UNL     1       9.283  12.227  22.225  0.00  0.00    +0.000 A 
ATOM     17  C   UNL     1       9.234  13.585  21.985  0.00  0.00    +0.000 A 
ATOM     18  C   UNL     1       9.144  14.064  20.687  0.00  0.00    +0.000 A 
ATOM     19  C   UNL     1       9.066  13.192  19.573  0.00  0.00    +0.000 A 
BRANCH  14  21
ATOM     20  F   UNL     1      10.456  10.633  18.057  0.00  0.00    +0.000 F 
ATOM     21  C   UNL     1       9.282  10.597  18.786  0.00  0.00    +0.000 C 
ATOM     22  F   UNL     1       8.263  10.707  17.866  0.00  0.00    +0.000 F 
ATOM     23  F   UNL     1       9.274   9.340  19.336  0.00  0.00    +0.000 F 
ENDBRANCH  14  21
ENDBRANCH   1  19
TORSDOF 2
ENDMDL
MODEL 3
REMARK VINA RESULT:      -6.2      7.093      9.398
REMARK  Name = 
REMARK  2 active torsions:
REMARK  status: ('A' for Active; 'I' for Inactive)
REMARK    1  A    between atoms: C_2  and  C_5
REMARK    2  A    between atoms: C_10  and  C_11
REMARK                            x       y       z     vdW  Elec       q    Type
REMARK                         _______ _______ _______ _____ _____    ______ ____
ROOT
ATOM      1  C   UNL     1      -1.397  11.889  19.370  0.00  0.00    +0.000 C 
ATOM      2  C   UNL     1      -0.560  12.755  18.351  0.00  0.00    +0.000 C 
ATOM      3  N   UNL     1       0.179  13.930  18.914  0.00  0.00    +0.000 NA
ATOM      4  C   UNL     1       1.643  13.762  18.937  0.00  0.00    +0.000 C 
ATOM      5  C   UNL     1       1.936  13.034  20.221  0.00  0.00    +0.000 C 
ATOM      6  C   UNL     1       0.982  13.704  21.200  0.00  0.00    +0.000 C 
ATOM      7  C   UNL     1      -0.172  14.278  20.308  0.00  0.00    +0.000 C 
ATOM      8  C   UNL     1      -1.663  14.011  20.595  0.00  0.00    +0.000 A 
ATOM      9  C   UNL     1      -2.485  14.933  21.275  0.00  0.00    +0.000 A 
ATOM     10  C   UNL     1      -3.858  14.685  21.426  0.00  0.00    +0.000 A 
ATOM     11  C   UNL     1      -4.437  13.538  20.868  0.00  0.00    +0.000 A 
ATOM     12  C   UNL     1      -3.644  12.630  20.180  0.00  0.00    +0.000 A 
ATOM     13  C   UNL     1      -2.263  12.849  20.079  0.00  0.00    +0.000 A 
ENDROOT
BRANCH   1  19
ATOM     14  C   UNL     1       0.424   9.960  20.024  0.00  0.00    +0.000 A 
ATOM     15  C   UNL     1       0.919   9.192  21.097  0.00  0.00    +0.000 A 
ATOM     16  C   UNL     1       0.499   9.390  22.402  0.00  0.00    +0.000 A 
ATOM     17  C   UNL     1      -0.418  10.379  22.695  0.00  0.00    +0.000 A 
ATOM     18  C   UNL     1      -0.952  11.160  21.682  0.00  0.00    +0.000 A 
ATOM     19  C   UNL     1      -0.611  10.956  20.322  0.00  0.00    +0.000 A 
BRANCH  14  21
ATOM     20  F   UNL     1       0.133   9.531  17.639  0.00  0.00    +0.000 F 
ATOM     21  C   UNL     1       1.073   9.631  18.647  0.00  0.00    +0.000 C 
ATOM     22  F   UNL     1       1.706   8.409  18.694  0.00  0.00    +0.000 F 
ATOM     23  F   UNL     1       1.946  10.585  18.191  0.00  0.00    +0.000 F 
ENDBRANCH  14  21
ENDBRANCH   1  19
TORSDOF 2
ENDMDL
MODEL 4
REMARK VINA RESULT:      -6.2      9.140     11.036
REMARK  Name = 
REMARK  2 active torsions:
REMARK  status: ('A' for Active; 'I' for Inactive)
REMARK    1  A    between atoms: C_2  and  C_5
REMARK    2  A    between atoms: C_10  and  C_11
REMARK                            x       y       z     vdW  Elec       q    Type
REMARK                         _______ _______ _______ _____ _____    ______ ____
ROOT
ATOM      1  C   UNL     1      10.310  14.168  20.679  0.00  0.00    +0.000 C 
ATOM      2  C   UNL     1      11.562  13.295  20.277  0.00  0.00    +0.000 C 
ATOM      3  N   UNL     1      11.285  11.905  19.790  0.00  0.00    +0.000 NA
ATOM      4  C   UNL     1      11.533  11.716  18.349  0.00  0.00    +0.000 C 
ATOM      5  C   UNL     1      10.262  12.147  17.669  0.00  0.00    +0.000 C 
ATOM      6  C   UNL     1       9.192  11.580  18.592  0.00  0.00    +0.000 C 
ATOM      7  C   UNL     1       9.894  11.441  19.986  0.00  0.00    +0.000 C 
ATOM      8  C   UNL     1       9.291  12.007  21.287  0.00  0.00    +0.000 A 
ATOM      9  C   UNL     1       8.566  11.214  22.198  0.00  0.00    +0.000 A 
ATOM     10  C   UNL     1       8.121  11.754  23.415  0.00  0.00    +0.000 A 
ATOM     11  C   UNL     1       8.427  13.078  23.756  0.00  0.00    +0.000 A 
ATOM     12  C   UNL     1       9.157  13.866  22.877  0.00  0.00    +0.000 A 
ATOM     13  C   UNL     1       9.552  13.343  21.638  0.00  0.00    +0.000 A 
ENDROOT
BRANCH   1  19
ATOM     14  C   UNL     1       9.823  15.506  18.347  0.00  0.00    +0.000 A 
ATOM     15  C   UNL     1       8.792  15.954  17.497  0.00  0.00    +0.000 A 
ATOM     16  C   UNL     1       7.462  15.638  17.719  0.00  0.00    +0.000 A 
ATOM     17  C   UNL     1       7.106  14.842  18.790  0.00  0.00    +0.000 A 
ATOM     18  C   UNL     1       8.071  14.381  19.670  0.00  0.00    +0.000 A 
ATOM     19  C   UNL     1       9.438  14.729  19.531  0.00  0.00    +0.000 A 
BRANCH  14  21
ATOM     20  F   UNL     1      11.959  14.833  17.379  0.00  0.00    +0.000 F 
ATOM     21  C   UNL     1      11.254  15.909  17.886  0.00  0.00    +0.000 C 
ATOM     22  F   UNL     1      11.991  16.372  18.953  0.00  0.00    +0.000 F 
ATOM     23  F   UNL     1      11.283  16.830  16.871  0.00  0.00    +0.000 F 
ENDBRANCH  14  21
ENDBRANCH   1  19
TORSDOF 2
ENDMDL
MODEL 5
REMARK VINA RESULT:      -6.0      9.618     11.874
REMARK  Name = 
REMARK  2 active torsions:
REMARK  status: ('A' for Active; 'I' for Inactive)
REMARK    1  A    between atoms: C_2  and  C_5
REMARK    2  A    between atoms: C_10  and  C_11
REMARK                            x       y       z     vdW  Elec       q    Type
REMARK                         _______ _______ _______ _____ _____    ______ ____
ROOT
ATOM      1  C   UNL     1      11.758  13.955  19.443  0.00  0.00    +0.000 C 
ATOM      2  C   UNL     1      12.253  14.623  18.102  0.00  0.00    +0.000 C 
ATOM      3  N   UNL     1      11.194  15.145  17.179  0.00  0.00    +0.000 NA
ATOM      4  C   UNL     1      11.137  16.616  17.104  0.00  0.00    +0.000 C 
ATOM      5  C   UNL     1      10.263  17.036  18.254  0.00  0.00    +0.000 C 
ATOM      6  C   UNL     1       9.165  15.982  18.230  0.00  0.00    +0.000 C 
ATOM      7  C   UNL     1       9.813  14.742  17.523  0.00  0.00    +0.000 C 
ATOM      8  C   UNL     1       9.775  13.322  18.123  0.00  0.00    +0.000 A 
ATOM      9  C   UNL     1       8.831  12.354  17.727  0.00  0.00    +0.000 A 
ATOM     10  C   UNL     1       8.900  11.046  18.232  0.00  0.00    +0.000 A 
ATOM     11  C   UNL     1       9.930  10.676  19.106  0.00  0.00    +0.000 A 
ATOM     12  C   UNL     1      10.878  11.615  19.491  0.00  0.00    +0.000 A 
ATOM     13  C   UNL     1      10.776  12.936  19.031  0.00  0.00    +0.000 A 
ENDROOT
BRANCH   1  19
ATOM     14  C   UNL     1      10.165  14.690  21.537  0.00  0.00    +0.000 A 
ATOM     15  C   UNL     1       9.850  15.765  22.393  0.00  0.00    +0.000 A 
ATOM     16  C   UNL     1      10.548  16.961  22.363  0.00  0.00    +0.000 A 
ATOM     17  C   UNL     1      11.605  17.128  21.491  0.00  0.00    +0.000 A 
ATOM     18  C   UNL     1      11.956  16.114  20.615  0.00  0.00    +0.000 A 
ATOM     19  C   UNL     1      11.235  14.896  20.554  0.00  0.00    +0.000 A 
BRANCH  14  21
ATOM     20  F   UNL     1       8.576  13.486  22.944  0.00  0.00    +0.000 F 
ATOM     21  C   UNL     1       9.312  13.410  21.776  0.00  0.00    +0.000 C 
ATOM     22  F   UNL     1      10.125  12.308  21.914  0.00  0.00    +0.000 F 
ATOM     23  F   UNL     1       8.370  13.170  20.809  0.00  0.00    +0.000 F 
ENDBRANCH  14  21
ENDBRANCH   1  19
TORSDOF 2
ENDMDL
MODEL 6
REMARK VINA RESULT:      -6.0      9.850     11.535
REMARK  Name = 
REMARK  2 active torsions:
REMARK  status: ('A' for Active; 'I' for Inactive)
REMARK    1  A    between atoms: C_2  and  C_5
REMARK    2  A    between atoms: C_10  and  C_11
REMARK                            x       y       z     vdW  Elec       q    Type
REMARK                         _______ _______ _______ _____ _____    ______ ____
ROOT
ATOM      1  C   UNL     1       8.830  14.403  18.205  0.00  0.00    +0.000 C 
ATOM      2  C   UNL     1       9.920  15.362  17.587  0.00  0.00    +0.000 C 
ATOM      3  N   UNL     1      10.230  16.611  18.354  0.00  0.00    +0.000 NA
ATOM      4  C   UNL     1      11.561  16.608  18.989  0.00  0.00    +0.000 C 
ATOM      5  C   UNL     1      11.367  15.912  20.309  0.00  0.00    +0.000 C 
ATOM      6  C   UNL     1      10.029  16.467  20.775  0.00  0.00    +0.000 C 
ATOM      7  C   UNL     1       9.297  16.911  19.462  0.00  0.00    +0.000 C 
ATOM      8  C   UNL     1       7.858  16.476  19.117  0.00  0.00    +0.000 A 
ATOM      9  C   UNL     1       6.738  17.296  19.356  0.00  0.00    +0.000 A 
ATOM     10  C   UNL     1       5.460  16.895  18.936  0.00  0.00    +0.000 A 
ATOM     11  C   UNL     1       5.289  15.692  18.238  0.00  0.00    +0.000 A 
ATOM     12  C   UNL     1       6.386  14.883  17.979  0.00  0.00    +0.000 A 
ATOM     13  C   UNL     1       7.653  15.256  18.449  0.00  0.00    +0.000 A 
ENDROOT
BRANCH   1  19
ATOM     14  C   UNL     1      10.355  12.620  19.605  0.00  0.00    +0.000 A 
ATOM     15  C   UNL     1      10.443  11.928  20.831  0.00  0.00    +0.000 A 
ATOM     16  C   UNL     1       9.557  12.153  21.871  0.00  0.00    +0.000 A 
ATOM     17  C   UNL     1       8.556  13.093  21.741  0.00  0.00    +0.000 A 
ATOM     18  C   UNL     1       8.407  13.797  20.557  0.00  0.00    +0.000 A 
ATOM     19  C   UNL     1       9.241  13.560  19.436  0.00  0.00    +0.000 A 
BRANCH  14  21
ATOM     20  F   UNL     1      12.283  11.237  19.036  0.00  0.00    +0.000 F 
ATOM     21  C   UNL     1      11.486  12.276  18.592  0.00  0.00    +0.000 C 
ATOM     22  F   UNL     1      12.328  13.353  18.428  0.00  0.00    +0.000 F 
ATOM     23  F   UNL     1      11.038  11.850  17.369  0.00  0.00    +0.000 F 
ENDBRANCH  14  21
ENDBRANCH   1  19
TORSDOF 2
ENDMDL
MODEL 7
REMARK VINA RESULT:      -5.8     10.209     12.010
REMARK  Name = 
REMARK  2 active torsions:
REMARK  status: ('A' for Active; 'I' for Inactive)
REMARK    1  A    between atoms: C_2  and  C_5
REMARK    2  A    between atoms: C_10  and  C_11
REMARK                            x       y       z     vdW  Elec       q    Type
REMARK                         _______ _______ _______ _____ _____    ______ ____
ROOT
ATOM      1  C   UNL     1      10.616  14.314  21.031  0.00  0.00    +0.000 C 
ATOM      2  C   UNL     1      10.480  15.756  20.406  0.00  0.00    +0.000 C 
ATOM      3  N   UNL     1       9.403  15.947  19.382  0.00  0.00    +0.000 NA
ATOM      4  C   UNL     1       8.275  16.775  19.848  0.00  0.00    +0.000 C 
ATOM      5  C   UNL     1       7.353  15.821  20.559  0.00  0.00    +0.000 C 
ATOM      6  C   UNL     1       7.400  14.594  19.660  0.00  0.00    +0.000 C 
ATOM      7  C   UNL     1       8.768  14.699  18.903  0.00  0.00    +0.000 C 
ATOM      8  C   UNL     1       9.784  13.540  18.844  0.00  0.00    +0.000 A 
ATOM      9  C   UNL     1       9.878  12.668  17.741  0.00  0.00    +0.000 A 
ATOM     10  C   UNL     1      10.883  11.689  17.693  0.00  0.00    +0.000 A 
ATOM     11  C   UNL     1      11.830  11.594  18.722  0.00  0.00    +0.000 A 
ATOM     12  C   UNL     1      11.760  12.459  19.805  0.00  0.00    +0.000 A 
ATOM     13  C   UNL     1      10.722  13.398  19.880  0.00  0.00    +0.000 A 
ENDROOT
BRANCH   1  19
ATOM     14  C   UNL     1       9.060  14.569  23.263  0.00  0.00    +0.000 A 
ATOM     15  C   UNL     1       8.116  13.895  24.064  0.00  0.00    +0.000 A 
ATOM     16  C   UNL     1       7.607  12.654  23.719  0.00  0.00    +0.000 A 
ATOM     17  C   UNL     1       8.004  12.041  22.547  0.00  0.00    +0.000 A 
ATOM     18  C   UNL     1       8.939  12.645  21.723  0.00  0.00    +0.000 A 
ATOM     19  C   UNL     1       9.544  13.882  22.059  0.00  0.00    +0.000 A 
BRANCH  14  21
ATOM     20  F   UNL     1      10.818  16.198  23.723  0.00  0.00    +0.000 F 
ATOM     21  C   UNL     1       9.454  15.981  23.787  0.00  0.00    +0.000 C 
ATOM     22  F   UNL     1       9.113  16.113  25.114  0.00  0.00    +0.000 F 
ATOM     23  F   UNL     1       8.921  17.020  23.068  0.00  0.00    +0.000 F 
ENDBRANCH  14  21
ENDBRANCH   1  19
TORSDOF 2
ENDMDL
MODEL 8
REMARK VINA RESULT:      -5.8      9.053     11.038
REMARK  Name = 
REMARK  2 active torsions:
REMARK  status: ('A' for Active; 'I' for Inactive)
REMARK    1  A    between atoms: C_2  and  C_5
REMARK    2  A    between atoms: C_10  and  C_11
REMARK                            x       y       z     vdW  Elec       q    Type
REMARK                         _______ _______ _______ _____ _____    ______ ____
ROOT
ATOM      1  C   UNL     1       8.379  14.282  18.509  0.00  0.00    +0.000 C 
ATOM      2  C   UNL     1       7.534  14.797  19.738  0.00  0.00    +0.000 C 
ATOM      3  N   UNL     1       8.187  14.717  21.084  0.00  0.00    +0.000 NA
ATOM      4  C   UNL     1       8.557  16.027  21.649  0.00  0.00    +0.000 C 
ATOM      5  C   UNL     1       9.912  16.336  21.072  0.00  0.00    +0.000 C 
ATOM      6  C   UNL     1      10.605  14.981  21.127  0.00  0.00    +0.000 C 
ATOM      7  C   UNL     1       9.440  13.932  21.124  0.00  0.00    +0.000 C 
ATOM      8  C   UNL     1       9.389  12.742  20.146  0.00  0.00    +0.000 A 
ATOM      9  C   UNL     1       9.808  11.445  20.504  0.00  0.00    +0.000 A 
ATOM     10  C   UNL     1       9.651  10.374  19.610  0.00  0.00    +0.000 A 
ATOM     11  C   UNL     1       9.038  10.574  18.366  0.00  0.00    +0.000 A 
ATOM     12  C   UNL     1       8.604  11.843  18.007  0.00  0.00    +0.000 A 
ATOM     13  C   UNL     1       8.813  12.922  18.877  0.00  0.00    +0.000 A 
ENDROOT
BRANCH   1  19
ATOM     14  C   UNL     1      10.824  14.816  17.414  0.00  0.00    +0.000 A 
ATOM     15  C   UNL     1      11.729  15.859  17.127  0.00  0.00    +0.000 A 
ATOM     16  C   UNL     1      11.415  17.190  17.345  0.00  0.00    +0.000 A 
ATOM     17  C   UNL     1      10.174  17.540  17.839  0.00  0.00    +0.000 A 
ATOM     18  C   UNL     1       9.245  16.562  18.154  0.00  0.00    +0.000 A 
ATOM     19  C   UNL     1       9.536  15.182  18.016  0.00  0.00    +0.000 A 
BRANCH  14  21
ATOM     20  F   UNL     1      10.345  12.616  16.473  0.00  0.00    +0.000 F 
ATOM     21  C   UNL     1      11.339  13.398  17.033  0.00  0.00    +0.000 C 
ATOM     22  F   UNL     1      11.761  12.722  18.156  0.00  0.00    +0.000 F 
ATOM     23  F   UNL     1      12.333  13.392  16.089  0.00  0.00    +0.000 F 
ENDBRANCH  14  21
ENDBRANCH   1  19
TORSDOF 2
ENDMDL
MODEL 9
REMARK VINA RESULT:      -5.7      9.885     12.021
REMARK  Name = 
REMARK  2 active torsions:
REMARK  status: ('A' for Active; 'I' for Inactive)
REMARK    1  A    between atoms: C_2  and  C_5
REMARK    2  A    between atoms: C_10  and  C_11
REMARK                            x       y       z     vdW  Elec       q    Type
REMARK                         _______ _______ _______ _____ _____    ______ ____
ROOT
ATOM      1  C   UNL     1      11.507  14.984  20.145  0.00  0.00    +0.000 C 
ATOM      2  C   UNL     1      11.569  16.241  19.193  0.00  0.00    +0.000 C 
ATOM      3  N   UNL     1      10.399  16.454  18.282  0.00  0.00    +0.000 NA
ATOM      4  C   UNL     1       9.559  17.609  18.645  0.00  0.00    +0.000 C 
ATOM      5  C   UNL     1       8.592  17.087  19.673  0.00  0.00    +0.000 C 
ATOM      6  C   UNL     1       8.235  15.716  19.115  0.00  0.00    +0.000 C 
ATOM      7  C   UNL     1       9.451  15.320  18.209  0.00  0.00    +0.000 C 
ATOM      8  C   UNL     1      10.182  13.968  18.332  0.00  0.00    +0.000 A 
ATOM      9  C   UNL     1       9.910  12.877  17.483  0.00  0.00    +0.000 A 
ATOM     10  C   UNL     1      10.670  11.700  17.572  0.00  0.00    +0.000 A 
ATOM     11  C   UNL     1      11.734  11.611  18.479  0.00  0.00    +0.000 A 
ATOM     12  C   UNL     1      12.025  12.685  19.309  0.00  0.00    +0.000 A 
ATOM     13  C   UNL     1      11.230  13.838  19.259  0.00  0.00    +0.000 A 
ENDROOT
BRANCH   1  19
ATOM     14  C   UNL     1       9.679  14.035  21.939  0.00  0.00    +0.000 A 
ATOM     15  C   UNL     1       8.855  14.414  23.019  0.00  0.00    +0.000 A 
ATOM     16  C   UNL     1       8.895  15.685  23.568  0.00  0.00    +0.000 A 
ATOM     17  C   UNL     1       9.775  16.627  23.075  0.00  0.00    +0.000 A 
ATOM     18  C   UNL     1      10.602  16.322  22.006  0.00  0.00    +0.000 A 
ATOM     19  C   UNL     1      10.555  15.060  21.362  0.00  0.00    +0.000 A 
BRANCH  14  21
ATOM     20  F   UNL     1       8.827  11.805  22.446  0.00  0.00    +0.000 F 
ATOM     21  C   UNL     1       9.534  12.544  21.515  0.00  0.00    +0.000 C 
ATOM     22  F   UNL     1      10.771  11.948  21.423  0.00  0.00    +0.000 F 
ATOM     23  F   UNL     1       8.841  12.353  20.348  0.00  0.00    +0.000 F 
ENDBRANCH  14  21
ENDBRANCH   1  19
TORSDOF 2
ENDMDL
