MODEL 1
REMARK VINA RESULT:      -6.7      0.000      0.000
REMARK  Name = 
REMARK  5 active torsions:
REMARK  status: ('A' for Active; 'I' for Inactive)
REMARK    1  A    between atoms: C_1  and  C_2
REMARK    2  A    between atoms: C_2  and  S_3
REMARK    3  A    between atoms: S_3  and  N_6
REMARK    4  A    between atoms: C_13  and  C_14
REMARK    5  A    between atoms: N_19  and  C_20
REMARK                            x       y       z     vdW  Elec       q    Type
REMARK                         _______ _______ _______ _____ _____    ______ ____
ROOT
ATOM      1  N   UNL     1       3.849   4.212  20.114  0.00  0.00    +0.000 NA
ATOM      2  C   UNL     1       4.716   5.294  19.522  0.00  0.00    +0.000 C 
ATOM      3  C   UNL     1       3.977   6.107  18.441  0.00  0.00    +0.000 C 
ATOM      4  N   UNL     1       2.761   6.654  19.062  0.00  0.00    +0.000 N 
ATOM      5  C   UNL     1       2.268   7.820  18.579  0.00  0.00    +0.000 A 
ATOM      6  N   UNL     1       2.430   8.380  17.403  0.00  0.00    +0.000 NA
ATOM      7  N   UNL     1       1.848   9.629  17.440  0.00  0.00    +0.000 NA
ATOM      8  C   UNL     1       1.381   9.833  18.656  0.00  0.00    +0.000 A 
ATOM      9  N   UNL     1       1.632   8.714  19.409  0.00  0.00    +0.000 N 
ATOM     10  C   UNL     1       1.437   8.556  20.826  0.00  0.00    +0.000 C 
ATOM     11  C   UNL     1       1.828   5.597  19.480  0.00  0.00    +0.000 C 
ATOM     12  C   UNL     1       2.522   4.750  20.570  0.00  0.00    +0.000 C 
ENDROOT
BRANCH   8  13
ATOM     13  C   UNL     1       0.759  11.083  19.178  0.00  0.00    +0.000 C 
ATOM     14  C   UNL     1       1.576  12.322  18.812  0.00  0.00    +0.000 C 
ATOM     15  C   UNL     1       0.596  13.475  18.951  0.00  0.00    +0.000 C 
ATOM     16  C   UNL     1      -0.784  12.892  18.661  0.00  0.00    +0.000 C 
ATOM     17  C   UNL     1      -0.614  11.378  18.574  0.00  0.00    +0.000 C 
ENDBRANCH   8  13
BRANCH   1  18
ATOM     18  S   UNL     1       3.807   2.746  19.263  0.00  0.00    +0.000 S 
ATOM     19  O   UNL     1       4.802   1.867  19.842  0.00  0.00    +0.000 OA
ATOM     20  O   UNL     1       3.790   3.045  17.849  0.00  0.00    +0.000 OA
BRANCH  18  22
ATOM     21  C   UNL     1       1.239   2.120  18.568  0.00  0.00    +0.000 C 
ATOM     22  C   UNL     1       2.196   2.137  19.743  0.00  0.00    +0.000 C 
ENDBRANCH  18  22
ENDBRANCH   1  18
TORSDOF 3
ENDMDL
MODEL 2
REMARK VINA RESULT:      -6.4      4.788      7.858
REMARK  Name = 
REMARK  5 active torsions:
REMARK  status: ('A' for Active; 'I' for Inactive)
REMARK    1  A    between atoms: C_1  and  C_2
REMARK    2  A    between atoms: C_2  and  S_3
REMARK    3  A    between atoms: S_3  and  N_6
REMARK    4  A    between atoms: C_13  and  C_14
REMARK    5  A    between atoms: N_19  and  C_20
REMARK                            x       y       z     vdW  Elec       q    Type
REMARK                         _______ _______ _______ _____ _____    ______ ____
ROOT
ATOM      1  N   UNL     1      -0.890  11.193  21.305  0.00  0.00    +0.000 NA
ATOM      2  C   UNL     1      -1.237  10.760  19.904  0.00  0.00    +0.000 C 
ATOM      3  C   UNL     1       0.011  10.611  19.012  0.00  0.00    +0.000 C 
ATOM      4  N   UNL     1       0.911   9.656  19.677  0.00  0.00    +0.000 N 
ATOM      5  C   UNL     1       1.738   8.915  18.901  0.00  0.00    +0.000 A 
ATOM      6  N   UNL     1       2.187   9.144  17.690  0.00  0.00    +0.000 NA
ATOM      7  N   UNL     1       2.883   8.031  17.272  0.00  0.00    +0.000 NA
ATOM      8  C   UNL     1       2.808   7.116  18.219  0.00  0.00    +0.000 A 
ATOM      9  N   UNL     1       2.086   7.635  19.264  0.00  0.00    +0.000 N 
ATOM     10  C   UNL     1       1.626   6.937  20.436  0.00  0.00    +0.000 C 
ATOM     11  C   UNL     1       1.396  10.159  20.971  0.00  0.00    +0.000 C 
ATOM     12  C   UNL     1       0.179  10.324  21.907  0.00  0.00    +0.000 C 
ENDROOT
BRANCH   8  13
ATOM     13  C   UNL     1       3.331   5.721  18.160  0.00  0.00    +0.000 C 
ATOM     14  C   UNL     1       2.249   4.724  17.748  0.00  0.00    +0.000 C 
ATOM     15  C   UNL     1       3.022   3.512  17.254  0.00  0.00    +0.000 C 
ATOM     16  C   UNL     1       4.346   4.046  16.716  0.00  0.00    +0.000 C 
ATOM     17  C   UNL     1       4.414   5.522  17.101  0.00  0.00    +0.000 C 
ENDBRANCH   8  13
BRANCH   1  18
ATOM     18  S   UNL     1      -0.714  12.862  21.544  0.00  0.00    +0.000 S 
ATOM     19  O   UNL     1      -1.579  13.539  20.600  0.00  0.00    +0.000 OA
ATOM     20  O   UNL     1       0.697  13.160  21.627  0.00  0.00    +0.000 OA
BRANCH  18  22
ATOM     21  C   UNL     1      -2.726  12.248  23.287  0.00  0.00    +0.000 C 
ATOM     22  C   UNL     1      -1.439  13.037  23.169  0.00  0.00    +0.000 C 
ENDBRANCH  18  22
ENDBRANCH   1  18
TORSDOF 3
ENDMDL
MODEL 3
REMARK VINA RESULT:      -6.3      1.451      2.345
REMARK  Name = 
REMARK  5 active torsions:
REMARK  status: ('A' for Active; 'I' for Inactive)
REMARK    1  A    between atoms: C_1  and  C_2
REMARK    2  A    between atoms: C_2  and  S_3
REMARK    3  A    between atoms: S_3  and  N_6
REMARK    4  A    between atoms: C_13  and  C_14
REMARK    5  A    between atoms: N_19  and  C_20
REMARK                            x       y       z     vdW  Elec       q    Type
REMARK                         _______ _______ _______ _____ _____    ______ ____
ROOT
ATOM      1  N   UNL     1       2.826   3.986  18.881  0.00  0.00    +0.000 NA
ATOM      2  C   UNL     1       1.521   4.264  19.583  0.00  0.00    +0.000 C 
ATOM      3  C   UNL     1       1.629   5.439  20.574  0.00  0.00    +0.000 C 
ATOM      4  N   UNL     1       2.105   6.607  19.815  0.00  0.00    +0.000 N 
ATOM      5  C   UNL     1       1.739   7.838  20.244  0.00  0.00    +0.000 A 
ATOM      6  N   UNL     1       1.360   8.236  21.436  0.00  0.00    +0.000 NA
ATOM      7  N   UNL     1       0.955   9.550  21.340  0.00  0.00    +0.000 NA
ATOM      8  C   UNL     1       1.047   9.921  20.078  0.00  0.00    +0.000 A 
ATOM      9  N   UNL     1       1.534   8.864  19.352  0.00  0.00    +0.000 N 
ATOM     10  C   UNL     1       1.648   8.770  17.920  0.00  0.00    +0.000 C 
ATOM     11  C   UNL     1       3.459   6.404  19.277  0.00  0.00    +0.000 C 
ATOM     12  C   UNL     1       3.405   5.233  18.273  0.00  0.00    +0.000 C 
ENDROOT
BRANCH   8  13
ATOM     13  C   UNL     1       0.624  11.227  19.495  0.00  0.00    +0.000 C 
ATOM     14  C   UNL     1      -0.876  11.262  19.207  0.00  0.00    +0.000 C 
ATOM     15  C   UNL     1      -1.209  12.742  19.120  0.00  0.00    +0.000 C 
ATOM     16  C   UNL     1      -0.203  13.454  20.020  0.00  0.00    +0.000 C 
ATOM     17  C   UNL     1       0.827  12.409  20.442  0.00  0.00    +0.000 C 
ENDBRANCH   8  13
BRANCH   1  18
ATOM     18  S   UNL     1       3.915   2.984  19.708  0.00  0.00    +0.000 S 
ATOM     19  O   UNL     1       3.359   2.707  21.016  0.00  0.00    +0.000 OA
ATOM     20  O   UNL     1       5.243   3.534  19.549  0.00  0.00    +0.000 OA
BRANCH  18  22
ATOM     21  C   UNL     1       3.053   1.741  17.432  0.00  0.00    +0.000 C 
ATOM     22  C   UNL     1       3.789   1.491  18.733  0.00  0.00    +0.000 C 
ENDBRANCH  18  22
ENDBRANCH   1  18
TORSDOF 3
ENDMDL
MODEL 4
REMARK VINA RESULT:      -6.3      0.953      1.106
REMARK  Name = 
REMARK  5 active torsions:
REMARK  status: ('A' for Active; 'I' for Inactive)
REMARK    1  A    between atoms: C_1  and  C_2
REMARK    2  A    between atoms: C_2  and  S_3
REMARK    3  A    between atoms: S_3  and  N_6
REMARK    4  A    between atoms: C_13  and  C_14
REMARK    5  A    between atoms: N_19  and  C_20
REMARK                            x       y       z     vdW  Elec       q    Type
REMARK                         _______ _______ _______ _____ _____    ______ ____
ROOT
ATOM      1  N   UNL     1       3.753   4.096  20.272  0.00  0.00    +0.000 NA
ATOM      2  C   UNL     1       4.655   5.149  19.682  0.00  0.00    +0.000 C 
ATOM      3  C   UNL     1       3.961   5.956  18.568  0.00  0.00    +0.000 C 
ATOM      4  N   UNL     1       2.740   6.539  19.148  0.00  0.00    +0.000 N 
ATOM      5  C   UNL     1       2.284   7.704  18.632  0.00  0.00    +0.000 A 
ATOM      6  N   UNL     1       2.485   8.239  17.450  0.00  0.00    +0.000 NA
ATOM      7  N   UNL     1       1.929   9.500  17.449  0.00  0.00    +0.000 NA
ATOM      8  C   UNL     1       1.436   9.736  18.649  0.00  0.00    +0.000 A 
ATOM      9  N   UNL     1       1.646   8.627  19.429  0.00  0.00    +0.000 N 
ATOM     10  C   UNL     1       1.413   8.500  20.843  0.00  0.00    +0.000 C 
ATOM     11  C   UNL     1       1.777   5.508  19.563  0.00  0.00    +0.000 C 
ATOM     12  C   UNL     1       2.426   4.669  20.685  0.00  0.00    +0.000 C 
ENDROOT
BRANCH   8  13
ATOM     13  C   UNL     1       0.827  11.009  19.133  0.00  0.00    +0.000 C 
ATOM     14  C   UNL     1       1.586  12.233  18.622  0.00  0.00    +0.000 C 
ATOM     15  C   UNL     1       0.593  13.375  18.758  0.00  0.00    +0.000 C 
ATOM     16  C   UNL     1      -0.792  12.750  18.616  0.00  0.00    +0.000 C 
ATOM     17  C   UNL     1      -0.593  11.237  18.618  0.00  0.00    +0.000 C 
ENDBRANCH   8  13
BRANCH   1  18
ATOM     18  S   UNL     1       3.702   2.615  19.448  0.00  0.00    +0.000 S 
ATOM     19  O   UNL     1       2.352   2.099  19.545  0.00  0.00    +0.000 OA
ATOM     20  O   UNL     1       4.844   1.830  19.857  0.00  0.00    +0.000 OA
BRANCH  18  22
ATOM     21  C   UNL     1       2.677   3.078  16.957  0.00  0.00    +0.000 C 
ATOM     22  C   UNL     1       3.955   3.169  17.767  0.00  0.00    +0.000 C 
ENDBRANCH  18  22
ENDBRANCH   1  18
TORSDOF 3
ENDMDL
MODEL 5
REMARK VINA RESULT:      -6.2      1.395      1.507
REMARK  Name = 
REMARK  5 active torsions:
REMARK  status: ('A' for Active; 'I' for Inactive)
REMARK    1  A    between atoms: C_1  and  C_2
REMARK    2  A    between atoms: C_2  and  S_3
REMARK    3  A    between atoms: S_3  and  N_6
REMARK    4  A    between atoms: C_13  and  C_14
REMARK    5  A    between atoms: N_19  and  C_20
REMARK                            x       y       z     vdW  Elec       q    Type
REMARK                         _______ _______ _______ _____ _____    ______ ____
ROOT
ATOM      1  N   UNL     1       3.658   4.331  18.890  0.00  0.00    +0.000 NA
ATOM      2  C   UNL     1       4.518   5.541  18.628  0.00  0.00    +0.000 C 
ATOM      3  C   UNL     1       3.761   6.640  17.857  0.00  0.00    +0.000 C 
ATOM      4  N   UNL     1       2.563   6.977  18.641  0.00  0.00    +0.000 N 
ATOM      5  C   UNL     1       2.068   8.233  18.541  0.00  0.00    +0.000 A 
ATOM      6  N   UNL     1       2.206   9.119  17.583  0.00  0.00    +0.000 NA
ATOM      7  N   UNL     1       1.635  10.300  18.004  0.00  0.00    +0.000 NA
ATOM      8  C   UNL     1       1.196  10.131  19.236  0.00  0.00    +0.000 A 
ATOM      9  N   UNL     1       1.457   8.838  19.614  0.00  0.00    +0.000 N 
ATOM     10  C   UNL     1       1.292   8.264  20.924  0.00  0.00    +0.000 C 
ATOM     11  C   UNL     1       1.633   5.842  18.747  0.00  0.00    +0.000 C 
ATOM     12  C   UNL     1       2.344   4.709  19.516  0.00  0.00    +0.000 C 
ENDROOT
BRANCH   8  13
ATOM     13  C   UNL     1       0.595  11.169  20.123  0.00  0.00    +0.000 C 
ATOM     14  C   UNL     1       1.339  12.500  20.027  0.00  0.00    +0.000 C 
ATOM     15  C   UNL     1       0.346  13.525  20.551  0.00  0.00    +0.000 C 
ATOM     16  C   UNL     1      -1.040  12.968  20.239  0.00  0.00    +0.000 C 
ATOM     17  C   UNL     1      -0.837  11.539  19.739  0.00  0.00    +0.000 C 
ENDBRANCH   8  13
BRANCH   1  18
ATOM     18  S   UNL     1       3.586   3.187  17.641  0.00  0.00    +0.000 S 
ATOM     19  O   UNL     1       4.781   3.333  16.836  0.00  0.00    +0.000 OA
ATOM     20  O   UNL     1       2.266   3.240  17.055  0.00  0.00    +0.000 OA
BRANCH  18  22
ATOM     21  C   UNL     1       4.482   1.902  19.880  0.00  0.00    +0.000 C 
ATOM     22  C   UNL     1       3.741   1.672  18.578  0.00  0.00    +0.000 C 
ENDBRANCH  18  22
ENDBRANCH   1  18
TORSDOF 3
ENDMDL
MODEL 6
REMARK VINA RESULT:      -6.2      4.017      7.602
REMARK  Name = 
REMARK  5 active torsions:
REMARK  status: ('A' for Active; 'I' for Inactive)
REMARK    1  A    between atoms: C_1  and  C_2
REMARK    2  A    between atoms: C_2  and  S_3
REMARK    3  A    between atoms: S_3  and  N_6
REMARK    4  A    between atoms: C_13  and  C_14
REMARK    5  A    between atoms: N_19  and  C_20
REMARK                            x       y       z     vdW  Elec       q    Type
REMARK                         _______ _______ _______ _____ _____    ______ ____
ROOT
ATOM      1  N   UNL     1      -0.488   9.965  20.990  0.00  0.00    +0.000 NA
ATOM      2  C   UNL     1      -0.451   9.864  19.486  0.00  0.00    +0.000 C 
ATOM      3  C   UNL     1       0.974   9.621  18.952  0.00  0.00    +0.000 C 
ATOM      4  N   UNL     1       1.480   8.400  19.599  0.00  0.00    +0.000 N 
ATOM      5  C   UNL     1       2.387   7.653  18.927  0.00  0.00    +0.000 A 
ATOM      6  N   UNL     1       3.213   7.993  17.965  0.00  0.00    +0.000 NA
ATOM      7  N   UNL     1       3.834   6.851  17.508  0.00  0.00    +0.000 NA
ATOM      8  C   UNL     1       3.341   5.820  18.166  0.00  0.00    +0.000 A 
ATOM      9  N   UNL     1       2.419   6.285  19.070  0.00  0.00    +0.000 N 
ATOM     10  C   UNL     1       1.527   5.502  19.885  0.00  0.00    +0.000 C 
ATOM     11  C   UNL     1       1.615   8.559  21.055  0.00  0.00    +0.000 C 
ATOM     12  C   UNL     1       0.208   8.804  21.642  0.00  0.00    +0.000 C 
ENDROOT
BRANCH   8  13
ATOM     13  C   UNL     1       3.649   4.379  17.935  0.00  0.00    +0.000 C 
ATOM     14  C   UNL     1       4.054   3.670  19.227  0.00  0.00    +0.000 C 
ATOM     15  C   UNL     1       3.833   2.195  18.932  0.00  0.00    +0.000 C 
ATOM     16  C   UNL     1       2.710   2.135  17.902  0.00  0.00    +0.000 C 
ATOM     17  C   UNL     1       2.446   3.570  17.454  0.00  0.00    +0.000 C 
ENDBRANCH   8  13
BRANCH   1  18
ATOM     18  S   UNL     1      -0.153  11.495  21.639  0.00  0.00    +0.000 S 
ATOM     19  O   UNL     1       1.160  11.896  21.179  0.00  0.00    +0.000 OA
ATOM     20  O   UNL     1      -0.490  11.473  23.044  0.00  0.00    +0.000 OA
BRANCH  18  22
ATOM     21  C   UNL     1      -0.694  13.539  19.907  0.00  0.00    +0.000 C 
ATOM     22  C   UNL     1      -1.361  12.489  20.772  0.00  0.00    +0.000 C 
ENDBRANCH  18  22
ENDBRANCH   1  18
TORSDOF 3
ENDMDL
MODEL 7
REMARK VINA RESULT:      -6.2      4.988      8.266
REMARK  Name = 
REMARK  5 active torsions:
REMARK  status: ('A' for Active; 'I' for Inactive)
REMARK    1  A    between atoms: C_1  and  C_2
REMARK    2  A    between atoms: C_2  and  S_3
REMARK    3  A    between atoms: S_3  and  N_6
REMARK    4  A    between atoms: C_13  and  C_14
REMARK    5  A    between atoms: N_19  and  C_20
REMARK                            x       y       z     vdW  Elec       q    Type
REMARK                         _______ _______ _______ _____ _____    ______ ____
ROOT
ATOM      1  N   UNL     1      -1.236  12.182  20.824  0.00  0.00    +0.000 NA
ATOM      2  C   UNL     1      -1.596  11.500  19.529  0.00  0.00    +0.000 C 
ATOM      3  C   UNL     1      -0.361  11.230  18.647  0.00  0.00    +0.000 C 
ATOM      4  N   UNL     1       0.579  10.430  19.447  0.00  0.00    +0.000 N 
ATOM      5  C   UNL     1       1.413   9.586  18.794  0.00  0.00    +0.000 A 
ATOM      6  N   UNL     1       1.833   9.610  17.551  0.00  0.00    +0.000 NA
ATOM      7  N   UNL     1       2.554   8.459  17.319  0.00  0.00    +0.000 NA
ATOM      8  C   UNL     1       2.523   7.723  18.412  0.00  0.00    +0.000 A 
ATOM      9  N   UNL     1       1.806   8.399  19.368  0.00  0.00    +0.000 N 
ATOM     10  C   UNL     1       1.388   7.906  20.654  0.00  0.00    +0.000 C 
ATOM     11  C   UNL     1       1.073  11.165  20.622  0.00  0.00    +0.000 C 
ATOM     12  C   UNL     1      -0.131  11.460  21.543  0.00  0.00    +0.000 C 
ENDROOT
BRANCH   8  13
ATOM     13  C   UNL     1       3.086   6.354  18.587  0.00  0.00    +0.000 C 
ATOM     14  C   UNL     1       2.144   5.278  18.048  0.00  0.00    +0.000 C 
ATOM     15  C   UNL     1       3.037   4.067  17.834  0.00  0.00    +0.000 C 
ATOM     16  C   UNL     1       4.429   4.617  17.537  0.00  0.00    +0.000 C 
ATOM     17  C   UNL     1       4.373   6.121  17.796  0.00  0.00    +0.000 C 
ENDBRANCH   8  13
BRANCH   1  18
ATOM     18  S   UNL     1      -1.105  13.871  20.762  0.00  0.00    +0.000 S 
ATOM     19  O   UNL     1      -2.439  14.424  20.878  0.00  0.00    +0.000 OA
ATOM     20  O   UNL     1      -0.235  14.217  19.661  0.00  0.00    +0.000 OA
BRANCH  18  22
ATOM     21  C   UNL     1       0.890  15.170  22.103  0.00  0.00    +0.000 C 
ATOM     22  C   UNL     1      -0.247  14.188  22.298  0.00  0.00    +0.000 C 
ENDBRANCH  18  22
ENDBRANCH   1  18
TORSDOF 3
ENDMDL
MODEL 8
REMARK VINA RESULT:      -6.1      4.960      8.222
REMARK  Name = 
REMARK  5 active torsions:
REMARK  status: ('A' for Active; 'I' for Inactive)
REMARK    1  A    between atoms: C_1  and  C_2
REMARK    2  A    between atoms: C_2  and  S_3
REMARK    3  A    between atoms: S_3  and  N_6
REMARK    4  A    between atoms: C_13  and  C_14
REMARK    5  A    between atoms: N_19  and  C_20
REMARK                            x       y       z     vdW  Elec       q    Type
REMARK                         _______ _______ _______ _____ _____    ______ ____
ROOT
ATOM      1  N   UNL     1      -1.232  12.023  20.787  0.00  0.00    +0.000 NA
ATOM      2  C   UNL     1      -1.589  11.326  19.500  0.00  0.00    +0.000 C 
ATOM      3  C   UNL     1      -0.354  11.057  18.618  0.00  0.00    +0.000 C 
ATOM      4  N   UNL     1       0.595  10.273  19.424  0.00  0.00    +0.000 N 
ATOM      5  C   UNL     1       1.434   9.430  18.778  0.00  0.00    +0.000 A 
ATOM      6  N   UNL     1       1.851   9.445  17.533  0.00  0.00    +0.000 NA
ATOM      7  N   UNL     1       2.581   8.298  17.311  0.00  0.00    +0.000 NA
ATOM      8  C   UNL     1       2.559   7.573  18.412  0.00  0.00    +0.000 A 
ATOM      9  N   UNL     1       1.839   8.252  19.362  0.00  0.00    +0.000 N 
ATOM     10  C   UNL     1       1.428   7.768  20.654  0.00  0.00    +0.000 C 
ATOM     11  C   UNL     1       1.085  11.024  20.590  0.00  0.00    +0.000 C 
ATOM     12  C   UNL     1      -0.119  11.318  21.511  0.00  0.00    +0.000 C 
ENDROOT
BRANCH   8  13
ATOM     13  C   UNL     1       3.135   6.210  18.599  0.00  0.00    +0.000 C 
ATOM     14  C   UNL     1       2.216   5.124  18.042  0.00  0.00    +0.000 C 
ATOM     15  C   UNL     1       3.127   3.923  17.847  0.00  0.00    +0.000 C 
ATOM     16  C   UNL     1       4.518   4.488  17.577  0.00  0.00    +0.000 C 
ATOM     17  C   UNL     1       4.439   5.991  17.834  0.00  0.00    +0.000 C 
ENDBRANCH   8  13
BRANCH   1  18
ATOM     18  S   UNL     1      -1.116  13.713  20.708  0.00  0.00    +0.000 S 
ATOM     19  O   UNL     1      -0.719  14.069  19.362  0.00  0.00    +0.000 OA
ATOM     20  O   UNL     1      -0.376  14.169  21.863  0.00  0.00    +0.000 OA
BRANCH  18  22
ATOM     21  C   UNL     1      -3.300  13.949  22.334  0.00  0.00    +0.000 C 
ATOM     22  C   UNL     1      -2.834  14.167  20.909  0.00  0.00    +0.000 C 
ENDBRANCH  18  22
ENDBRANCH   1  18
TORSDOF 3
ENDMDL
MODEL 9
REMARK VINA RESULT:      -6.1      4.043      7.581
REMARK  Name = 
REMARK  5 active torsions:
REMARK  status: ('A' for Active; 'I' for Inactive)
REMARK    1  A    between atoms: C_1  and  C_2
REMARK    2  A    between atoms: C_2  and  S_3
REMARK    3  A    between atoms: S_3  and  N_6
REMARK    4  A    between atoms: C_13  and  C_14
REMARK    5  A    between atoms: N_19  and  C_20
REMARK                            x       y       z     vdW  Elec       q    Type
REMARK                         _______ _______ _______ _____ _____    ______ ____
ROOT
ATOM      1  N   UNL     1      -0.221  10.124  19.976  0.00  0.00    +0.000 NA
ATOM      2  C   UNL     1      -0.029   9.896  18.498  0.00  0.00    +0.000 C 
ATOM      3  C   UNL     1       1.427   9.533  18.147  0.00  0.00    +0.000 C 
ATOM      4  N   UNL     1       1.784   8.345  18.938  0.00  0.00    +0.000 N 
ATOM      5  C   UNL     1       2.709   7.496  18.431  0.00  0.00    +0.000 A 
ATOM      6  N   UNL     1       3.653   7.710  17.544  0.00  0.00    +0.000 NA
ATOM      7  N   UNL     1       4.246   6.502  17.249  0.00  0.00    +0.000 NA
ATOM      8  C   UNL     1       3.622   5.558  17.926  0.00  0.00    +0.000 A 
ATOM      9  N   UNL     1       2.639   6.145  18.682  0.00  0.00    +0.000 N 
ATOM     10  C   UNL     1       1.618   5.483  19.450  0.00  0.00    +0.000 C 
ATOM     11  C   UNL     1       1.771   8.617  20.384  0.00  0.00    +0.000 C 
ATOM     12  C   UNL     1       0.328   8.985  20.790  0.00  0.00    +0.000 C 
ENDROOT
BRANCH   8  13
ATOM     13  C   UNL     1       3.862   4.088  17.842  0.00  0.00    +0.000 C 
ATOM     14  C   UNL     1       4.121   3.475  19.218  0.00  0.00    +0.000 C 
ATOM     15  C   UNL     1       3.838   1.994  19.029  0.00  0.00    +0.000 C 
ATOM     16  C   UNL     1       2.799   1.901  17.916  0.00  0.00    +0.000 C 
ATOM     17  C   UNL     1       2.656   3.304  17.329  0.00  0.00    +0.000 C 
ENDBRANCH   8  13
BRANCH   1  18
ATOM     18  S   UNL     1       0.138  11.682  20.539  0.00  0.00    +0.000 S 
ATOM     19  O   UNL     1       0.197  12.566  19.393  0.00  0.00    +0.000 OA
ATOM     20  O   UNL     1       1.233  11.583  21.477  0.00  0.00    +0.000 OA
BRANCH  18  22
ATOM     21  C   UNL     1      -1.251  11.641  22.892  0.00  0.00    +0.000 C 
ATOM     22  C   UNL     1      -1.361  12.056  21.439  0.00  0.00    +0.000 C 
ENDBRANCH  18  22
ENDBRANCH   1  18
TORSDOF 3
ENDMDL
