MODEL 1
REMARK VINA RESULT:      -4.4      0.000      0.000
REMARK  Name = 
REMARK  0 active torsions:
REMARK  status: ('A' for Active; 'I' for Inactive)
REMARK                            x       y       z     vdW  Elec       q    Type
REMARK                         _______ _______ _______ _____ _____    ______ ____
ROOT
ATOM      1  C   UNL     1       6.655   4.853  14.752  0.00  0.00    +0.000 C 
ATOM      2  C   UNL     1       5.570   4.147  15.578  0.00  0.00    +0.000 C 
ATOM      3  N   UNL     1       5.674   4.854  16.837  0.00  0.00    +0.000 N 
ATOM      4  C   UNL     1       5.199   4.222  18.061  0.00  0.00    +0.000 C 
ATOM      5  C   UNL     1       5.613   5.063  19.280  0.00  0.00    +0.000 C 
ATOM      6  O   UNL     1       7.032   5.284  19.302  0.00  0.00    +0.000 OA
ATOM      7  C   UNL     1       7.453   6.038  18.160  0.00  0.00    +0.000 C 
ATOM      8  C   UNL     1       6.908   5.469  16.854  0.00  0.00    +0.000 C 
ATOM      9  N   UNL     1       7.561   5.536  15.722  0.00  0.00    +0.000 NA
ENDROOT
TORSDOF 0
ENDMDL
MODEL 2
REMARK VINA RESULT:      -4.4      1.710      3.084
REMARK  Name = 
REMARK  0 active torsions:
REMARK  status: ('A' for Active; 'I' for Inactive)
REMARK                            x       y       z     vdW  Elec       q    Type
REMARK                         _______ _______ _______ _____ _____    ______ ____
ROOT
ATOM      1  C   UNL     1       4.378   3.700  18.852  0.00  0.00    +0.000 C 
ATOM      2  C   UNL     1       4.022   3.747  17.358  0.00  0.00    +0.000 C 
ATOM      3  N   UNL     1       5.324   3.983  16.770  0.00  0.00    +0.000 N 
ATOM      4  C   UNL     1       5.419   4.581  15.445  0.00  0.00    +0.000 C 
ATOM      5  C   UNL     1       6.884   4.932  15.132  0.00  0.00    +0.000 C 
ATOM      6  O   UNL     1       7.446   5.776  16.150  0.00  0.00    +0.000 OA
ATOM      7  C   UNL     1       7.477   5.108  17.415  0.00  0.00    +0.000 C 
ATOM      8  C   UNL     1       6.137   4.472  17.771  0.00  0.00    +0.000 C 
ATOM      9  N   UNL     1       5.707   4.361  19.002  0.00  0.00    +0.000 NA
ENDROOT
TORSDOF 0
ENDMDL
MODEL 3
REMARK VINA RESULT:      -4.3      0.980      1.035
REMARK  Name = 
REMARK  0 active torsions:
REMARK  status: ('A' for Active; 'I' for Inactive)
REMARK                            x       y       z     vdW  Elec       q    Type
REMARK                         _______ _______ _______ _____ _____    ______ ____
ROOT
ATOM      1  C   UNL     1       6.998   4.751  14.871  0.00  0.00    +0.000 C 
ATOM      2  C   UNL     1       5.645   4.069  15.119  0.00  0.00    +0.000 C 
ATOM      3  N   UNL     1       5.372   4.478  16.480  0.00  0.00    +0.000 N 
ATOM      4  C   UNL     1       4.462   3.691  17.302  0.00  0.00    +0.000 C 
ATOM      5  C   UNL     1       4.504   4.189  18.756  0.00  0.00    +0.000 C 
ATOM      6  O   UNL     1       5.845   4.176  19.272  0.00  0.00    +0.000 OA
ATOM      7  C   UNL     1       6.686   5.072  18.539  0.00  0.00    +0.000 C 
ATOM      8  C   UNL     1       6.573   4.876  17.030  0.00  0.00    +0.000 C 
ATOM      9  N   UNL     1       7.574   5.070  16.210  0.00  0.00    +0.000 NA
ENDROOT
TORSDOF 0
ENDMDL
MODEL 4
REMARK VINA RESULT:      -4.3      4.357      6.029
REMARK  Name = 
REMARK  0 active torsions:
REMARK  status: ('A' for Active; 'I' for Inactive)
REMARK                            x       y       z     vdW  Elec       q    Type
REMARK                         _______ _______ _______ _____ _____    ______ ____
ROOT
ATOM      1  C   UNL     1       1.604   3.147  21.580  0.00  0.00    +0.000 C 
ATOM      2  C   UNL     1       2.931   2.569  21.068  0.00  0.00    +0.000 C 
ATOM      3  N   UNL     1       3.027   3.201  19.769  0.00  0.00    +0.000 N 
ATOM      4  C   UNL     1       3.848   2.594  18.730  0.00  0.00    +0.000 C 
ATOM      5  C   UNL     1       3.618   3.316  17.391  0.00  0.00    +0.000 C 
ATOM      6  O   UNL     1       2.225   3.330  17.040  0.00  0.00    +0.000 OA
ATOM      7  C   UNL     1       1.459   4.062  18.003  0.00  0.00    +0.000 C 
ATOM      8  C   UNL     1       1.760   3.633  19.436  0.00  0.00    +0.000 C 
ATOM      9  N   UNL     1       0.862   3.652  20.387  0.00  0.00    +0.000 NA
ENDROOT
TORSDOF 0
ENDMDL
MODEL 5
REMARK VINA RESULT:      -4.3      2.978      3.946
REMARK  Name = 
REMARK  0 active torsions:
REMARK  status: ('A' for Active; 'I' for Inactive)
REMARK                            x       y       z     vdW  Elec       q    Type
REMARK                         _______ _______ _______ _____ _____    ______ ____
ROOT
ATOM      1  C   UNL     1       5.637   5.459  18.424  0.00  0.00    +0.000 C 
ATOM      2  C   UNL     1       4.484   5.295  17.423  0.00  0.00    +0.000 C 
ATOM      3  N   UNL     1       3.719   4.238  18.051  0.00  0.00    +0.000 N 
ATOM      4  C   UNL     1       2.825   3.418  17.246  0.00  0.00    +0.000 C 
ATOM      5  C   UNL     1       2.299   2.238  18.081  0.00  0.00    +0.000 C 
ATOM      6  O   UNL     1       3.380   1.473  18.638  0.00  0.00    +0.000 OA
ATOM      7  C   UNL     1       4.158   2.264  19.543  0.00  0.00    +0.000 C 
ATOM      8  C   UNL     1       4.560   3.608  18.946  0.00  0.00    +0.000 C 
ATOM      9  N   UNL     1       5.682   4.212  19.241  0.00  0.00    +0.000 NA
ENDROOT
TORSDOF 0
ENDMDL
MODEL 6
REMARK VINA RESULT:      -4.2      1.854      3.139
REMARK  Name = 
REMARK  0 active torsions:
REMARK  status: ('A' for Active; 'I' for Inactive)
REMARK                            x       y       z     vdW  Elec       q    Type
REMARK                         _______ _______ _______ _____ _____    ______ ____
ROOT
ATOM      1  C   UNL     1       7.674   5.966  18.764  0.00  0.00    +0.000 C 
ATOM      2  C   UNL     1       7.264   5.630  17.323  0.00  0.00    +0.000 C 
ATOM      3  N   UNL     1       5.905   5.171  17.520  0.00  0.00    +0.000 N 
ATOM      4  C   UNL     1       5.288   4.298  16.531  0.00  0.00    +0.000 C 
ATOM      5  C   UNL     1       3.943   3.772  17.062  0.00  0.00    +0.000 C 
ATOM      6  O   UNL     1       4.104   3.120  18.332  0.00  0.00    +0.000 OA
ATOM      7  C   UNL     1       4.572   4.038  19.326  0.00  0.00    +0.000 C 
ATOM      8  C   UNL     1       5.780   4.842  18.854  0.00  0.00    +0.000 C 
ATOM      9  N   UNL     1       6.725   5.246  19.664  0.00  0.00    +0.000 NA
ENDROOT
TORSDOF 0
ENDMDL
MODEL 7
REMARK VINA RESULT:      -4.2      1.622      1.732
REMARK  Name = 
REMARK  0 active torsions:
REMARK  status: ('A' for Active; 'I' for Inactive)
REMARK                            x       y       z     vdW  Elec       q    Type
REMARK                         _______ _______ _______ _____ _____    ______ ____
ROOT
ATOM      1  C   UNL     1       5.552   4.872  14.842  0.00  0.00    +0.000 C 
ATOM      2  C   UNL     1       6.384   3.974  15.770  0.00  0.00    +0.000 C 
ATOM      3  N   UNL     1       6.542   4.836  16.922  0.00  0.00    +0.000 N 
ATOM      4  C   UNL     1       7.651   4.616  17.841  0.00  0.00    +0.000 C 
ATOM      5  C   UNL     1       7.737   5.776  18.847  0.00  0.00    +0.000 C 
ATOM      6  O   UNL     1       7.835   7.042  18.175  0.00  0.00    +0.000 OA
ATOM      7  C   UNL     1       6.665   7.302  17.394  0.00  0.00    +0.000 C 
ATOM      8  C   UNL     1       6.286   6.124  16.501  0.00  0.00    +0.000 C 
ATOM      9  N   UNL     1       5.717   6.272  15.332  0.00  0.00    +0.000 NA
ENDROOT
TORSDOF 0
ENDMDL
MODEL 8
REMARK VINA RESULT:      -4.2      3.996      5.537
REMARK  Name = 
REMARK  0 active torsions:
REMARK  status: ('A' for Active; 'I' for Inactive)
REMARK                            x       y       z     vdW  Elec       q    Type
REMARK                         _______ _______ _______ _____ _____    ______ ____
ROOT
ATOM      1  C   UNL     1       1.390   2.838  21.386  0.00  0.00    +0.000 C 
ATOM      2  C   UNL     1       0.884   3.639  20.178  0.00  0.00    +0.000 C 
ATOM      3  N   UNL     1       1.980   3.463  19.248  0.00  0.00    +0.000 N 
ATOM      4  C   UNL     1       2.175   4.425  18.172  0.00  0.00    +0.000 C 
ATOM      5  C   UNL     1       3.513   4.154  17.462  0.00  0.00    +0.000 C 
ATOM      6  O   UNL     1       4.606   4.154  18.394  0.00  0.00    +0.000 OA
ATOM      7  C   UNL     1       4.465   3.103  19.355  0.00  0.00    +0.000 C 
ATOM      8  C   UNL     1       3.078   3.073  19.987  0.00  0.00    +0.000 C 
ATOM      9  N   UNL     1       2.866   2.689  21.220  0.00  0.00    +0.000 NA
ENDROOT
TORSDOF 0
ENDMDL
MODEL 9
REMARK VINA RESULT:      -4.1      1.772      2.848
REMARK  Name = 
REMARK  0 active torsions:
REMARK  status: ('A' for Active; 'I' for Inactive)
REMARK                            x       y       z     vdW  Elec       q    Type
REMARK                         _______ _______ _______ _____ _____    ______ ____
ROOT
ATOM      1  C   UNL     1       3.279   4.510  17.662  0.00  0.00    +0.000 C 
ATOM      2  C   UNL     1       3.985   5.029  18.923  0.00  0.00    +0.000 C 
ATOM      3  N   UNL     1       5.294   5.353  18.395  0.00  0.00    +0.000 N 
ATOM      4  C   UNL     1       6.440   5.413  19.293  0.00  0.00    +0.000 C 
ATOM      5  C   UNL     1       7.737   5.554  18.478  0.00  0.00    +0.000 C 
ATOM      6  O   UNL     1       7.862   4.498  17.512  0.00  0.00    +0.000 OA
ATOM      7  C   UNL     1       6.802   4.551  16.551  0.00  0.00    +0.000 C 
ATOM      8  C   UNL     1       5.429   4.670  17.204  0.00  0.00    +0.000 C 
ATOM      9  N   UNL     1       4.347   4.150  16.684  0.00  0.00    +0.000 NA
ENDROOT
TORSDOF 0
ENDMDL
