MODEL 1
REMARK VINA RESULT:      -7.4      0.000      0.000
REMARK  Name = 
REMARK  10 active torsions:
REMARK  status: ('A' for Active; 'I' for Inactive)
REMARK    1  A    between atoms: C_1  and  O_2
REMARK    2  A    between atoms: O_2  and  C_3
REMARK    3  A    between atoms: C_5  and  C_6
REMARK    4  A    between atoms: C_6  and  C_8
REMARK    5  A    between atoms: C_9  and  N_10
REMARK    6  A    between atoms: N_17  and  C_18
REMARK    7  A    between atoms: C_20  and  O_21
REMARK    8  A    between atoms: O_21  and  C_22
REMARK    9  A    between atoms: C_23  and  O_24
REMARK   10  A    between atoms: O_24  and  C_25
REMARK                            x       y       z     vdW  Elec       q    Type
REMARK                         _______ _______ _______ _____ _____    ______ ____
ROOT
ATOM      1  C   UNL     1       2.457   7.826  18.199  0.00  0.00    +0.000 C 
ATOM      2  O   UNL     1       2.880   8.481  17.237  0.00  0.00    +0.000 OA
ENDROOT
BRANCH   1   3
ATOM      3  C   UNL     1       1.600   8.461  19.205  0.00  0.00    +0.000 A 
ATOM      4  C   UNL     1       1.049   9.726  19.041  0.00  0.00    +0.000 A 
ATOM      5  C   UNL     1       0.351  10.117  20.199  0.00  0.00    +0.000 A 
ATOM      6  C   UNL     1      -0.421  11.247  20.545  0.00  0.00    +0.000 A 
ATOM      7  C   UNL     1      -0.863  11.408  21.860  0.00  0.00    +0.000 A 
ATOM      8  C   UNL     1      -0.520  10.472  22.828  0.00  0.00    +0.000 A 
ATOM      9  C   UNL     1       0.207   9.320  22.497  0.00  0.00    +0.000 A 
ATOM     10  C   UNL     1       0.604   9.138  21.158  0.00  0.00    +0.000 A 
ATOM     11  N   UNL     1       1.255   8.093  20.506  0.00  0.00    +0.000 N 
ATOM     12  C   UNL     1       1.515   6.823  21.153  0.00  0.00    +0.000 C 
BRANCH   4  13
ATOM     13  N   UNL     1       1.227  10.502  17.946  0.00  0.00    +0.000 N 
ATOM     14  H   UNL     1       0.572  11.280  17.833  0.00  0.00    +0.000 HD
ATOM     15  H   UNL     1       1.390  10.037  17.056  0.00  0.00    +0.000 HD
ENDBRANCH   4  13
ENDBRANCH   1   3
BRANCH   1  18
ATOM     16  C   UNL     1       4.738   4.857  18.667  0.00  0.00    +0.000 A 
ATOM     17  C   UNL     1       4.242   6.161  18.529  0.00  0.00    +0.000 A 
ATOM     18  C   UNL     1       2.897   6.411  18.221  0.00  0.00    +0.000 A 
ATOM     19  C   UNL     1       2.077   5.340  17.899  0.00  0.00    +0.000 A 
ATOM     20  C   UNL     1       2.548   4.025  18.044  0.00  0.00    +0.000 A 
ATOM     21  C   UNL     1       3.883   3.764  18.432  0.00  0.00    +0.000 A 
BRANCH  16  23
ATOM     22  C   UNL     1       7.002   4.751  17.918  0.00  0.00    +0.000 C 
ATOM     23  O   UNL     1       6.053   4.628  18.974  0.00  0.00    +0.000 OA
ENDBRANCH  16  23
BRANCH  20  24
ATOM     24  O   UNL     1       1.600   3.077  17.735  0.00  0.00    +0.000 OA
ATOM     25  C   UNL     1       0.806   2.627  18.830  0.00  0.00    +0.000 C 
ENDBRANCH  20  24
BRANCH  21  26
ATOM     26  O   UNL     1       4.238   2.441  18.480  0.00  0.00    +0.000 OA
ATOM     27  C   UNL     1       4.340   1.791  19.740  0.00  0.00    +0.000 C 
ENDBRANCH  21  26
ENDBRANCH   1  18
TORSDOF 6
ENDMDL
MODEL 2
REMARK VINA RESULT:      -7.2      0.245      2.530
REMARK  Name = 
REMARK  10 active torsions:
REMARK  status: ('A' for Active; 'I' for Inactive)
REMARK    1  A    between atoms: C_1  and  O_2
REMARK    2  A    between atoms: O_2  and  C_3
REMARK    3  A    between atoms: C_5  and  C_6
REMARK    4  A    between atoms: C_6  and  C_8
REMARK    5  A    between atoms: C_9  and  N_10
REMARK    6  A    between atoms: N_17  and  C_18
REMARK    7  A    between atoms: C_20  and  O_21
REMARK    8  A    between atoms: O_21  and  C_22
REMARK    9  A    between atoms: C_23  and  O_24
REMARK   10  A    between atoms: O_24  and  C_25
REMARK                            x       y       z     vdW  Elec       q    Type
REMARK                         _______ _______ _______ _____ _____    ______ ____
ROOT
ATOM      1  C   UNL     1       2.592   7.783  18.173  0.00  0.00    +0.000 C 
ATOM      2  O   UNL     1       3.043   8.441  17.226  0.00  0.00    +0.000 OA
ENDROOT
BRANCH   1   3
ATOM      3  C   UNL     1       1.714   8.417  19.162  0.00  0.00    +0.000 A 
ATOM      4  C   UNL     1       1.161   9.680  18.983  0.00  0.00    +0.000 A 
ATOM      5  C   UNL     1       0.440  10.072  20.127  0.00  0.00    +0.000 A 
ATOM      6  C   UNL     1      -0.342  11.199  20.455  0.00  0.00    +0.000 A 
ATOM      7  C   UNL     1      -0.808  11.363  21.761  0.00  0.00    +0.000 A 
ATOM      8  C   UNL     1      -0.480  10.431  22.738  0.00  0.00    +0.000 A 
ATOM      9  C   UNL     1       0.257   9.281  22.424  0.00  0.00    +0.000 A 
ATOM     10  C   UNL     1       0.680   9.097  21.093  0.00  0.00    +0.000 A 
ATOM     11  N   UNL     1       1.347   8.052  20.457  0.00  0.00    +0.000 N 
ATOM     12  C   UNL     1       1.600   6.785  21.113  0.00  0.00    +0.000 C 
BRANCH   4  13
ATOM     13  N   UNL     1       1.357  10.454  17.890  0.00  0.00    +0.000 N 
ATOM     14  H   UNL     1       0.514  10.765  17.401  0.00  0.00    +0.000 HD
ATOM     15  H   UNL     1       2.070  10.165  17.225  0.00  0.00    +0.000 HD
ENDBRANCH   4  13
ENDBRANCH   1   3
BRANCH   1  18
ATOM     16  C   UNL     1       2.357   4.028  17.878  0.00  0.00    +0.000 A 
ATOM     17  C   UNL     1       2.040   5.391  17.968  0.00  0.00    +0.000 A 
ATOM     18  C   UNL     1       3.022   6.365  18.198  0.00  0.00    +0.000 A 
ATOM     19  C   UNL     1       4.314   5.952  18.491  0.00  0.00    +0.000 A 
ATOM     20  C   UNL     1       4.657   4.595  18.393  0.00  0.00    +0.000 A 
ATOM     21  C   UNL     1       3.686   3.614  18.084  0.00  0.00    +0.000 A 
BRANCH  16  23
ATOM     22  C   UNL     1       0.702   2.565  18.782  0.00  0.00    +0.000 C 
ATOM     23  O   UNL     1       1.388   3.089  17.648  0.00  0.00    +0.000 OA
ENDBRANCH  16  23
BRANCH  20  24
ATOM     24  O   UNL     1       5.985   4.354  18.664  0.00  0.00    +0.000 OA
ATOM     25  C   UNL     1       6.896   4.729  17.635  0.00  0.00    +0.000 C 
ENDBRANCH  20  24
BRANCH  21  26
ATOM     26  O   UNL     1       4.134   2.318  18.076  0.00  0.00    +0.000 OA
ATOM     27  C   UNL     1       4.141   1.574  19.286  0.00  0.00    +0.000 C 
ENDBRANCH  21  26
ENDBRANCH   1  18
TORSDOF 6
ENDMDL
MODEL 3
REMARK VINA RESULT:      -7.0      0.710      1.844
REMARK  Name = 
REMARK  10 active torsions:
REMARK  status: ('A' for Active; 'I' for Inactive)
REMARK    1  A    between atoms: C_1  and  O_2
REMARK    2  A    between atoms: O_2  and  C_3
REMARK    3  A    between atoms: C_5  and  C_6
REMARK    4  A    between atoms: C_6  and  C_8
REMARK    5  A    between atoms: C_9  and  N_10
REMARK    6  A    between atoms: N_17  and  C_18
REMARK    7  A    between atoms: C_20  and  O_21
REMARK    8  A    between atoms: O_21  and  C_22
REMARK    9  A    between atoms: C_23  and  O_24
REMARK   10  A    between atoms: O_24  and  C_25
REMARK                            x       y       z     vdW  Elec       q    Type
REMARK                         _______ _______ _______ _____ _____    ______ ____
ROOT
ATOM      1  C   UNL     1       2.432   7.857  18.255  0.00  0.00    +0.000 C 
ATOM      2  O   UNL     1       2.672   8.402  17.169  0.00  0.00    +0.000 OA
ENDROOT
BRANCH   1   3
ATOM      3  C   UNL     1       1.784   8.610  19.333  0.00  0.00    +0.000 A 
ATOM      4  C   UNL     1       1.476   8.051  20.567  0.00  0.00    +0.000 A 
ATOM      5  C   UNL     1       0.778   8.973  21.369  0.00  0.00    +0.000 A 
ATOM      6  C   UNL     1       0.287   8.949  22.692  0.00  0.00    +0.000 A 
ATOM      7  C   UNL     1      -0.518   9.993  23.152  0.00  0.00    +0.000 A 
ATOM      8  C   UNL     1      -0.854  11.038  22.300  0.00  0.00    +0.000 A 
ATOM      9  C   UNL     1      -0.341  11.105  20.997  0.00  0.00    +0.000 A 
ATOM     10  C   UNL     1       0.512  10.074  20.558  0.00  0.00    +0.000 A 
ATOM     11  N   UNL     1       1.228   9.888  19.378  0.00  0.00    +0.000 N 
ATOM     12  C   UNL     1       1.335  10.924  18.369  0.00  0.00    +0.000 C 
BRANCH   4  13
ATOM     13  N   UNL     1       1.745   6.770  20.916  0.00  0.00    +0.000 N 
ATOM     14  H   UNL     1       0.974   6.246  21.338  0.00  0.00    +0.000 HD
ATOM     15  H   UNL     1       2.616   6.586  21.407  0.00  0.00    +0.000 HD
ENDBRANCH   4  13
ENDBRANCH   1   3
BRANCH   1  18
ATOM     16  C   UNL     1       4.659   4.887  18.932  0.00  0.00    +0.000 A 
ATOM     17  C   UNL     1       4.182   6.190  18.732  0.00  0.00    +0.000 A 
ATOM     18  C   UNL     1       2.859   6.440  18.339  0.00  0.00    +0.000 A 
ATOM     19  C   UNL     1       2.052   5.366  17.997  0.00  0.00    +0.000 A 
ATOM     20  C   UNL     1       2.503   4.053  18.203  0.00  0.00    +0.000 A 
ATOM     21  C   UNL     1       3.811   3.793  18.674  0.00  0.00    +0.000 A 
BRANCH  16  23
ATOM     22  C   UNL     1       6.911   5.670  19.032  0.00  0.00    +0.000 C 
ATOM     23  O   UNL     1       5.951   4.657  19.321  0.00  0.00    +0.000 OA
ENDBRANCH  16  23
BRANCH  20  24
ATOM     24  O   UNL     1       1.567   3.102  17.863  0.00  0.00    +0.000 OA
ATOM     25  C   UNL     1       0.742   2.648  18.932  0.00  0.00    +0.000 C 
ENDBRANCH  20  24
BRANCH  21  26
ATOM     26  O   UNL     1       4.152   2.470  18.778  0.00  0.00    +0.000 OA
ATOM     27  C   UNL     1       4.363   1.900  20.062  0.00  0.00    +0.000 C 
ENDBRANCH  21  26
ENDBRANCH   1  18
TORSDOF 6
ENDMDL
MODEL 4
REMARK VINA RESULT:      -6.9      0.697      3.118
REMARK  Name = 
REMARK  10 active torsions:
REMARK  status: ('A' for Active; 'I' for Inactive)
REMARK    1  A    between atoms: C_1  and  O_2
REMARK    2  A    between atoms: O_2  and  C_3
REMARK    3  A    between atoms: C_5  and  C_6
REMARK    4  A    between atoms: C_6  and  C_8
REMARK    5  A    between atoms: C_9  and  N_10
REMARK    6  A    between atoms: N_17  and  C_18
REMARK    7  A    between atoms: C_20  and  O_21
REMARK    8  A    between atoms: O_21  and  C_22
REMARK    9  A    between atoms: C_23  and  O_24
REMARK   10  A    between atoms: O_24  and  C_25
REMARK                            x       y       z     vdW  Elec       q    Type
REMARK                         _______ _______ _______ _____ _____    ______ ____
ROOT
ATOM      1  C   UNL     1       2.379   7.984  18.349  0.00  0.00    +0.000 C 
ATOM      2  O   UNL     1       2.550   8.503  17.238  0.00  0.00    +0.000 OA
ENDROOT
BRANCH   1   3
ATOM      3  C   UNL     1       1.719   8.735  19.422  0.00  0.00    +0.000 A 
ATOM      4  C   UNL     1       1.390   8.171  20.649  0.00  0.00    +0.000 A 
ATOM      5  C   UNL     1       0.685   9.093  21.445  0.00  0.00    +0.000 A 
ATOM      6  C   UNL     1       0.175   9.065  22.761  0.00  0.00    +0.000 A 
ATOM      7  C   UNL     1      -0.631  10.112  23.214  0.00  0.00    +0.000 A 
ATOM      8  C   UNL     1      -0.949  11.163  22.363  0.00  0.00    +0.000 A 
ATOM      9  C   UNL     1      -0.417  11.234  21.068  0.00  0.00    +0.000 A 
ATOM     10  C   UNL     1       0.437  10.200  20.635  0.00  0.00    +0.000 A 
ATOM     11  N   UNL     1       1.169  10.017  19.465  0.00  0.00    +0.000 N 
ATOM     12  C   UNL     1       1.297  11.056  18.463  0.00  0.00    +0.000 C 
BRANCH   4  13
ATOM     13  N   UNL     1       1.647   6.888  20.995  0.00  0.00    +0.000 N 
ATOM     14  H   UNL     1       2.118   6.748  21.892  0.00  0.00    +0.000 HD
ATOM     15  H   UNL     1       2.037   6.274  20.284  0.00  0.00    +0.000 HD
ENDBRANCH   4  13
ENDBRANCH   1   3
BRANCH   1  18
ATOM     16  C   UNL     1       2.448   4.220  18.098  0.00  0.00    +0.000 A 
ATOM     17  C   UNL     1       2.029   5.557  18.110  0.00  0.00    +0.000 A 
ATOM     18  C   UNL     1       2.895   6.600  18.468  0.00  0.00    +0.000 A 
ATOM     19  C   UNL     1       4.151   6.281  18.965  0.00  0.00    +0.000 A 
ATOM     20  C   UNL     1       4.597   4.951  18.948  0.00  0.00    +0.000 A 
ATOM     21  C   UNL     1       3.754   3.901  18.513  0.00  0.00    +0.000 A 
BRANCH  16  23
ATOM     22  C   UNL     1       0.789   2.640  18.769  0.00  0.00    +0.000 C 
ATOM     23  O   UNL     1       1.592   3.212  17.740  0.00  0.00    +0.000 OA
ENDBRANCH  16  23
BRANCH  20  24
ATOM     24  O   UNL     1       5.880   4.807  19.425  0.00  0.00    +0.000 OA
ATOM     25  C   UNL     1       6.886   5.495  18.688  0.00  0.00    +0.000 C 
ENDBRANCH  20  24
BRANCH  21  26
ATOM     26  O   UNL     1       4.285   2.640  18.600  0.00  0.00    +0.000 OA
ATOM     27  C   UNL     1       4.297   1.972  19.855  0.00  0.00    +0.000 C 
ENDBRANCH  21  26
ENDBRANCH   1  18
TORSDOF 6
ENDMDL
MODEL 5
REMARK VINA RESULT:      -6.8      3.751      7.924
REMARK  Name = 
REMARK  10 active torsions:
REMARK  status: ('A' for Active; 'I' for Inactive)
REMARK    1  A    between atoms: C_1  and  O_2
REMARK    2  A    between atoms: O_2  and  C_3
REMARK    3  A    between atoms: C_5  and  C_6
REMARK    4  A    between atoms: C_6  and  C_8
REMARK    5  A    between atoms: C_9  and  N_10
REMARK    6  A    between atoms: N_17  and  C_18
REMARK    7  A    between atoms: C_20  and  O_21
REMARK    8  A    between atoms: O_21  and  C_22
REMARK    9  A    between atoms: C_23  and  O_24
REMARK   10  A    between atoms: O_24  and  C_25
REMARK                            x       y       z     vdW  Elec       q    Type
REMARK                         _______ _______ _______ _____ _____    ______ ____
ROOT
ATOM      1  C   UNL     1       0.417  10.776  19.605  0.00  0.00    +0.000 C 
ATOM      2  O   UNL     1       0.980  11.814  19.978  0.00  0.00    +0.000 OA
ENDROOT
BRANCH   1   3
ATOM      3  C   UNL     1       1.124   9.492  19.651  0.00  0.00    +0.000 A 
ATOM      4  C   UNL     1       1.835   8.981  18.572  0.00  0.00    +0.000 A 
ATOM      5  C   UNL     1       2.331   7.697  18.869  0.00  0.00    +0.000 A 
ATOM      6  C   UNL     1       3.141   6.774  18.174  0.00  0.00    +0.000 A 
ATOM      7  C   UNL     1       3.331   5.491  18.693  0.00  0.00    +0.000 A 
ATOM      8  C   UNL     1       2.702   5.120  19.875  0.00  0.00    +0.000 A 
ATOM      9  C   UNL     1       1.930   6.035  20.604  0.00  0.00    +0.000 A 
ATOM     10  C   UNL     1       1.786   7.343  20.101  0.00  0.00    +0.000 A 
ATOM     11  N   UNL     1       1.163   8.480  20.610  0.00  0.00    +0.000 N 
ATOM     12  C   UNL     1       0.641   8.535  21.961  0.00  0.00    +0.000 C 
BRANCH   4  13
ATOM     13  N   UNL     1       1.963   9.602  17.376  0.00  0.00    +0.000 N 
ATOM     14  H   UNL     1       2.655   9.207  16.734  0.00  0.00    +0.000 HD
ATOM     15  H   UNL     1       2.010  10.618  17.372  0.00  0.00    +0.000 HD
ENDBRANCH   4  13
ENDBRANCH   1   3
BRANCH   1  18
ATOM     16  C   UNL     1      -3.085  12.173  19.430  0.00  0.00    +0.000 A 
ATOM     17  C   UNL     1      -1.787  11.850  19.851  0.00  0.00    +0.000 A 
ATOM     18  C   UNL     1      -0.972  10.969  19.125  0.00  0.00    +0.000 A 
ATOM     19  C   UNL     1      -1.522  10.289  18.048  0.00  0.00    +0.000 A 
ATOM     20  C   UNL     1      -2.813  10.607  17.600  0.00  0.00    +0.000 A 
ATOM     21  C   UNL     1      -3.613  11.554  18.282  0.00  0.00    +0.000 A 
BRANCH  16  23
ATOM     22  C   UNL     1      -3.969  12.820  21.551  0.00  0.00    +0.000 C 
ATOM     23  O   UNL     1      -3.866  13.040  20.146  0.00  0.00    +0.000 OA
ENDBRANCH  16  23
BRANCH  20  24
ATOM     24  O   UNL     1      -3.193   9.883  16.493  0.00  0.00    +0.000 OA
ATOM     25  C   UNL     1      -2.935  10.506  15.238  0.00  0.00    +0.000 C 
ENDBRANCH  20  24
BRANCH  21  26
ATOM     26  O   UNL     1      -4.876  11.733  17.782  0.00  0.00    +0.000 OA
ATOM     27  C   UNL     1      -5.955  10.981  18.320  0.00  0.00    +0.000 C 
ENDBRANCH  21  26
ENDBRANCH   1  18
TORSDOF 6
ENDMDL
MODEL 6
REMARK VINA RESULT:      -6.8      1.607      1.981
REMARK  Name = 
REMARK  10 active torsions:
REMARK  status: ('A' for Active; 'I' for Inactive)
REMARK    1  A    between atoms: C_1  and  O_2
REMARK    2  A    between atoms: O_2  and  C_3
REMARK    3  A    between atoms: C_5  and  C_6
REMARK    4  A    between atoms: C_6  and  C_8
REMARK    5  A    between atoms: C_9  and  N_10
REMARK    6  A    between atoms: N_17  and  C_18
REMARK    7  A    between atoms: C_20  and  O_21
REMARK    8  A    between atoms: O_21  and  C_22
REMARK    9  A    between atoms: C_23  and  O_24
REMARK   10  A    between atoms: O_24  and  C_25
REMARK                            x       y       z     vdW  Elec       q    Type
REMARK                         _______ _______ _______ _____ _____    ______ ____
ROOT
ATOM      1  C   UNL     1       1.699   9.081  18.530  0.00  0.00    +0.000 C 
ATOM      2  O   UNL     1       2.027   9.667  17.489  0.00  0.00    +0.000 OA
ENDROOT
BRANCH   1   3
ATOM      3  C   UNL     1       0.752   9.702  19.461  0.00  0.00    +0.000 A 
ATOM      4  C   UNL     1      -0.255  10.568  19.051  0.00  0.00    +0.000 A 
ATOM      5  C   UNL     1      -0.950  11.082  20.162  0.00  0.00    +0.000 A 
ATOM      6  C   UNL     1      -2.065  11.934  20.314  0.00  0.00    +0.000 A 
ATOM      7  C   UNL     1      -2.422  12.387  21.586  0.00  0.00    +0.000 A 
ATOM      8  C   UNL     1      -1.666  12.020  22.692  0.00  0.00    +0.000 A 
ATOM      9  C   UNL     1      -0.582  11.139  22.570  0.00  0.00    +0.000 A 
ATOM     10  C   UNL     1      -0.260  10.645  21.291  0.00  0.00    +0.000 A 
ATOM     11  N   UNL     1       0.685   9.720  20.854  0.00  0.00    +0.000 N 
ATOM     12  C   UNL     1       1.467   8.920  21.777  0.00  0.00    +0.000 C 
BRANCH   4  13
ATOM     13  N   UNL     1      -0.481  10.924  17.765  0.00  0.00    +0.000 N 
ATOM     14  H   UNL     1       0.307  11.347  17.268  0.00  0.00    +0.000 HD
ATOM     15  H   UNL     1      -1.345  11.419  17.554  0.00  0.00    +0.000 HD
ENDBRANCH   4  13
ENDBRANCH   1   3
BRANCH   1  18
ATOM     16  C   UNL     1       4.099   6.222  17.974  0.00  0.00    +0.000 A 
ATOM     17  C   UNL     1       3.364   7.407  17.827  0.00  0.00    +0.000 A 
ATOM     18  C   UNL     1       2.342   7.759  18.720  0.00  0.00    +0.000 A 
ATOM     19  C   UNL     1       1.953   6.839  19.683  0.00  0.00    +0.000 A 
ATOM     20  C   UNL     1       2.683   5.653  19.858  0.00  0.00    +0.000 A 
ATOM     21  C   UNL     1       3.767   5.328  19.009  0.00  0.00    +0.000 A 
BRANCH  16  23
ATOM     22  C   UNL     1       6.312   6.636  17.182  0.00  0.00    +0.000 C 
ATOM     23  O   UNL     1       5.098   5.894  17.098  0.00  0.00    +0.000 OA
ENDBRANCH  16  23
BRANCH  20  24
ATOM     24  O   UNL     1       2.203   4.873  20.885  0.00  0.00    +0.000 OA
ATOM     25  C   UNL     1       1.080   4.058  20.559  0.00  0.00    +0.000 C 
ENDBRANCH  20  24
BRANCH  21  26
ATOM     26  O   UNL     1       4.361   4.115  19.245  0.00  0.00    +0.000 OA
ATOM     27  C   UNL     1       3.952   2.979  18.496  0.00  0.00    +0.000 C 
ENDBRANCH  21  26
ENDBRANCH   1  18
TORSDOF 6
ENDMDL
MODEL 7
REMARK VINA RESULT:      -6.6      3.834      7.980
REMARK  Name = 
REMARK  10 active torsions:
REMARK  status: ('A' for Active; 'I' for Inactive)
REMARK    1  A    between atoms: C_1  and  O_2
REMARK    2  A    between atoms: O_2  and  C_3
REMARK    3  A    between atoms: C_5  and  C_6
REMARK    4  A    between atoms: C_6  and  C_8
REMARK    5  A    between atoms: C_9  and  N_10
REMARK    6  A    between atoms: N_17  and  C_18
REMARK    7  A    between atoms: C_20  and  O_21
REMARK    8  A    between atoms: O_21  and  C_22
REMARK    9  A    between atoms: C_23  and  O_24
REMARK   10  A    between atoms: O_24  and  C_25
REMARK                            x       y       z     vdW  Elec       q    Type
REMARK                         _______ _______ _______ _____ _____    ______ ____
ROOT
ATOM      1  C   UNL     1       0.307  10.967  19.961  0.00  0.00    +0.000 C 
ATOM      2  O   UNL     1       0.773  11.904  20.623  0.00  0.00    +0.000 OA
ENDROOT
BRANCH   1   3
ATOM      3  C   UNL     1       1.098   9.752  19.741  0.00  0.00    +0.000 A 
ATOM      4  C   UNL     1       1.782   9.497  18.559  0.00  0.00    +0.000 A 
ATOM      5  C   UNL     1       2.375   8.221  18.594  0.00  0.00    +0.000 A 
ATOM      6  C   UNL     1       3.205   7.500  17.709  0.00  0.00    +0.000 A 
ATOM      7  C   UNL     1       3.505   6.163  17.975  0.00  0.00    +0.000 A 
ATOM      8  C   UNL     1       2.966   5.538  19.093  0.00  0.00    +0.000 A 
ATOM      9  C   UNL     1       2.176   6.248  20.009  0.00  0.00    +0.000 A 
ATOM     10  C   UNL     1       1.921   7.611  19.761  0.00  0.00    +0.000 A 
ATOM     11  N   UNL     1       1.253   8.589  20.495  0.00  0.00    +0.000 N 
ATOM     12  C   UNL     1       0.801   8.360  21.853  0.00  0.00    +0.000 C 
BRANCH   4  13
ATOM     13  N   UNL     1       1.806  10.332  17.493  0.00  0.00    +0.000 N 
ATOM     14  H   UNL     1       2.732  10.591  17.143  0.00  0.00    +0.000 HD
ATOM     15  H   UNL     1       1.190  11.141  17.511  0.00  0.00    +0.000 HD
ENDBRANCH   4  13
ENDBRANCH   1   3
BRANCH   1  18
ATOM     16  C   UNL     1      -2.738  10.575  17.766  0.00  0.00    +0.000 A 
ATOM     17  C   UNL     1      -1.439  10.495  18.288  0.00  0.00    +0.000 A 
ATOM     18  C   UNL     1      -1.060  11.203  19.438  0.00  0.00    +0.000 A 
ATOM     19  C   UNL     1      -1.950  12.117  19.981  0.00  0.00    +0.000 A 
ATOM     20  C   UNL     1      -3.260  12.204  19.484  0.00  0.00    +0.000 A 
ATOM     21  C   UNL     1      -3.674  11.434  18.372  0.00  0.00    +0.000 A 
BRANCH  16  23
ATOM     22  C   UNL     1      -2.914  10.516  15.387  0.00  0.00    +0.000 C 
ATOM     23  O   UNL     1      -3.096   9.874  16.646  0.00  0.00    +0.000 OA
ENDBRANCH  16  23
BRANCH  20  24
ATOM     24  O   UNL     1      -4.033  13.119  20.161  0.00  0.00    +0.000 OA
ATOM     25  C   UNL     1      -4.224  12.851  21.548  0.00  0.00    +0.000 C 
ENDBRANCH  20  24
BRANCH  21  26
ATOM     26  O   UNL     1      -4.959  11.652  17.946  0.00  0.00    +0.000 OA
ATOM     27  C   UNL     1      -6.011  10.846  18.459  0.00  0.00    +0.000 C 
ENDBRANCH  21  26
ENDBRANCH   1  18
TORSDOF 6
ENDMDL
MODEL 8
REMARK VINA RESULT:      -6.6      1.564      2.995
REMARK  Name = 
REMARK  10 active torsions:
REMARK  status: ('A' for Active; 'I' for Inactive)
REMARK    1  A    between atoms: C_1  and  O_2
REMARK    2  A    between atoms: O_2  and  C_3
REMARK    3  A    between atoms: C_5  and  C_6
REMARK    4  A    between atoms: C_6  and  C_8
REMARK    5  A    between atoms: C_9  and  N_10
REMARK    6  A    between atoms: N_17  and  C_18
REMARK    7  A    between atoms: C_20  and  O_21
REMARK    8  A    between atoms: O_21  and  C_22
REMARK    9  A    between atoms: C_23  and  O_24
REMARK   10  A    between atoms: O_24  and  C_25
REMARK                            x       y       z     vdW  Elec       q    Type
REMARK                         _______ _______ _______ _____ _____    ______ ____
ROOT
ATOM      1  C   UNL     1       2.340   6.906  18.292  0.00  0.00    +0.000 C 
ATOM      2  O   UNL     1       1.602   6.484  17.391  0.00  0.00    +0.000 OA
ENDROOT
BRANCH   1   3
ATOM      3  C   UNL     1       1.856   7.926  19.228  0.00  0.00    +0.000 A 
ATOM      4  C   UNL     1       1.491   7.638  20.538  0.00  0.00    +0.000 A 
ATOM      5  C   UNL     1       0.980   8.785  21.173  0.00  0.00    +0.000 A 
ATOM      6  C   UNL     1       0.527   9.064  22.480  0.00  0.00    +0.000 A 
ATOM      7  C   UNL     1      -0.078  10.291  22.757  0.00  0.00    +0.000 A 
ATOM      8  C   UNL     1      -0.255  11.224  21.743  0.00  0.00    +0.000 A 
ATOM      9  C   UNL     1       0.227  10.987  20.448  0.00  0.00    +0.000 A 
ATOM     10  C   UNL     1       0.882   9.767  20.189  0.00  0.00    +0.000 A 
ATOM     11  N   UNL     1       1.526   9.270  19.058  0.00  0.00    +0.000 N 
ATOM     12  C   UNL     1       1.780  10.091  17.890  0.00  0.00    +0.000 C 
BRANCH   4  13
ATOM     13  N   UNL     1       1.549   6.406  21.096  0.00  0.00    +0.000 N 
ATOM     14  H   UNL     1       2.464   5.949  21.086  0.00  0.00    +0.000 HD
ATOM     15  H   UNL     1       0.815   5.743  20.860  0.00  0.00    +0.000 HD
ENDBRANCH   4  13
ENDBRANCH   1   3
BRANCH   1  18
ATOM     16  C   UNL     1       6.035   6.532  17.620  0.00  0.00    +0.000 A 
ATOM     17  C   UNL     1       4.702   6.966  17.593  0.00  0.00    +0.000 A 
ATOM     18  C   UNL     1       3.694   6.304  18.310  0.00  0.00    +0.000 A 
ATOM     19  C   UNL     1       4.001   5.106  18.938  0.00  0.00    +0.000 A 
ATOM     20  C   UNL     1       5.331   4.660  18.991  0.00  0.00    +0.000 A 
ATOM     21  C   UNL     1       6.367   5.366  18.335  0.00  0.00    +0.000 A 
BRANCH  16  23
ATOM     22  C   UNL     1       7.689   8.252  17.587  0.00  0.00    +0.000 C 
ATOM     23  O   UNL     1       7.009   7.191  16.921  0.00  0.00    +0.000 OA
ENDBRANCH  16  23
BRANCH  20  24
ATOM     24  O   UNL     1       5.478   3.485  19.692  0.00  0.00    +0.000 OA
ATOM     25  C   UNL     1       4.315   2.665  19.760  0.00  0.00    +0.000 C 
ENDBRANCH  20  24
BRANCH  21  26
ATOM     26  O   UNL     1       7.612   4.797  18.411  0.00  0.00    +0.000 OA
ATOM     27  C   UNL     1       8.506   5.207  19.437  0.00  0.00    +0.000 C 
ENDBRANCH  21  26
ENDBRANCH   1  18
TORSDOF 6
ENDMDL
MODEL 9
REMARK VINA RESULT:      -6.5      3.432      7.553
REMARK  Name = 
REMARK  10 active torsions:
REMARK  status: ('A' for Active; 'I' for Inactive)
REMARK    1  A    between atoms: C_1  and  O_2
REMARK    2  A    between atoms: O_2  and  C_3
REMARK    3  A    between atoms: C_5  and  C_6
REMARK    4  A    between atoms: C_6  and  C_8
REMARK    5  A    between atoms: C_9  and  N_10
REMARK    6  A    between atoms: N_17  and  C_18
REMARK    7  A    between atoms: C_20  and  O_21
REMARK    8  A    between atoms: O_21  and  C_22
REMARK    9  A    between atoms: C_23  and  O_24
REMARK   10  A    between atoms: O_24  and  C_25
REMARK                            x       y       z     vdW  Elec       q    Type
REMARK                         _______ _______ _______ _____ _____    ______ ____
ROOT
ATOM      1  C   UNL     1       5.677   5.172  18.547  0.00  0.00    +0.000 C 
ATOM      2  O   UNL     1       6.603   5.179  19.369  0.00  0.00    +0.000 OA
ENDROOT
BRANCH   1   3
ATOM      3  C   UNL     1       5.927   4.786  17.155  0.00  0.00    +0.000 A 
ATOM      4  C   UNL     1       6.864   5.422  16.349  0.00  0.00    +0.000 A 
ATOM      5  C   UNL     1       6.825   4.906  15.040  0.00  0.00    +0.000 A 
ATOM      6  C   UNL     1       7.575   5.144  13.869  0.00  0.00    +0.000 A 
ATOM      7  C   UNL     1       7.176   4.566  12.662  0.00  0.00    +0.000 A 
ATOM      8  C   UNL     1       6.031   3.781  12.612  0.00  0.00    +0.000 A 
ATOM      9  C   UNL     1       5.298   3.494  13.771  0.00  0.00    +0.000 A 
ATOM     10  C   UNL     1       5.736   4.039  14.995  0.00  0.00    +0.000 A 
ATOM     11  N   UNL     1       5.284   3.887  16.304  0.00  0.00    +0.000 N 
ATOM     12  C   UNL     1       4.272   2.914  16.664  0.00  0.00    +0.000 C 
BRANCH   4  13
ATOM     13  N   UNL     1       7.649   6.449  16.753  0.00  0.00    +0.000 N 
ATOM     14  H   UNL     1       7.164   7.271  17.120  0.00  0.00    +0.000 HD
ATOM     15  H   UNL     1       8.416   6.726  16.146  0.00  0.00    +0.000 HD
ENDBRANCH   4  13
ENDBRANCH   1   3
BRANCH   1  18
ATOM     16  C   UNL     1       2.531   5.030  20.626  0.00  0.00    +0.000 A 
ATOM     17  C   UNL     1       3.729   4.698  19.979  0.00  0.00    +0.000 A 
ATOM     18  C   UNL     1       4.364   5.584  19.096  0.00  0.00    +0.000 A 
ATOM     19  C   UNL     1       3.709   6.755  18.743  0.00  0.00    +0.000 A 
ATOM     20  C   UNL     1       2.515   7.115  19.388  0.00  0.00    +0.000 A 
ATOM     21  C   UNL     1       1.910   6.261  20.339  0.00  0.00    +0.000 A 
BRANCH  16  23
ATOM     22  C   UNL     1       1.458   2.923  20.951  0.00  0.00    +0.000 C 
ATOM     23  O   UNL     1       1.926   4.158  21.489  0.00  0.00    +0.000 OA
ENDBRANCH  16  23
BRANCH  20  24
ATOM     24  O   UNL     1       2.018   8.326  18.964  0.00  0.00    +0.000 OA
ATOM     25  C   UNL     1       2.275   8.648  17.600  0.00  0.00    +0.000 C 
ENDBRANCH  20  24
BRANCH  21  26
ATOM     26  O   UNL     1       0.717   6.698  20.854  0.00  0.00    +0.000 OA
ATOM     27  C   UNL     1       0.678   7.911  21.593  0.00  0.00    +0.000 C 
ENDBRANCH  21  26
ENDBRANCH   1  18
TORSDOF 6
ENDMDL
