MODEL 1
REMARK VINA RESULT:      -6.9      0.000      0.000
REMARK  Name = 
REMARK  9 active torsions:
REMARK  status: ('A' for Active; 'I' for Inactive)
REMARK    1  A    between atoms: C_1  and  C_2
REMARK    2  A    between atoms: C_2  and  O_3
REMARK    3  A    between atoms: O_3  and  C_4
REMARK    4  A    between atoms: C_4  and  C_5
REMARK    5  A    between atoms: C_4  and  C_7
REMARK    6  A    between atoms: C_5  and  C_6
REMARK    7  A    between atoms: N_9  and  C_10
REMARK    8  A    between atoms: C_10  and  C_11
REMARK    9  A    between atoms: C_11  and  C_12
REMARK                            x       y       z     vdW  Elec       q    Type
REMARK                         _______ _______ _______ _____ _____    ______ ____
ROOT
ATOM      1  C   UNL     1       2.392   3.072  19.179  0.00  0.00    +0.000 C 
ATOM      2  O   UNL     1       1.806   2.190  19.804  0.00  0.00    +0.000 OA
ATOM      3  N   UNL     1       2.033   4.408  19.272  0.00  0.00    +0.000 N 
ATOM      4  C   UNL     1       0.982   4.815  20.228  0.00  0.00    +0.000 C 
ATOM      5  C   UNL     1       1.402   6.084  21.007  0.00  0.00    +0.000 C 
ATOM      6  N   UNL     1       1.751   7.110  20.012  0.00  0.00    +0.000 N 
ATOM      7  C   UNL     1       1.440   8.429  20.241  0.00  0.00    +0.000 A 
ATOM      8  C   UNL     1       1.203   9.264  19.141  0.00  0.00    +0.000 A 
ATOM      9  C   UNL     1       0.813  10.580  19.332  0.00  0.00    +0.000 A 
ATOM     10  C   UNL     1       0.679  11.057  20.623  0.00  0.00    +0.000 A 
ATOM     11  C   UNL     1       0.927  10.184  21.665  0.00  0.00    +0.000 A 
ATOM     12  N   UNL     1       1.284   8.885  21.500  0.00  0.00    +0.000 NA
ATOM     13  C   UNL     1       2.859   6.755  19.125  0.00  0.00    +0.000 C 
ATOM     14  C   UNL     1       2.477   5.477  18.359  0.00  0.00    +0.000 C 
ENDROOT
BRANCH   1  15
ATOM     15  C   UNL     1       3.595   2.761  18.308  0.00  0.00    +0.000 C 
BRANCH  15  16
ATOM     16  C   UNL     1       4.911   2.971  19.053  0.00  0.00    +0.000 C 
BRANCH  16  19
ATOM     17  C   UNL     1       6.324   4.977  18.651  0.00  0.00    +0.000 C 
ATOM     18  O   UNL     1       6.016   5.497  19.719  0.00  0.00    +0.000 OA
ATOM     19  N   UNL     1       5.879   3.725  18.269  0.00  0.00    +0.000 N 
ATOM     20  H   UNL     1       6.046   3.482  17.297  0.00  0.00    +0.000 HD
BRANCH  17  21
ATOM     21  C   UNL     1       7.263   5.675  17.642  0.00  0.00    +0.000 C 
BRANCH  21  22
ATOM     22  C   UNL     1       7.900   6.906  18.315  0.00  0.00    +0.000 C 
ATOM     23  C   UNL     1       7.738   8.195  17.518  0.00  0.00    +0.000 C 
ENDBRANCH  21  22
BRANCH  21  24
ATOM     24  O   UNL     1       6.579   5.983  16.418  0.00  0.00    +0.000 OA
BRANCH  24  26
ATOM     25  C   UNL     1       5.656   4.623  14.671  0.00  0.00    +0.000 C 
ATOM     26  C   UNL     1       6.927   5.133  15.324  0.00  0.00    +0.000 C 
ENDBRANCH  24  26
ENDBRANCH  21  24
ENDBRANCH  17  21
ENDBRANCH  16  19
ENDBRANCH  15  16
ENDBRANCH   1  15
TORSDOF 7
ENDMDL
MODEL 2
REMARK VINA RESULT:      -6.9      2.250      3.969
REMARK  Name = 
REMARK  9 active torsions:
REMARK  status: ('A' for Active; 'I' for Inactive)
REMARK    1  A    between atoms: C_1  and  C_2
REMARK    2  A    between atoms: C_2  and  O_3
REMARK    3  A    between atoms: O_3  and  C_4
REMARK    4  A    between atoms: C_4  and  C_5
REMARK    5  A    between atoms: C_4  and  C_7
REMARK    6  A    between atoms: C_5  and  C_6
REMARK    7  A    between atoms: N_9  and  C_10
REMARK    8  A    between atoms: C_10  and  C_11
REMARK    9  A    between atoms: C_11  and  C_12
REMARK                            x       y       z     vdW  Elec       q    Type
REMARK                         _______ _______ _______ _____ _____    ______ ____
ROOT
ATOM      1  C   UNL     1       2.363   7.367  18.937  0.00  0.00    +0.000 C 
ATOM      2  O   UNL     1       2.849   7.516  17.818  0.00  0.00    +0.000 OA
ATOM      3  N   UNL     1       1.698   8.389  19.597  0.00  0.00    +0.000 N 
ATOM      4  C   UNL     1       1.467   9.674  18.905  0.00  0.00    +0.000 C 
ATOM      5  C   UNL     1       0.019  10.172  19.127  0.00  0.00    +0.000 C 
ATOM      6  N   UNL     1      -0.209  10.213  20.579  0.00  0.00    +0.000 N 
ATOM      7  C   UNL     1      -0.969  11.216  21.131  0.00  0.00    +0.000 A 
ATOM      8  C   UNL     1      -0.702  11.613  22.449  0.00  0.00    +0.000 A 
ATOM      9  C   UNL     1      -1.394  12.672  23.015  0.00  0.00    +0.000 A 
ATOM     10  C   UNL     1      -2.362  13.315  22.265  0.00  0.00    +0.000 A 
ATOM     11  C   UNL     1      -2.578  12.876  20.973  0.00  0.00    +0.000 A 
ATOM     12  N   UNL     1      -1.892  11.859  20.391  0.00  0.00    +0.000 NA
ATOM     13  C   UNL     1      -0.082   8.923  21.259  0.00  0.00    +0.000 C 
ATOM     14  C   UNL     1       1.344   8.393  21.028  0.00  0.00    +0.000 C 
ENDROOT
BRANCH   1  15
ATOM     15  C   UNL     1       2.402   6.026  19.647  0.00  0.00    +0.000 C 
BRANCH  15  16
ATOM     16  C   UNL     1       2.651   4.872  18.679  0.00  0.00    +0.000 C 
BRANCH  16  19
ATOM     17  C   UNL     1       5.078   4.436  18.360  0.00  0.00    +0.000 C 
ATOM     18  O   UNL     1       5.139   3.667  19.315  0.00  0.00    +0.000 OA
ATOM     19  N   UNL     1       3.899   5.025  17.943  0.00  0.00    +0.000 N 
ATOM     20  H   UNL     1       4.003   5.777  17.269  0.00  0.00    +0.000 HD
BRANCH  17  21
ATOM     21  C   UNL     1       6.324   4.797  17.520  0.00  0.00    +0.000 C 
BRANCH  21  22
ATOM     22  C   UNL     1       6.280   4.017  16.193  0.00  0.00    +0.000 C 
ATOM     23  C   UNL     1       6.263   4.907  14.956  0.00  0.00    +0.000 C 
ENDBRANCH  21  22
BRANCH  21  24
ATOM     24  O   UNL     1       7.534   4.591  18.265  0.00  0.00    +0.000 OA
BRANCH  24  26
ATOM     25  C   UNL     1       7.792   6.974  18.172  0.00  0.00    +0.000 C 
ATOM     26  C   UNL     1       7.955   5.727  19.022  0.00  0.00    +0.000 C 
ENDBRANCH  24  26
ENDBRANCH  21  24
ENDBRANCH  17  21
ENDBRANCH  16  19
ENDBRANCH  15  16
ENDBRANCH   1  15
TORSDOF 7
ENDMDL
MODEL 3
REMARK VINA RESULT:      -6.8      2.099      3.512
REMARK  Name = 
REMARK  9 active torsions:
REMARK  status: ('A' for Active; 'I' for Inactive)
REMARK    1  A    between atoms: C_1  and  C_2
REMARK    2  A    between atoms: C_2  and  O_3
REMARK    3  A    between atoms: O_3  and  C_4
REMARK    4  A    between atoms: C_4  and  C_5
REMARK    5  A    between atoms: C_4  and  C_7
REMARK    6  A    between atoms: C_5  and  C_6
REMARK    7  A    between atoms: N_9  and  C_10
REMARK    8  A    between atoms: C_10  and  C_11
REMARK    9  A    between atoms: C_11  and  C_12
REMARK                            x       y       z     vdW  Elec       q    Type
REMARK                         _______ _______ _______ _____ _____    ______ ____
ROOT
ATOM      1  C   UNL     1       2.508   7.398  18.736  0.00  0.00    +0.000 C 
ATOM      2  O   UNL     1       2.990   7.568  17.618  0.00  0.00    +0.000 OA
ATOM      3  N   UNL     1       1.833   8.404  19.411  0.00  0.00    +0.000 N 
ATOM      4  C   UNL     1       1.587   9.696  18.737  0.00  0.00    +0.000 C 
ATOM      5  C   UNL     1       0.134  10.174  18.968  0.00  0.00    +0.000 C 
ATOM      6  N   UNL     1      -0.093  10.193  20.421  0.00  0.00    +0.000 N 
ATOM      7  C   UNL     1      -0.863  11.180  20.988  0.00  0.00    +0.000 A 
ATOM      8  C   UNL     1      -0.597  11.562  22.310  0.00  0.00    +0.000 A 
ATOM      9  C   UNL     1      -1.300  12.605  22.892  0.00  0.00    +0.000 A 
ATOM     10  C   UNL     1      -2.277  13.247  22.153  0.00  0.00    +0.000 A 
ATOM     11  C   UNL     1      -2.490  12.824  20.855  0.00  0.00    +0.000 A 
ATOM     12  N   UNL     1      -1.794  11.823  20.258  0.00  0.00    +0.000 NA
ATOM     13  C   UNL     1       0.050   8.895  21.083  0.00  0.00    +0.000 C 
ATOM     14  C   UNL     1       1.482   8.384  20.842  0.00  0.00    +0.000 C 
ENDROOT
BRANCH   1  15
ATOM     15  C   UNL     1       2.563   6.049  19.427  0.00  0.00    +0.000 C 
BRANCH  15  16
ATOM     16  C   UNL     1       2.880   4.918  18.452  0.00  0.00    +0.000 C 
BRANCH  16  19
ATOM     17  C   UNL     1       5.330   4.493  18.386  0.00  0.00    +0.000 C 
ATOM     18  O   UNL     1       5.300   3.746  19.359  0.00  0.00    +0.000 OA
ATOM     19  N   UNL     1       4.195   5.065  17.841  0.00  0.00    +0.000 N 
ATOM     20  H   UNL     1       4.361   5.803  17.165  0.00  0.00    +0.000 HD
BRANCH  17  21
ATOM     21  C   UNL     1       6.651   4.847  17.667  0.00  0.00    +0.000 C 
BRANCH  21  22
ATOM     22  C   UNL     1       7.517   5.712  18.602  0.00  0.00    +0.000 C 
ATOM     23  C   UNL     1       7.726   7.137  18.102  0.00  0.00    +0.000 C 
ENDBRANCH  21  22
BRANCH  21  24
ATOM     24  O   UNL     1       6.404   5.455  16.390  0.00  0.00    +0.000 OA
BRANCH  24  26
ATOM     25  C   UNL     1       5.921   4.032  14.521  0.00  0.00    +0.000 C 
ATOM     26  C   UNL     1       7.003   4.768  15.290  0.00  0.00    +0.000 C 
ENDBRANCH  24  26
ENDBRANCH  21  24
ENDBRANCH  17  21
ENDBRANCH  16  19
ENDBRANCH  15  16
ENDBRANCH   1  15
TORSDOF 7
ENDMDL
MODEL 4
REMARK VINA RESULT:      -6.5      1.626      2.354
REMARK  Name = 
REMARK  9 active torsions:
REMARK  status: ('A' for Active; 'I' for Inactive)
REMARK    1  A    between atoms: C_1  and  C_2
REMARK    2  A    between atoms: C_2  and  O_3
REMARK    3  A    between atoms: O_3  and  C_4
REMARK    4  A    between atoms: C_4  and  C_5
REMARK    5  A    between atoms: C_4  and  C_7
REMARK    6  A    between atoms: C_5  and  C_6
REMARK    7  A    between atoms: N_9  and  C_10
REMARK    8  A    between atoms: C_10  and  C_11
REMARK    9  A    between atoms: C_11  and  C_12
REMARK                            x       y       z     vdW  Elec       q    Type
REMARK                         _______ _______ _______ _____ _____    ______ ____
ROOT
ATOM      1  C   UNL     1       3.427   5.463  18.086  0.00  0.00    +0.000 C 
ATOM      2  O   UNL     1       3.888   5.334  16.954  0.00  0.00    +0.000 OA
ATOM      3  N   UNL     1       2.942   6.675  18.554  0.00  0.00    +0.000 N 
ATOM      4  C   UNL     1       2.877   7.835  17.641  0.00  0.00    +0.000 C 
ATOM      5  C   UNL     1       1.526   8.575  17.781  0.00  0.00    +0.000 C 
ATOM      6  N   UNL     1       1.358   8.911  19.203  0.00  0.00    +0.000 N 
ATOM      7  C   UNL     1       0.774  10.099  19.569  0.00  0.00    +0.000 A 
ATOM      8  C   UNL     1       1.144  10.681  20.789  0.00  0.00    +0.000 A 
ATOM      9  C   UNL     1       0.634  11.916  21.159  0.00  0.00    +0.000 A 
ATOM     10  C   UNL     1      -0.256  12.552  20.313  0.00  0.00    +0.000 A 
ATOM     11  C   UNL     1      -0.580  11.926  19.125  0.00  0.00    +0.000 A 
ATOM     12  N   UNL     1      -0.072  10.730  18.732  0.00  0.00    +0.000 NA
ATOM     13  C   UNL     1       1.321   7.759  20.106  0.00  0.00    +0.000 C 
ATOM     14  C   UNL     1       2.645   6.988  19.963  0.00  0.00    +0.000 C 
ENDROOT
BRANCH   1  15
ATOM     15  C   UNL     1       3.296   4.281  19.029  0.00  0.00    +0.000 C 
BRANCH  15  16
ATOM     16  C   UNL     1       4.639   3.602  19.286  0.00  0.00    +0.000 C 
BRANCH  16  19
ATOM     17  C   UNL     1       6.677   4.931  18.779  0.00  0.00    +0.000 C 
ATOM     18  O   UNL     1       6.820   5.292  19.943  0.00  0.00    +0.000 OA
ATOM     19  N   UNL     1       5.678   4.065  18.376  0.00  0.00    +0.000 N 
ATOM     20  H   UNL     1       5.546   3.988  17.373  0.00  0.00    +0.000 HD
BRANCH  17  21
ATOM     21  C   UNL     1       7.626   5.404  17.654  0.00  0.00    +0.000 C 
BRANCH  21  22
ATOM     22  C   UNL     1       7.268   6.852  17.268  0.00  0.00    +0.000 C 
ATOM     23  C   UNL     1       8.028   7.906  18.065  0.00  0.00    +0.000 C 
ENDBRANCH  21  22
BRANCH  21  24
ATOM     24  O   UNL     1       7.612   4.496  16.542  0.00  0.00    +0.000 OA
BRANCH  24  26
ATOM     25  C   UNL     1       6.379   3.940  14.561  0.00  0.00    +0.000 C 
ATOM     26  C   UNL     1       7.061   5.047  15.345  0.00  0.00    +0.000 C 
ENDBRANCH  24  26
ENDBRANCH  21  24
ENDBRANCH  17  21
ENDBRANCH  16  19
ENDBRANCH  15  16
ENDBRANCH   1  15
TORSDOF 7
ENDMDL
MODEL 5
REMARK VINA RESULT:      -6.4      2.313      4.085
REMARK  Name = 
REMARK  9 active torsions:
REMARK  status: ('A' for Active; 'I' for Inactive)
REMARK    1  A    between atoms: C_1  and  C_2
REMARK    2  A    between atoms: C_2  and  O_3
REMARK    3  A    between atoms: O_3  and  C_4
REMARK    4  A    between atoms: C_4  and  C_5
REMARK    5  A    between atoms: C_4  and  C_7
REMARK    6  A    between atoms: C_5  and  C_6
REMARK    7  A    between atoms: N_9  and  C_10
REMARK    8  A    between atoms: C_10  and  C_11
REMARK    9  A    between atoms: C_11  and  C_12
REMARK                            x       y       z     vdW  Elec       q    Type
REMARK                         _______ _______ _______ _____ _____    ______ ____
ROOT
ATOM      1  C   UNL     1       2.233   7.532  19.057  0.00  0.00    +0.000 C 
ATOM      2  O   UNL     1       2.689   7.671  17.924  0.00  0.00    +0.000 OA
ATOM      3  N   UNL     1       1.573   8.556  19.720  0.00  0.00    +0.000 N 
ATOM      4  C   UNL     1       1.312   9.829  19.017  0.00  0.00    +0.000 C 
ATOM      5  C   UNL     1      -0.136  10.314  19.268  0.00  0.00    +0.000 C 
ATOM      6  N   UNL     1      -0.330  10.373  20.724  0.00  0.00    +0.000 N 
ATOM      7  C   UNL     1      -1.086  11.375  21.281  0.00  0.00    +0.000 A 
ATOM      8  C   UNL     1      -0.791  11.792  22.587  0.00  0.00    +0.000 A 
ATOM      9  C   UNL     1      -1.481  12.852  23.156  0.00  0.00    +0.000 A 
ATOM     10  C   UNL     1      -2.474  13.474  22.421  0.00  0.00    +0.000 A 
ATOM     11  C   UNL     1      -2.716  13.016  21.141  0.00  0.00    +0.000 A 
ATOM     12  N   UNL     1      -2.034  11.998  20.555  0.00  0.00    +0.000 NA
ATOM     13  C   UNL     1      -0.172   9.093  21.417  0.00  0.00    +0.000 C 
ATOM     14  C   UNL     1       1.254   8.575  21.158  0.00  0.00    +0.000 C 
ENDROOT
BRANCH   1  15
ATOM     15  C   UNL     1       2.304   6.201  19.783  0.00  0.00    +0.000 C 
BRANCH  15  16
ATOM     16  C   UNL     1       3.666   5.532  19.620  0.00  0.00    +0.000 C 
BRANCH  16  19
ATOM     17  C   UNL     1       5.437   5.190  17.908  0.00  0.00    +0.000 C 
ATOM     18  O   UNL     1       6.029   4.354  18.584  0.00  0.00    +0.000 OA
ATOM     19  N   UNL     1       4.250   5.775  18.308  0.00  0.00    +0.000 N 
ATOM     20  H   UNL     1       3.955   6.579  17.762  0.00  0.00    +0.000 HD
BRANCH  17  21
ATOM     21  C   UNL     1       5.963   5.650  16.530  0.00  0.00    +0.000 C 
BRANCH  21  22
ATOM     22  C   UNL     1       6.897   4.566  15.960  0.00  0.00    +0.000 C 
ATOM     23  C   UNL     1       6.781   4.384  14.451  0.00  0.00    +0.000 C 
ENDBRANCH  21  22
BRANCH  21  24
ATOM     24  O   UNL     1       6.573   6.947  16.609  0.00  0.00    +0.000 OA
BRANCH  24  26
ATOM     25  C   UNL     1       7.950   8.525  17.778  0.00  0.00    +0.000 C 
ATOM     26  C   UNL     1       7.564   7.065  17.632  0.00  0.00    +0.000 C 
ENDBRANCH  24  26
ENDBRANCH  21  24
ENDBRANCH  17  21
ENDBRANCH  16  19
ENDBRANCH  15  16
ENDBRANCH   1  15
TORSDOF 7
ENDMDL
MODEL 6
REMARK VINA RESULT:      -6.4      3.230      5.003
REMARK  Name = 
REMARK  9 active torsions:
REMARK  status: ('A' for Active; 'I' for Inactive)
REMARK    1  A    between atoms: C_1  and  C_2
REMARK    2  A    between atoms: C_2  and  O_3
REMARK    3  A    between atoms: O_3  and  C_4
REMARK    4  A    between atoms: C_4  and  C_5
REMARK    5  A    between atoms: C_4  and  C_7
REMARK    6  A    between atoms: C_5  and  C_6
REMARK    7  A    between atoms: N_9  and  C_10
REMARK    8  A    between atoms: C_10  and  C_11
REMARK    9  A    between atoms: C_11  and  C_12
REMARK                            x       y       z     vdW  Elec       q    Type
REMARK                         _______ _______ _______ _____ _____    ______ ____
ROOT
ATOM      1  C   UNL     1       5.624   4.165  16.451  0.00  0.00    +0.000 C 
ATOM      2  O   UNL     1       5.294   2.981  16.471  0.00  0.00    +0.000 OA
ATOM      3  N   UNL     1       4.753   5.182  16.811  0.00  0.00    +0.000 N 
ATOM      4  C   UNL     1       3.415   4.843  17.337  0.00  0.00    +0.000 C 
ATOM      5  C   UNL     1       3.073   5.702  18.578  0.00  0.00    +0.000 C 
ATOM      6  N   UNL     1       3.235   7.111  18.192  0.00  0.00    +0.000 N 
ATOM      7  C   UNL     1       2.378   8.066  18.682  0.00  0.00    +0.000 A 
ATOM      8  C   UNL     1       2.130   9.207  17.907  0.00  0.00    +0.000 A 
ATOM      9  C   UNL     1       1.214  10.156  18.332  0.00  0.00    +0.000 A 
ATOM     10  C   UNL     1       0.564   9.966  19.538  0.00  0.00    +0.000 A 
ATOM     11  C   UNL     1       0.852   8.820  20.254  0.00  0.00    +0.000 A 
ATOM     12  N   UNL     1       1.726   7.865  19.844  0.00  0.00    +0.000 NA
ATOM     13  C   UNL     1       4.586   7.479  17.764  0.00  0.00    +0.000 C 
ATOM     14  C   UNL     1       4.961   6.617  16.546  0.00  0.00    +0.000 C 
ENDROOT
BRANCH   1  15
ATOM     15  C   UNL     1       7.036   4.589  16.090  0.00  0.00    +0.000 C 
BRANCH  15  16
ATOM     16  C   UNL     1       7.227   4.718  14.581  0.00  0.00    +0.000 C 
BRANCH  16  19
ATOM     17  C   UNL     1       6.348   3.784  12.451  0.00  0.00    +0.000 C 
ATOM     18  O   UNL     1       7.194   4.353  11.768  0.00  0.00    +0.000 OA
ATOM     19  N   UNL     1       6.320   3.859  13.831  0.00  0.00    +0.000 N 
ATOM     20  H   UNL     1       5.476   3.507  14.270  0.00  0.00    +0.000 HD
BRANCH  17  21
ATOM     21  C   UNL     1       5.241   2.909  11.821  0.00  0.00    +0.000 C 
BRANCH  21  22
ATOM     22  C   UNL     1       5.820   1.517  11.501  0.00  0.00    +0.000 C 
ATOM     23  C   UNL     1       7.205   1.559  10.864  0.00  0.00    +0.000 C 
ENDBRANCH  21  22
BRANCH  21  24
ATOM     24  O   UNL     1       4.646   3.555  10.685  0.00  0.00    +0.000 OA
BRANCH  24  26
ATOM     25  C   UNL     1       2.690   4.230   9.473  0.00  0.00    +0.000 C 
ATOM     26  C   UNL     1       3.249   3.299  10.532  0.00  0.00    +0.000 C 
ENDBRANCH  24  26
ENDBRANCH  21  24
ENDBRANCH  17  21
ENDBRANCH  16  19
ENDBRANCH  15  16
ENDBRANCH   1  15
TORSDOF 7
ENDMDL
MODEL 7
REMARK VINA RESULT:      -6.3      2.616      3.978
REMARK  Name = 
REMARK  9 active torsions:
REMARK  status: ('A' for Active; 'I' for Inactive)
REMARK    1  A    between atoms: C_1  and  C_2
REMARK    2  A    between atoms: C_2  and  O_3
REMARK    3  A    between atoms: O_3  and  C_4
REMARK    4  A    between atoms: C_4  and  C_5
REMARK    5  A    between atoms: C_4  and  C_7
REMARK    6  A    between atoms: C_5  and  C_6
REMARK    7  A    between atoms: N_9  and  C_10
REMARK    8  A    between atoms: C_10  and  C_11
REMARK    9  A    between atoms: C_11  and  C_12
REMARK                            x       y       z     vdW  Elec       q    Type
REMARK                         _______ _______ _______ _____ _____    ______ ____
ROOT
ATOM      1  C   UNL     1       3.985   5.310  17.837  0.00  0.00    +0.000 C 
ATOM      2  O   UNL     1       4.089   4.282  18.502  0.00  0.00    +0.000 OA
ATOM      3  N   UNL     1       3.059   6.297  18.141  0.00  0.00    +0.000 N 
ATOM      4  C   UNL     1       2.233   6.170  19.359  0.00  0.00    +0.000 C 
ATOM      5  C   UNL     1       2.166   7.512  20.126  0.00  0.00    +0.000 C 
ATOM      6  N   UNL     1       1.698   8.534  19.178  0.00  0.00    +0.000 N 
ATOM      7  C   UNL     1       0.856   9.534  19.599  0.00  0.00    +0.000 A 
ATOM      8  C   UNL     1      -0.034  10.096  18.673  0.00  0.00    +0.000 A 
ATOM      9  C   UNL     1      -0.952  11.053  19.077  0.00  0.00    +0.000 A 
ATOM     10  C   UNL     1      -0.960  11.455  20.400  0.00  0.00    +0.000 A 
ATOM     11  C   UNL     1      -0.058  10.864  21.262  0.00  0.00    +0.000 A 
ATOM     12  N   UNL     1       0.831   9.905  20.894  0.00  0.00    +0.000 NA
ATOM     13  C   UNL     1       2.565   8.737  18.016  0.00  0.00    +0.000 C 
ATOM     14  C   UNL     1       2.670   7.406  17.251  0.00  0.00    +0.000 C 
ENDROOT
BRANCH   1  15
ATOM     15  C   UNL     1       4.913   5.600  16.672  0.00  0.00    +0.000 C 
BRANCH  15  16
ATOM     16  C   UNL     1       5.940   4.489  16.468  0.00  0.00    +0.000 C 
BRANCH  16  19
ATOM     17  C   UNL     1       6.307   4.215  14.024  0.00  0.00    +0.000 C 
ATOM     18  O   UNL     1       7.081   5.165  13.960  0.00  0.00    +0.000 OA
ATOM     19  N   UNL     1       5.747   3.780  15.211  0.00  0.00    +0.000 N 
ATOM     20  H   UNL     1       4.987   3.113  15.115  0.00  0.00    +0.000 HD
BRANCH  17  21
ATOM     21  C   UNL     1       5.904   3.403  12.773  0.00  0.00    +0.000 C 
BRANCH  21  22
ATOM     22  C   UNL     1       7.094   3.361  11.795  0.00  0.00    +0.000 C 
ATOM     23  C   UNL     1       7.314   1.996  11.153  0.00  0.00    +0.000 C 
ENDBRANCH  21  22
BRANCH  21  24
ATOM     24  O   UNL     1       4.698   3.913  12.184  0.00  0.00    +0.000 OA
BRANCH  24  26
ATOM     25  C   UNL     1       3.325   3.824  10.219  0.00  0.00    +0.000 C 
ATOM     26  C   UNL     1       4.071   3.017  11.265  0.00  0.00    +0.000 C 
ENDBRANCH  24  26
ENDBRANCH  21  24
ENDBRANCH  17  21
ENDBRANCH  16  19
ENDBRANCH  15  16
ENDBRANCH   1  15
TORSDOF 7
ENDMDL
MODEL 8
REMARK VINA RESULT:      -6.3      2.622      4.276
REMARK  Name = 
REMARK  9 active torsions:
REMARK  status: ('A' for Active; 'I' for Inactive)
REMARK    1  A    between atoms: C_1  and  C_2
REMARK    2  A    between atoms: C_2  and  O_3
REMARK    3  A    between atoms: O_3  and  C_4
REMARK    4  A    between atoms: C_4  and  C_5
REMARK    5  A    between atoms: C_4  and  C_7
REMARK    6  A    between atoms: C_5  and  C_6
REMARK    7  A    between atoms: N_9  and  C_10
REMARK    8  A    between atoms: C_10  and  C_11
REMARK    9  A    between atoms: C_11  and  C_12
REMARK                            x       y       z     vdW  Elec       q    Type
REMARK                         _______ _______ _______ _____ _____    ______ ____
ROOT
ATOM      1  C   UNL     1       2.053   8.562  18.509  0.00  0.00    +0.000 C 
ATOM      2  O   UNL     1       2.333   8.792  17.335  0.00  0.00    +0.000 OA
ATOM      3  N   UNL     1       1.355   9.468  19.295  0.00  0.00    +0.000 N 
ATOM      4  C   UNL     1       0.835  10.710  18.686  0.00  0.00    +0.000 C 
ATOM      5  C   UNL     1      -0.618  10.983  19.140  0.00  0.00    +0.000 C 
ATOM      6  N   UNL     1      -0.624  10.977  20.611  0.00  0.00    +0.000 N 
ATOM      7  C   UNL     1      -1.428  11.851  21.303  0.00  0.00    +0.000 A 
ATOM      8  C   UNL     1      -1.022  12.271  22.576  0.00  0.00    +0.000 A 
ATOM      9  C   UNL     1      -1.766  13.210  23.274  0.00  0.00    +0.000 A 
ATOM     10  C   UNL     1      -2.922  13.708  22.699  0.00  0.00    +0.000 A 
ATOM     11  C   UNL     1      -3.267  13.253  21.442  0.00  0.00    +0.000 A 
ATOM     12  N   UNL     1      -2.539  12.355  20.730  0.00  0.00    +0.000 NA
ATOM     13  C   UNL     1      -0.206   9.715  21.222  0.00  0.00    +0.000 C 
ATOM     14  C   UNL     1       1.229   9.406  20.762  0.00  0.00    +0.000 C 
ENDROOT
BRANCH   1  15
ATOM     15  C   UNL     1       2.397   7.236  19.163  0.00  0.00    +0.000 C 
BRANCH  15  16
ATOM     16  C   UNL     1       2.525   6.110  18.140  0.00  0.00    +0.000 C 
BRANCH  16  19
ATOM     17  C   UNL     1       4.902   5.393  18.000  0.00  0.00    +0.000 C 
ATOM     18  O   UNL     1       4.812   4.654  18.975  0.00  0.00    +0.000 OA
ATOM     19  N   UNL     1       3.828   6.098  17.488  0.00  0.00    +0.000 N 
ATOM     20  H   UNL     1       4.060   6.811  16.805  0.00  0.00    +0.000 HD
BRANCH  17  21
ATOM     21  C   UNL     1       6.233   5.586  17.239  0.00  0.00    +0.000 C 
BRANCH  21  22
ATOM     22  C   UNL     1       7.206   6.389  18.123  0.00  0.00    +0.000 C 
ATOM     23  C   UNL     1       7.611   7.733  17.526  0.00  0.00    +0.000 C 
ENDBRANCH  21  22
BRANCH  21  24
ATOM     24  O   UNL     1       6.016   6.172  15.947  0.00  0.00    +0.000 OA
BRANCH  24  26
ATOM     25  C   UNL     1       7.069   4.781  14.301  0.00  0.00    +0.000 C 
ATOM     26  C   UNL     1       5.752   5.224  14.911  0.00  0.00    +0.000 C 
ENDBRANCH  24  26
ENDBRANCH  21  24
ENDBRANCH  17  21
ENDBRANCH  16  19
ENDBRANCH  15  16
ENDBRANCH   1  15
TORSDOF 7
ENDMDL
MODEL 9
REMARK VINA RESULT:      -6.2      4.468      7.401
REMARK  Name = 
REMARK  9 active torsions:
REMARK  status: ('A' for Active; 'I' for Inactive)
REMARK    1  A    between atoms: C_1  and  C_2
REMARK    2  A    between atoms: C_2  and  O_3
REMARK    3  A    between atoms: O_3  and  C_4
REMARK    4  A    between atoms: C_4  and  C_5
REMARK    5  A    between atoms: C_4  and  C_7
REMARK    6  A    between atoms: C_5  and  C_6
REMARK    7  A    between atoms: N_9  and  C_10
REMARK    8  A    between atoms: C_10  and  C_11
REMARK    9  A    between atoms: C_11  and  C_12
REMARK                            x       y       z     vdW  Elec       q    Type
REMARK                         _______ _______ _______ _____ _____    ______ ____
ROOT
ATOM      1  C   UNL     1      -0.267  10.096  20.613  0.00  0.00    +0.000 C 
ATOM      2  O   UNL     1      -0.021  10.181  19.412  0.00  0.00    +0.000 OA
ATOM      3  N   UNL     1      -0.824  11.144  21.330  0.00  0.00    +0.000 N 
ATOM      4  C   UNL     1      -1.235  12.374  20.622  0.00  0.00    +0.000 C 
ATOM      5  C   UNL     1      -2.627  12.851  21.102  0.00  0.00    +0.000 C 
ATOM      6  N   UNL     1      -2.562  12.984  22.565  0.00  0.00    +0.000 N 
ATOM      7  C   UNL     1      -3.231  14.003  23.197  0.00  0.00    +0.000 A 
ATOM      8  C   UNL     1      -2.720  14.494  24.407  0.00  0.00    +0.000 A 
ATOM      9  C   UNL     1      -3.324  15.572  25.036  0.00  0.00    +0.000 A 
ATOM     10  C   UNL     1      -4.445  16.140  24.459  0.00  0.00    +0.000 A 
ATOM     11  C   UNL     1      -4.899  15.611  23.267  0.00  0.00    +0.000 A 
ATOM     12  N   UNL     1      -4.308  14.573  22.621  0.00  0.00    +0.000 NA
ATOM     13  C   UNL     1      -2.253  11.746  23.282  0.00  0.00    +0.000 C 
ATOM     14  C   UNL     1      -0.883  11.235  22.800  0.00  0.00    +0.000 C 
ENDROOT
BRANCH   1  15
ATOM     15  C   UNL     1      -0.037   8.807  21.380  0.00  0.00    +0.000 C 
BRANCH  15  16
ATOM     16  C   UNL     1       1.419   8.355  21.318  0.00  0.00    +0.000 C 
BRANCH  16  19
ATOM     17  C   UNL     1       2.109   6.498  19.814  0.00  0.00    +0.000 C 
ATOM     18  O   UNL     1       2.627   7.255  18.998  0.00  0.00    +0.000 OA
ATOM     19  N   UNL     1       1.547   6.940  20.998  0.00  0.00    +0.000 N 
ATOM     20  H   UNL     1       0.991   6.254  21.498  0.00  0.00    +0.000 HD
BRANCH  17  21
ATOM     21  C   UNL     1       2.060   4.969  19.596  0.00  0.00    +0.000 C 
BRANCH  21  22
ATOM     22  C   UNL     1       1.945   4.680  18.087  0.00  0.00    +0.000 C 
ATOM     23  C   UNL     1       3.172   3.995  17.497  0.00  0.00    +0.000 C 
ENDBRANCH  21  22
BRANCH  21  24
ATOM     24  O   UNL     1       1.019   4.363  20.376  0.00  0.00    +0.000 OA
BRANCH  24  26
ATOM     25  C   UNL     1       2.414   2.819  21.568  0.00  0.00    +0.000 C 
ATOM     26  C   UNL     1       1.221   2.974  20.642  0.00  0.00    +0.000 C 
ENDBRANCH  24  26
ENDBRANCH  21  24
ENDBRANCH  17  21
ENDBRANCH  16  19
ENDBRANCH  15  16
ENDBRANCH   1  15
TORSDOF 7
ENDMDL
