MODEL 1
REMARK VINA RESULT:      -7.5      0.000      0.000
REMARK  Name = 
REMARK  7 active torsions:
REMARK  status: ('A' for Active; 'I' for Inactive)
REMARK    1  A    between atoms: C_1  and  C_2
REMARK    2  A    between atoms: C_7  and  O_8
REMARK    3  A    between atoms: O_8  and  P_9
REMARK    4  A    between atoms: P_9  and  N_10
REMARK    5  A    between atoms: P_9  and  O_12
REMARK    6  A    between atoms: O_12  and  C_13
REMARK    7  A    between atoms: C_18  and  C_19
REMARK                            x       y       z     vdW  Elec       q    Type
REMARK                         _______ _______ _______ _____ _____    ______ ____
ROOT
ATOM      1  P   UNL     1       6.473   5.377  16.663  0.00  0.00    +0.000 P 
ATOM      2  O   UNL     1       6.692   6.875  16.918  0.00  0.00    +0.000 OA
ENDROOT
BRANCH   1   3
ATOM      3  N   UNL     1       7.679   4.526  17.483  0.00  0.00    +0.000 NA
ATOM      4  H   UNL     1       7.524   3.541  17.296  0.00  0.00    +0.000 HD
ATOM      5  H   UNL     1       7.650   4.651  18.484  0.00  0.00    +0.000 HD
ENDBRANCH   1   3
BRANCH   1   6
ATOM      6  O   UNL     1       7.519   5.502  15.291  0.00  0.00    +0.000 OA
BRANCH   6  13
ATOM      7  C   UNL     1       8.817   6.035  12.700  0.00  0.00    +0.000 C 
ATOM      8  C   UNL     1       7.703   5.049  12.908  0.00  0.00    +0.000 A 
ATOM      9  C   UNL     1       7.211   4.381  11.763  0.00  0.00    +0.000 A 
ATOM     10  C   UNL     1       6.139   3.498  11.852  0.00  0.00    +0.000 A 
ATOM     11  C   UNL     1       5.535   3.274  13.079  0.00  0.00    +0.000 A 
ATOM     12  C   UNL     1       6.008   3.924  14.222  0.00  0.00    +0.000 A 
ATOM     13  C   UNL     1       7.080   4.829  14.151  0.00  0.00    +0.000 A 
ENDBRANCH   6  13
ENDBRANCH   1   6
BRANCH   1  14
ATOM     14  O   UNL     1       5.429   5.251  18.037  0.00  0.00    +0.000 OA
BRANCH  14  15
ATOM     15  C   UNL     1       4.120   4.841  17.948  0.00  0.00    +0.000 A 
ATOM     16  C   UNL     1       3.995   3.467  17.687  0.00  0.00    +0.000 A 
ATOM     17  C   UNL     1       2.746   2.854  17.619  0.00  0.00    +0.000 A 
ATOM     18  C   UNL     1       1.599   3.607  17.821  0.00  0.00    +0.000 A 
ATOM     19  C   UNL     1       1.707   4.983  18.041  0.00  0.00    +0.000 A 
ATOM     20  C   UNL     1       2.963   5.630  18.069  0.00  0.00    +0.000 A 
ATOM     21  C   UNL     1       2.957   7.119  18.226  0.00  0.00    +0.000 C 
ENDBRANCH  14  15
ENDBRANCH   1  14
TORSDOF 5
ENDMDL
MODEL 2
REMARK VINA RESULT:      -7.3      0.876      5.831
REMARK  Name = 
REMARK  7 active torsions:
REMARK  status: ('A' for Active; 'I' for Inactive)
REMARK    1  A    between atoms: C_1  and  C_2
REMARK    2  A    between atoms: C_7  and  O_8
REMARK    3  A    between atoms: O_8  and  P_9
REMARK    4  A    between atoms: P_9  and  N_10
REMARK    5  A    between atoms: P_9  and  O_12
REMARK    6  A    between atoms: O_12  and  C_13
REMARK    7  A    between atoms: C_18  and  C_19
REMARK                            x       y       z     vdW  Elec       q    Type
REMARK                         _______ _______ _______ _____ _____    ______ ____
ROOT
ATOM      1  P   UNL     1       6.504   5.445  16.791  0.00  0.00    +0.000 P 
ATOM      2  O   UNL     1       7.691   4.865  17.572  0.00  0.00    +0.000 OA
ENDROOT
BRANCH   1   3
ATOM      3  N   UNL     1       6.525   7.122  16.978  0.00  0.00    +0.000 NA
ATOM      4  H   UNL     1       6.498   7.309  17.975  0.00  0.00    +0.000 HD
ATOM      5  H   UNL     1       5.729   7.583  16.564  0.00  0.00    +0.000 HD
ENDBRANCH   1   3
BRANCH   1   6
ATOM      6  O   UNL     1       5.550   5.314  18.229  0.00  0.00    +0.000 OA
BRANCH   6  13
ATOM      7  C   UNL     1       3.107   6.961  18.219  0.00  0.00    +0.000 C 
ATOM      8  C   UNL     1       3.132   5.471  18.027  0.00  0.00    +0.000 A 
ATOM      9  C   UNL     1       1.885   4.817  17.895  0.00  0.00    +0.000 A 
ATOM     10  C   UNL     1       1.809   3.432  17.777  0.00  0.00    +0.000 A 
ATOM     11  C   UNL     1       2.971   2.677  17.799  0.00  0.00    +0.000 A 
ATOM     12  C   UNL     1       4.213   3.306  17.927  0.00  0.00    +0.000 A 
ATOM     13  C   UNL     1       4.309   4.701  18.061  0.00  0.00    +0.000 A 
ENDBRANCH   6  13
ENDBRANCH   1   6
BRANCH   1  14
ATOM     14  O   UNL     1       7.457   5.576  15.354  0.00  0.00    +0.000 OA
BRANCH  14  15
ATOM     15  C   UNL     1       7.142   4.927  14.184  0.00  0.00    +0.000 A 
ATOM     16  C   UNL     1       6.128   3.970  14.346  0.00  0.00    +0.000 A 
ATOM     17  C   UNL     1       5.632   3.250  13.262  0.00  0.00    +0.000 A 
ATOM     18  C   UNL     1       6.137   3.485  11.992  0.00  0.00    +0.000 A 
ATOM     19  C   UNL     1       7.175   4.406  11.822  0.00  0.00    +0.000 A 
ATOM     20  C   UNL     1       7.722   5.113  12.917  0.00  0.00    +0.000 A 
ATOM     21  C   UNL     1       8.887   6.010  12.633  0.00  0.00    +0.000 C 
ENDBRANCH  14  15
ENDBRANCH   1  14
TORSDOF 5
ENDMDL
MODEL 3
REMARK VINA RESULT:      -7.3      0.865      1.674
REMARK  Name = 
REMARK  7 active torsions:
REMARK  status: ('A' for Active; 'I' for Inactive)
REMARK    1  A    between atoms: C_1  and  C_2
REMARK    2  A    between atoms: C_7  and  O_8
REMARK    3  A    between atoms: O_8  and  P_9
REMARK    4  A    between atoms: P_9  and  N_10
REMARK    5  A    between atoms: P_9  and  O_12
REMARK    6  A    between atoms: O_12  and  C_13
REMARK    7  A    between atoms: C_18  and  C_19
REMARK                            x       y       z     vdW  Elec       q    Type
REMARK                         _______ _______ _______ _____ _____    ______ ____
ROOT
ATOM      1  P   UNL     1       6.633   5.188  16.925  0.00  0.00    +0.000 P 
ATOM      2  O   UNL     1       6.929   6.606  17.430  0.00  0.00    +0.000 OA
ENDROOT
BRANCH   1   3
ATOM      3  N   UNL     1       7.942   4.203  17.336  0.00  0.00    +0.000 NA
ATOM      4  H   UNL     1       7.570   3.428  17.875  0.00  0.00    +0.000 HD
ATOM      5  H   UNL     1       8.629   4.667  17.911  0.00  0.00    +0.000 HD
ENDBRANCH   1   3
BRANCH   1   6
ATOM      6  O   UNL     1       7.427   5.596  15.443  0.00  0.00    +0.000 OA
BRANCH   6  13
ATOM      7  C   UNL     1       8.829   5.929  12.873  0.00  0.00    +0.000 C 
ATOM      8  C   UNL     1       7.653   5.021  13.091  0.00  0.00    +0.000 A 
ATOM      9  C   UNL     1       7.155   4.329  11.963  0.00  0.00    +0.000 A 
ATOM     10  C   UNL     1       6.029   3.516  12.058  0.00  0.00    +0.000 A 
ATOM     11  C   UNL     1       5.378   3.385  13.274  0.00  0.00    +0.000 A 
ATOM     12  C   UNL     1       5.856   4.060  14.401  0.00  0.00    +0.000 A 
ATOM     13  C   UNL     1       6.982   4.896  14.322  0.00  0.00    +0.000 A 
ENDBRANCH   6  13
ENDBRANCH   1   6
BRANCH   1  14
ATOM     14  O   UNL     1       5.839   4.779  18.407  0.00  0.00    +0.000 OA
BRANCH  14  15
ATOM     15  C   UNL     1       4.491   4.527  18.490  0.00  0.00    +0.000 A 
ATOM     16  C   UNL     1       3.710   5.537  17.905  0.00  0.00    +0.000 A 
ATOM     17  C   UNL     1       2.323   5.433  17.841  0.00  0.00    +0.000 A 
ATOM     18  C   UNL     1       1.693   4.308  18.353  0.00  0.00    +0.000 A 
ATOM     19  C   UNL     1       2.455   3.314  18.974  0.00  0.00    +0.000 A 
ATOM     20  C   UNL     1       3.859   3.424  19.089  0.00  0.00    +0.000 A 
ATOM     21  C   UNL     1       4.565   2.343  19.849  0.00  0.00    +0.000 C 
ENDBRANCH  14  15
ENDBRANCH   1  14
TORSDOF 5
ENDMDL
MODEL 4
REMARK VINA RESULT:      -6.8      1.170      6.073
REMARK  Name = 
REMARK  7 active torsions:
REMARK  status: ('A' for Active; 'I' for Inactive)
REMARK    1  A    between atoms: C_1  and  C_2
REMARK    2  A    between atoms: C_7  and  O_8
REMARK    3  A    between atoms: O_8  and  P_9
REMARK    4  A    between atoms: P_9  and  N_10
REMARK    5  A    between atoms: P_9  and  O_12
REMARK    6  A    between atoms: O_12  and  C_13
REMARK    7  A    between atoms: C_18  and  C_19
REMARK                            x       y       z     vdW  Elec       q    Type
REMARK                         _______ _______ _______ _____ _____    ______ ____
ROOT
ATOM      1  P   UNL     1       6.816   5.206  16.995  0.00  0.00    +0.000 P 
ATOM      2  O   UNL     1       7.963   4.230  17.290  0.00  0.00    +0.000 OA
ENDROOT
BRANCH   1   3
ATOM      3  N   UNL     1       7.249   6.719  17.606  0.00  0.00    +0.000 NA
ATOM      4  H   UNL     1       6.870   6.777  18.546  0.00  0.00    +0.000 HD
ATOM      5  H   UNL     1       6.866   7.490  17.080  0.00  0.00    +0.000 HD
ENDBRANCH   1   3
BRANCH   1   6
ATOM      6  O   UNL     1       6.133   4.800  18.532  0.00  0.00    +0.000 OA
BRANCH   6  13
ATOM      7  C   UNL     1       4.705   2.552  19.793  0.00  0.00    +0.000 C 
ATOM      8  C   UNL     1       4.038   3.762  19.201  0.00  0.00    +0.000 A 
ATOM      9  C   UNL     1       2.624   3.782  19.200  0.00  0.00    +0.000 A 
ATOM     10  C   UNL     1       1.921   4.832  18.616  0.00  0.00    +0.000 A 
ATOM     11  C   UNL     1       2.615   5.872  18.017  0.00  0.00    +0.000 A 
ATOM     12  C   UNL     1       4.012   5.870  18.009  0.00  0.00    +0.000 A 
ATOM     13  C   UNL     1       4.739   4.813  18.581  0.00  0.00    +0.000 A 
ENDBRANCH   6  13
ENDBRANCH   1   6
BRANCH   1  14
ATOM     14  O   UNL     1       7.499   5.613  15.459  0.00  0.00    +0.000 OA
BRANCH  14  15
ATOM     15  C   UNL     1       7.153   4.975  14.292  0.00  0.00    +0.000 A 
ATOM     16  C   UNL     1       6.096   4.066  14.460  0.00  0.00    +0.000 A 
ATOM     17  C   UNL     1       5.566   3.365  13.379  0.00  0.00    +0.000 A 
ATOM     18  C   UNL     1       6.081   3.570  12.108  0.00  0.00    +0.000 A 
ATOM     19  C   UNL     1       7.160   4.442  11.933  0.00  0.00    +0.000 A 
ATOM     20  C   UNL     1       7.739   5.128  13.024  0.00  0.00    +0.000 A 
ATOM     21  C   UNL     1       8.945   5.969  12.735  0.00  0.00    +0.000 C 
ENDBRANCH  14  15
ENDBRANCH   1  14
TORSDOF 5
ENDMDL
MODEL 5
REMARK VINA RESULT:      -6.7      1.225      5.715
REMARK  Name = 
REMARK  7 active torsions:
REMARK  status: ('A' for Active; 'I' for Inactive)
REMARK    1  A    between atoms: C_1  and  C_2
REMARK    2  A    between atoms: C_7  and  O_8
REMARK    3  A    between atoms: O_8  and  P_9
REMARK    4  A    between atoms: P_9  and  N_10
REMARK    5  A    between atoms: P_9  and  O_12
REMARK    6  A    between atoms: O_12  and  C_13
REMARK    7  A    between atoms: C_18  and  C_19
REMARK                            x       y       z     vdW  Elec       q    Type
REMARK                         _______ _______ _______ _____ _____    ______ ____
ROOT
ATOM      1  P   UNL     1       6.850   5.805  16.928  0.00  0.00    +0.000 P 
ATOM      2  O   UNL     1       7.866   4.901  17.641  0.00  0.00    +0.000 OA
ENDROOT
BRANCH   1   3
ATOM      3  N   UNL     1       7.408   7.395  17.025  0.00  0.00    +0.000 NA
ATOM      4  H   UNL     1       6.882   7.934  16.344  0.00  0.00    +0.000 HD
ATOM      5  H   UNL     1       8.385   7.494  16.797  0.00  0.00    +0.000 HD
ENDBRANCH   1   3
BRANCH   1   6
ATOM      6  O   UNL     1       6.040   6.015  18.442  0.00  0.00    +0.000 OA
BRANCH   6  13
ATOM      7  C   UNL     1       3.602   7.425  17.576  0.00  0.00    +0.000 C 
ATOM      8  C   UNL     1       3.630   6.022  18.112  0.00  0.00    +0.000 A 
ATOM      9  C   UNL     1       2.387   5.365  18.264  0.00  0.00    +0.000 A 
ATOM     10  C   UNL     1       2.312   4.088  18.813  0.00  0.00    +0.000 A 
ATOM     11  C   UNL     1       3.471   3.450  19.226  0.00  0.00    +0.000 A 
ATOM     12  C   UNL     1       4.708   4.083  19.083  0.00  0.00    +0.000 A 
ATOM     13  C   UNL     1       4.804   5.377  18.544  0.00  0.00    +0.000 A 
ENDBRANCH   6  13
ENDBRANCH   1   6
BRANCH   1  14
ATOM     14  O   UNL     1       7.661   5.596  15.414  0.00  0.00    +0.000 OA
BRANCH  14  15
ATOM     15  C   UNL     1       7.100   4.932  14.350  0.00  0.00    +0.000 A 
ATOM     16  C   UNL     1       7.774   5.172  13.141  0.00  0.00    +0.000 A 
ATOM     17  C   UNL     1       7.388   4.540  11.960  0.00  0.00    +0.000 A 
ATOM     18  C   UNL     1       6.326   3.649  11.973  0.00  0.00    +0.000 A 
ATOM     19  C   UNL     1       5.621   3.432  13.161  0.00  0.00    +0.000 A 
ATOM     20  C   UNL     1       5.969   4.097  14.357  0.00  0.00    +0.000 A 
ATOM     21  C   UNL     1       5.093   3.856  15.548  0.00  0.00    +0.000 C 
ENDBRANCH  14  15
ENDBRANCH   1  14
TORSDOF 5
ENDMDL
MODEL 6
REMARK VINA RESULT:      -6.7      1.131      1.144
REMARK  Name = 
REMARK  7 active torsions:
REMARK  status: ('A' for Active; 'I' for Inactive)
REMARK    1  A    between atoms: C_1  and  C_2
REMARK    2  A    between atoms: C_7  and  O_8
REMARK    3  A    between atoms: O_8  and  P_9
REMARK    4  A    between atoms: P_9  and  N_10
REMARK    5  A    between atoms: P_9  and  O_12
REMARK    6  A    between atoms: O_12  and  C_13
REMARK    7  A    between atoms: C_18  and  C_19
REMARK                            x       y       z     vdW  Elec       q    Type
REMARK                         _______ _______ _______ _____ _____    ______ ____
ROOT
ATOM      1  P   UNL     1       5.546   5.945  16.280  0.00  0.00    +0.000 P 
ATOM      2  O   UNL     1       5.217   7.100  15.324  0.00  0.00    +0.000 OA
ENDROOT
BRANCH   1   3
ATOM      3  N   UNL     1       6.572   6.538  17.482  0.00  0.00    +0.000 NA
ATOM      4  H   UNL     1       7.153   7.249  17.049  0.00  0.00    +0.000 HD
ATOM      5  H   UNL     1       7.190   5.838  17.865  0.00  0.00    +0.000 HD
ENDBRANCH   1   3
BRANCH   1   6
ATOM      6  O   UNL     1       6.927   5.586  15.302  0.00  0.00    +0.000 OA
BRANCH   6  13
ATOM      7  C   UNL     1       8.697   5.840  12.960  0.00  0.00    +0.000 C 
ATOM      8  C   UNL     1       7.508   4.924  13.035  0.00  0.00    +0.000 A 
ATOM      9  C   UNL     1       7.190   4.183  11.873  0.00  0.00    +0.000 A 
ATOM     10  C   UNL     1       6.070   3.359  11.830  0.00  0.00    +0.000 A 
ATOM     11  C   UNL     1       5.244   3.266  12.940  0.00  0.00    +0.000 A 
ATOM     12  C   UNL     1       5.543   3.989  14.098  0.00  0.00    +0.000 A 
ATOM     13  C   UNL     1       6.661   4.838  14.155  0.00  0.00    +0.000 A 
ENDBRANCH   6  13
ENDBRANCH   1   6
BRANCH   1  14
ATOM     14  O   UNL     1       4.165   6.304  17.259  0.00  0.00    +0.000 OA
BRANCH  14  15
ATOM     15  C   UNL     1       3.338   5.334  17.772  0.00  0.00    +0.000 A 
ATOM     16  C   UNL     1       3.372   4.140  17.033  0.00  0.00    +0.000 A 
ATOM     17  C   UNL     1       2.643   3.022  17.432  0.00  0.00    +0.000 A 
ATOM     18  C   UNL     1       1.876   3.077  18.586  0.00  0.00    +0.000 A 
ATOM     19  C   UNL     1       1.802   4.271  19.309  0.00  0.00    +0.000 A 
ATOM     20  C   UNL     1       2.498   5.429  18.895  0.00  0.00    +0.000 A 
ATOM     21  C   UNL     1       2.278   6.676  19.695  0.00  0.00    +0.000 C 
ENDBRANCH  14  15
ENDBRANCH   1  14
TORSDOF 5
ENDMDL
MODEL 7
REMARK VINA RESULT:      -6.6      1.216      5.858
REMARK  Name = 
REMARK  7 active torsions:
REMARK  status: ('A' for Active; 'I' for Inactive)
REMARK    1  A    between atoms: C_1  and  C_2
REMARK    2  A    between atoms: C_7  and  O_8
REMARK    3  A    between atoms: O_8  and  P_9
REMARK    4  A    between atoms: P_9  and  N_10
REMARK    5  A    between atoms: P_9  and  O_12
REMARK    6  A    between atoms: O_12  and  C_13
REMARK    7  A    between atoms: C_18  and  C_19
REMARK                            x       y       z     vdW  Elec       q    Type
REMARK                         _______ _______ _______ _____ _____    ______ ____
ROOT
ATOM      1  P   UNL     1       6.880   5.725  16.906  0.00  0.00    +0.000 P 
ATOM      2  O   UNL     1       7.870   4.713  17.498  0.00  0.00    +0.000 OA
ENDROOT
BRANCH   1   3
ATOM      3  N   UNL     1       7.510   7.273  17.142  0.00  0.00    +0.000 NA
ATOM      4  H   UNL     1       6.726   7.917  17.121  0.00  0.00    +0.000 HD
ATOM      5  H   UNL     1       8.154   7.559  16.420  0.00  0.00    +0.000 HD
ENDBRANCH   1   3
BRANCH   1   6
ATOM      6  O   UNL     1       6.115   5.819  18.455  0.00  0.00    +0.000 OA
BRANCH   6  13
ATOM      7  C   UNL     1       4.779   3.358  19.373  0.00  0.00    +0.000 C 
ATOM      8  C   UNL     1       4.063   4.588  18.891  0.00  0.00    +0.000 A 
ATOM      9  C   UNL     1       2.652   4.527  18.819  0.00  0.00    +0.000 A 
ATOM     10  C   UNL     1       1.911   5.596  18.324  0.00  0.00    +0.000 A 
ATOM     11  C   UNL     1       2.562   6.737  17.885  0.00  0.00    +0.000 A 
ATOM     12  C   UNL     1       3.956   6.817  17.950  0.00  0.00    +0.000 A 
ATOM     13  C   UNL     1       4.723   5.744  18.433  0.00  0.00    +0.000 A 
ENDBRANCH   6  13
ENDBRANCH   1   6
BRANCH   1  14
ATOM     14  O   UNL     1       7.644   5.632  15.357  0.00  0.00    +0.000 OA
BRANCH  14  15
ATOM     15  C   UNL     1       7.105   4.946  14.295  0.00  0.00    +0.000 A 
ATOM     16  C   UNL     1       7.792   5.174  13.092  0.00  0.00    +0.000 A 
ATOM     17  C   UNL     1       7.429   4.521  11.917  0.00  0.00    +0.000 A 
ATOM     18  C   UNL     1       6.375   3.619  11.928  0.00  0.00    +0.000 A 
ATOM     19  C   UNL     1       5.656   3.414  13.110  0.00  0.00    +0.000 A 
ATOM     20  C   UNL     1       5.982   4.101  14.301  0.00  0.00    +0.000 A 
ATOM     21  C   UNL     1       5.092   3.869  15.483  0.00  0.00    +0.000 C 
ENDBRANCH  14  15
ENDBRANCH   1  14
TORSDOF 5
ENDMDL
MODEL 8
REMARK VINA RESULT:      -6.4      1.380      5.979
REMARK  Name = 
REMARK  7 active torsions:
REMARK  status: ('A' for Active; 'I' for Inactive)
REMARK    1  A    between atoms: C_1  and  C_2
REMARK    2  A    between atoms: C_7  and  O_8
REMARK    3  A    between atoms: O_8  and  P_9
REMARK    4  A    between atoms: P_9  and  N_10
REMARK    5  A    between atoms: P_9  and  O_12
REMARK    6  A    between atoms: O_12  and  C_13
REMARK    7  A    between atoms: C_18  and  C_19
REMARK                            x       y       z     vdW  Elec       q    Type
REMARK                         _______ _______ _______ _____ _____    ______ ____
ROOT
ATOM      1  P   UNL     1       6.530   6.226  16.688  0.00  0.00    +0.000 P 
ATOM      2  O   UNL     1       7.514   7.339  17.071  0.00  0.00    +0.000 OA
ENDROOT
BRANCH   1   3
ATOM      3  N   UNL     1       5.487   6.835  15.508  0.00  0.00    +0.000 NA
ATOM      4  H   UNL     1       5.015   6.039  15.092  0.00  0.00    +0.000 HD
ATOM      5  H   UNL     1       5.962   7.325  14.765  0.00  0.00    +0.000 HD
ENDBRANCH   1   3
BRANCH   1   6
ATOM      6  O   UNL     1       5.458   6.811  17.913  0.00  0.00    +0.000 OA
BRANCH   6  13
ATOM      7  C   UNL     1       2.587   7.469  17.987  0.00  0.00    +0.000 C 
ATOM      8  C   UNL     1       3.172   6.155  18.422  0.00  0.00    +0.000 A 
ATOM      9  C   UNL     1       2.279   5.198  18.958  0.00  0.00    +0.000 A 
ATOM     10  C   UNL     1       2.741   3.978  19.445  0.00  0.00    +0.000 A 
ATOM     11  C   UNL     1       4.098   3.697  19.412  0.00  0.00    +0.000 A 
ATOM     12  C   UNL     1       4.995   4.629  18.884  0.00  0.00    +0.000 A 
ATOM     13  C   UNL     1       4.550   5.871  18.401  0.00  0.00    +0.000 A 
ENDBRANCH   6  13
ENDBRANCH   1   6
BRANCH   1  14
ATOM     14  O   UNL     1       7.601   5.641  15.462  0.00  0.00    +0.000 OA
BRANCH  14  15
ATOM     15  C   UNL     1       7.169   4.945  14.359  0.00  0.00    +0.000 A 
ATOM     16  C   UNL     1       7.742   5.406  13.162  0.00  0.00    +0.000 A 
ATOM     17  C   UNL     1       7.471   4.787  11.944  0.00  0.00    +0.000 A 
ATOM     18  C   UNL     1       6.626   3.688  11.905  0.00  0.00    +0.000 A 
ATOM     19  C   UNL     1       6.017   3.244  13.082  0.00  0.00    +0.000 A 
ATOM     20  C   UNL     1       6.245   3.886  14.320  0.00  0.00    +0.000 A 
ATOM     21  C   UNL     1       5.474   3.381  15.500  0.00  0.00    +0.000 C 
ENDBRANCH  14  15
ENDBRANCH   1  14
TORSDOF 5
ENDMDL
MODEL 9
REMARK VINA RESULT:      -6.4      2.726      3.705
REMARK  Name = 
REMARK  7 active torsions:
REMARK  status: ('A' for Active; 'I' for Inactive)
REMARK    1  A    between atoms: C_1  and  C_2
REMARK    2  A    between atoms: C_7  and  O_8
REMARK    3  A    between atoms: O_8  and  P_9
REMARK    4  A    between atoms: P_9  and  N_10
REMARK    5  A    between atoms: P_9  and  O_12
REMARK    6  A    between atoms: O_12  and  C_13
REMARK    7  A    between atoms: C_18  and  C_19
REMARK                            x       y       z     vdW  Elec       q    Type
REMARK                         _______ _______ _______ _____ _____    ______ ____
ROOT
ATOM      1  P   UNL     1       3.366   6.479  18.104  0.00  0.00    +0.000 P 
ATOM      2  O   UNL     1       2.865   7.917  18.296  0.00  0.00    +0.000 OA
ENDROOT
BRANCH   1   3
ATOM      3  N   UNL     1       4.232   6.040  19.485  0.00  0.00    +0.000 NA
ATOM      4  H   UNL     1       4.843   6.819  19.711  0.00  0.00    +0.000 HD
ATOM      5  H   UNL     1       4.817   5.229  19.352  0.00  0.00    +0.000 HD
ENDBRANCH   1   3
BRANCH   1   6
ATOM      6  O   UNL     1       4.819   7.123  17.419  0.00  0.00    +0.000 OA
BRANCH   6  13
ATOM      7  C   UNL     1       7.606   6.504  18.147  0.00  0.00    +0.000 C 
ATOM      8  C   UNL     1       6.875   5.899  16.983  0.00  0.00    +0.000 A 
ATOM      9  C   UNL     1       7.604   5.019  16.150  0.00  0.00    +0.000 A 
ATOM     10  C   UNL     1       7.027   4.462  15.013  0.00  0.00    +0.000 A 
ATOM     11  C   UNL     1       5.718   4.779  14.683  0.00  0.00    +0.000 A 
ATOM     12  C   UNL     1       4.981   5.645  15.495  0.00  0.00    +0.000 A 
ATOM     13  C   UNL     1       5.550   6.228  16.639  0.00  0.00    +0.000 A 
ENDBRANCH   6  13
ENDBRANCH   1   6
BRANCH   1  14
ATOM     14  O   UNL     1       1.914   5.835  18.790  0.00  0.00    +0.000 OA
BRANCH  14  15
ATOM     15  C   UNL     1       1.828   4.563  19.302  0.00  0.00    +0.000 A 
ATOM     16  C   UNL     1       1.542   4.546  20.677  0.00  0.00    +0.000 A 
ATOM     17  C   UNL     1       1.359   3.347  21.363  0.00  0.00    +0.000 A 
ATOM     18  C   UNL     1       1.449   2.143  20.680  0.00  0.00    +0.000 A 
ATOM     19  C   UNL     1       1.772   2.144  19.319  0.00  0.00    +0.000 A 
ATOM     20  C   UNL     1       2.006   3.348  18.617  0.00  0.00    +0.000 A 
ATOM     21  C   UNL     1       2.430   3.228  17.186  0.00  0.00    +0.000 C 
ENDBRANCH  14  15
ENDBRANCH   1  14
TORSDOF 5
ENDMDL
