MODEL 1
REMARK VINA RESULT:      -7.6      0.000      0.000
REMARK  Name = 
REMARK  10 active torsions:
REMARK  status: ('A' for Active; 'I' for Inactive)
REMARK    1  A    between atoms: C_1  and  O_2
REMARK    2  A    between atoms: O_2  and  C_3
REMARK    3  A    between atoms: C_7  and  C_8
REMARK    4  A    between atoms: C_8  and  N_9
REMARK    5  A    between atoms: N_12  and  C_13
REMARK    6  A    between atoms: C_13  and  C_14
REMARK    7  A    between atoms: C_13  and  C_20
REMARK    8  A    between atoms: C_29  and  O_30
REMARK    9  A    between atoms: C_33  and  O_34
REMARK   10  A    between atoms: O_34  and  C_35
REMARK                            x       y       z     vdW  Elec       q    Type
REMARK                         _______ _______ _______ _____ _____    ______ ____
ROOT
ATOM      1  N   UNL     1       1.827  15.137  19.363  0.00  0.00    +0.000 NA
ATOM      2  C   UNL     1       0.416  15.206  18.942  0.00  0.00    +0.000 C 
ATOM      3  C   UNL     1      -0.115  13.921  18.256  0.00  0.00    +0.000 C 
ATOM      4  N   UNL     1       0.137  12.640  18.963  0.00  0.00    +0.000 NA
ATOM      5  C   UNL     1       1.482  12.645  19.584  0.00  0.00    +0.000 C 
ATOM      6  C   UNL     1       1.952  13.959  20.238  0.00  0.00    +0.000 C 
ENDROOT
BRANCH   1   7
ATOM      7  C   UNL     1       2.718  15.052  18.172  0.00  0.00    +0.000 C 
BRANCH   7  12
ATOM      8  C   UNL     1       8.823  14.404  17.978  0.00  0.00    +0.000 A 
ATOM      9  C   UNL     1       7.472  14.066  17.777  0.00  0.00    +0.000 A 
ATOM     10  C   UNL     1       6.428  14.905  18.171  0.00  0.00    +0.000 A 
ATOM     11  N   UNL     1       5.139  14.552  18.000  0.00  0.00    +0.000 NA
ATOM     12  C   UNL     1       4.181  15.426  18.392  0.00  0.00    +0.000 A 
ATOM     13  N   UNL     1       4.423  16.638  18.919  0.00  0.00    +0.000 NA
ATOM     14  C   UNL     1       5.710  16.938  19.076  0.00  0.00    +0.000 A 
ATOM     15  C   UNL     1       6.781  16.125  18.747  0.00  0.00    +0.000 A 
ATOM     16  C   UNL     1       8.122  16.480  18.968  0.00  0.00    +0.000 A 
ATOM     17  C   UNL     1       9.151  15.602  18.633  0.00  0.00    +0.000 A 
BRANCH   8  19
ATOM     18  C   UNL     1       9.695  12.200  17.889  0.00  0.00    +0.000 C 
ATOM     19  O   UNL     1       9.871  13.586  17.620  0.00  0.00    +0.000 OA
ENDBRANCH   8  19
BRANCH  14  20
ATOM     20  O   UNL     1       5.902  18.173  19.609  0.00  0.00    +0.000 OA
ATOM     21  H   UNL     1       6.378  18.600  18.875  0.00  0.00    +0.000 HD
ENDBRANCH  14  20
BRANCH  17  22
ATOM     22  O   UNL     1      10.471  15.873  18.875  0.00  0.00    +0.000 OA
ATOM     23  C   UNL     1      11.032  16.930  18.099  0.00  0.00    +0.000 C 
ENDBRANCH  17  22
ENDBRANCH   7  12
ENDBRANCH   1   7
BRANCH   4  24
ATOM     24  C   UNL     1      -0.990  12.228  19.852  0.00  0.00    +0.000 C 
BRANCH  24  25
ATOM     25  C   UNL     1      -2.208  11.800  19.012  0.00  0.00    +0.000 A 
ATOM     26  C   UNL     1      -3.509  12.210  19.353  0.00  0.00    +0.000 A 
ATOM     27  C   UNL     1      -4.623  11.672  18.702  0.00  0.00    +0.000 A 
ATOM     28  C   UNL     1      -4.456  10.715  17.705  0.00  0.00    +0.000 A 
ATOM     29  C   UNL     1      -3.173  10.317  17.337  0.00  0.00    +0.000 A 
ATOM     30  C   UNL     1      -2.059  10.858  17.974  0.00  0.00    +0.000 A 
ENDBRANCH  24  25
BRANCH  24  31
ATOM     31  C   UNL     1      -0.618  11.160  20.898  0.00  0.00    +0.000 A 
ATOM     32  C   UNL     1      -0.223   9.880  20.469  0.00  0.00    +0.000 A 
ATOM     33  C   UNL     1      -0.138   8.820  21.376  0.00  0.00    +0.000 A 
ATOM     34  C   UNL     1      -0.427   9.024  22.723  0.00  0.00    +0.000 A 
ATOM     35  C   UNL     1      -0.717  10.307  23.181  0.00  0.00    +0.000 A 
ATOM     36  C   UNL     1      -0.771  11.374  22.282  0.00  0.00    +0.000 A 
ENDBRANCH  24  31
ENDBRANCH   4  24
TORSDOF 8
ENDMDL
MODEL 2
REMARK VINA RESULT:      -7.5      5.879      9.525
REMARK  Name = 
REMARK  10 active torsions:
REMARK  status: ('A' for Active; 'I' for Inactive)
REMARK    1  A    between atoms: C_1  and  O_2
REMARK    2  A    between atoms: O_2  and  C_3
REMARK    3  A    between atoms: C_7  and  C_8
REMARK    4  A    between atoms: C_8  and  N_9
REMARK    5  A    between atoms: N_12  and  C_13
REMARK    6  A    between atoms: C_13  and  C_14
REMARK    7  A    between atoms: C_13  and  C_20
REMARK    8  A    between atoms: C_29  and  O_30
REMARK    9  A    between atoms: C_33  and  O_34
REMARK   10  A    between atoms: O_34  and  C_35
REMARK                            x       y       z     vdW  Elec       q    Type
REMARK                         _______ _______ _______ _____ _____    ______ ____
ROOT
ATOM      1  N   UNL     1       0.285   9.673  19.655  0.00  0.00    +0.000 NA
ATOM      2  C   UNL     1       0.763   9.334  18.302  0.00  0.00    +0.000 C 
ATOM      3  C   UNL     1       2.199   8.752  18.253  0.00  0.00    +0.000 C 
ATOM      4  N   UNL     1       2.493   7.635  19.186  0.00  0.00    +0.000 NA
ATOM      5  C   UNL     1       1.830   7.859  20.491  0.00  0.00    +0.000 C 
ATOM      6  C   UNL     1       0.407   8.452  20.466  0.00  0.00    +0.000 C 
ENDROOT
BRANCH   1   7
ATOM      7  C   UNL     1       1.078  10.804  20.214  0.00  0.00    +0.000 C 
BRANCH   7  12
ATOM      8  C   UNL     1      -3.380  12.753  23.963  0.00  0.00    +0.000 A 
ATOM      9  C   UNL     1      -2.683  11.867  23.121  0.00  0.00    +0.000 A 
ATOM     10  C   UNL     1      -1.481  12.216  22.504  0.00  0.00    +0.000 A 
ATOM     11  N   UNL     1      -0.842  11.367  21.676  0.00  0.00    +0.000 NA
ATOM     12  C   UNL     1       0.329  11.771  21.126  0.00  0.00    +0.000 A 
ATOM     13  N   UNL     1       0.917  12.954  21.369  0.00  0.00    +0.000 NA
ATOM     14  C   UNL     1       0.246  13.761  22.186  0.00  0.00    +0.000 A 
ATOM     15  C   UNL     1      -0.971  13.483  22.786  0.00  0.00    +0.000 A 
ATOM     16  C   UNL     1      -1.653  14.389  23.614  0.00  0.00    +0.000 A 
ATOM     17  C   UNL     1      -2.887  14.052  24.167  0.00  0.00    +0.000 A 
BRANCH   8  19
ATOM     18  C   UNL     1      -5.747  12.726  23.807  0.00  0.00    +0.000 C 
ATOM     19  O   UNL     1      -4.577  12.442  24.567  0.00  0.00    +0.000 OA
ENDBRANCH   8  19
BRANCH  14  20
ATOM     20  O   UNL     1       0.882  14.942  22.401  0.00  0.00    +0.000 OA
ATOM     21  H   UNL     1       1.578  14.883  21.722  0.00  0.00    +0.000 HD
ENDBRANCH  14  20
BRANCH  17  22
ATOM     22  O   UNL     1      -3.621  14.914  24.937  0.00  0.00    +0.000 OA
ATOM     23  C   UNL     1      -3.180  16.271  24.929  0.00  0.00    +0.000 C 
ENDBRANCH  17  22
ENDBRANCH   7  12
ENDBRANCH   1   7
BRANCH   4  24
ATOM     24  C   UNL     1       2.287   6.289  18.573  0.00  0.00    +0.000 C 
BRANCH  24  25
ATOM     25  C   UNL     1       3.520   5.881  17.746  0.00  0.00    +0.000 A 
ATOM     26  C   UNL     1       4.408   6.845  17.236  0.00  0.00    +0.000 A 
ATOM     27  C   UNL     1       5.415   6.487  16.336  0.00  0.00    +0.000 A 
ATOM     28  C   UNL     1       5.552   5.163  15.930  0.00  0.00    +0.000 A 
ATOM     29  C   UNL     1       4.698   4.190  16.445  0.00  0.00    +0.000 A 
ATOM     30  C   UNL     1       3.699   4.540  17.350  0.00  0.00    +0.000 A 
ENDBRANCH  24  25
BRANCH  24  31
ATOM     31  C   UNL     1       1.886   5.188  19.574  0.00  0.00    +0.000 A 
ATOM     32  C   UNL     1       2.587   5.067  20.787  0.00  0.00    +0.000 A 
ATOM     33  C   UNL     1       2.433   3.933  21.589  0.00  0.00    +0.000 A 
ATOM     34  C   UNL     1       1.565   2.915  21.203  0.00  0.00    +0.000 A 
ATOM     35  C   UNL     1       0.785   3.067  20.059  0.00  0.00    +0.000 A 
ATOM     36  C   UNL     1       0.914   4.214  19.274  0.00  0.00    +0.000 A 
ENDBRANCH  24  31
ENDBRANCH   4  24
TORSDOF 8
ENDMDL
MODEL 3
REMARK VINA RESULT:      -7.4      4.474      7.432
REMARK  Name = 
REMARK  10 active torsions:
REMARK  status: ('A' for Active; 'I' for Inactive)
REMARK    1  A    between atoms: C_1  and  O_2
REMARK    2  A    between atoms: O_2  and  C_3
REMARK    3  A    between atoms: C_7  and  C_8
REMARK    4  A    between atoms: C_8  and  N_9
REMARK    5  A    between atoms: N_12  and  C_13
REMARK    6  A    between atoms: C_13  and  C_14
REMARK    7  A    between atoms: C_13  and  C_20
REMARK    8  A    between atoms: C_29  and  O_30
REMARK    9  A    between atoms: C_33  and  O_34
REMARK   10  A    between atoms: O_34  and  C_35
REMARK                            x       y       z     vdW  Elec       q    Type
REMARK                         _______ _______ _______ _____ _____    ______ ____
ROOT
ATOM      1  N   UNL     1       0.139   9.644  20.183  0.00  0.00    +0.000 NA
ATOM      2  C   UNL     1       0.598   9.371  18.809  0.00  0.00    +0.000 C 
ATOM      3  C   UNL     1       2.015   8.747  18.715  0.00  0.00    +0.000 C 
ATOM      4  N   UNL     1       2.278   7.568  19.579  0.00  0.00    +0.000 NA
ATOM      5  C   UNL     1       1.629   7.736  20.900  0.00  0.00    +0.000 C 
ATOM      6  C   UNL     1       0.226   8.374  20.920  0.00  0.00    +0.000 C 
ENDROOT
BRANCH   1   7
ATOM      7  C   UNL     1       0.971  10.715  20.802  0.00  0.00    +0.000 C 
BRANCH   7  12
ATOM      8  C   UNL     1       2.436  16.223  18.514  0.00  0.00    +0.000 A 
ATOM      9  C   UNL     1       2.642  14.914  18.986  0.00  0.00    +0.000 A 
ATOM     10  C   UNL     1       1.592  14.105  19.422  0.00  0.00    +0.000 A 
ATOM     11  N   UNL     1       1.810  12.865  19.901  0.00  0.00    +0.000 NA
ATOM     12  C   UNL     1       0.739  12.133  20.291  0.00  0.00    +0.000 A 
ATOM     13  N   UNL     1      -0.537  12.547  20.210  0.00  0.00    +0.000 NA
ATOM     14  C   UNL     1      -0.702  13.780  19.739  0.00  0.00    +0.000 A 
ATOM     15  C   UNL     1       0.306  14.640  19.339  0.00  0.00    +0.000 A 
ATOM     16  C   UNL     1       0.076  15.948  18.881  0.00  0.00    +0.000 A 
ATOM     17  C   UNL     1       1.142  16.767  18.514  0.00  0.00    +0.000 A 
BRANCH   8  19
ATOM     18  C   UNL     1       4.759  16.702  18.554  0.00  0.00    +0.000 C 
ATOM     19  O   UNL     1       3.456  17.049  18.098  0.00  0.00    +0.000 OA
ENDBRANCH   8  19
BRANCH  14  20
ATOM     20  O   UNL     1      -2.008  14.150  19.676  0.00  0.00    +0.000 OA
ATOM     21  H   UNL     1      -2.133  14.476  20.585  0.00  0.00    +0.000 HD
ENDBRANCH  14  20
BRANCH  17  22
ATOM     22  O   UNL     1       0.980  18.067  18.113  0.00  0.00    +0.000 OA
ATOM     23  C   UNL     1       0.232  18.249  16.912  0.00  0.00    +0.000 C 
ENDBRANCH  17  22
ENDBRANCH   7  12
ENDBRANCH   1   7
BRANCH   4  24
ATOM     24  C   UNL     1       2.025   6.268  18.889  0.00  0.00    +0.000 C 
BRANCH  24  25
ATOM     25  C   UNL     1       3.170   5.948  17.911  0.00  0.00    +0.000 A 
ATOM     26  C   UNL     1       3.392   4.637  17.451  0.00  0.00    +0.000 A 
ATOM     27  C   UNL     1       4.537   4.320  16.715  0.00  0.00    +0.000 A 
ATOM     28  C   UNL     1       5.479   5.304  16.429  0.00  0.00    +0.000 A 
ATOM     29  C   UNL     1       5.263   6.613  16.855  0.00  0.00    +0.000 A 
ATOM     30  C   UNL     1       4.119   6.936  17.579  0.00  0.00    +0.000 A 
ENDBRANCH  24  25
BRANCH  24  31
ATOM     31  C   UNL     1       1.743   5.087  19.839  0.00  0.00    +0.000 A 
ATOM     32  C   UNL     1       2.566   4.893  20.962  0.00  0.00    +0.000 A 
ATOM     33  C   UNL     1       2.510   3.699  21.688  0.00  0.00    +0.000 A 
ATOM     34  C   UNL     1       1.623   2.693  21.314  0.00  0.00    +0.000 A 
ATOM     35  C   UNL     1       0.728   2.912  20.269  0.00  0.00    +0.000 A 
ATOM     36  C   UNL     1       0.761   4.117  19.564  0.00  0.00    +0.000 A 
ENDBRANCH  24  31
ENDBRANCH   4  24
TORSDOF 8
ENDMDL
MODEL 4
REMARK VINA RESULT:      -7.3      6.221     10.052
REMARK  Name = 
REMARK  10 active torsions:
REMARK  status: ('A' for Active; 'I' for Inactive)
REMARK    1  A    between atoms: C_1  and  O_2
REMARK    2  A    between atoms: O_2  and  C_3
REMARK    3  A    between atoms: C_7  and  C_8
REMARK    4  A    between atoms: C_8  and  N_9
REMARK    5  A    between atoms: N_12  and  C_13
REMARK    6  A    between atoms: C_13  and  C_14
REMARK    7  A    between atoms: C_13  and  C_20
REMARK    8  A    between atoms: C_29  and  O_30
REMARK    9  A    between atoms: C_33  and  O_34
REMARK   10  A    between atoms: O_34  and  C_35
REMARK                            x       y       z     vdW  Elec       q    Type
REMARK                         _______ _______ _______ _____ _____    ______ ____
ROOT
ATOM      1  N   UNL     1       1.327   8.903  18.245  0.00  0.00    +0.000 NA
ATOM      2  C   UNL     1       2.408   8.521  17.318  0.00  0.00    +0.000 C 
ATOM      3  C   UNL     1       3.637   7.866  17.998  0.00  0.00    +0.000 C 
ATOM      4  N   UNL     1       3.359   6.748  18.935  0.00  0.00    +0.000 NA
ATOM      5  C   UNL     1       2.136   7.024  19.724  0.00  0.00    +0.000 C 
ATOM      6  C   UNL     1       0.956   7.688  18.988  0.00  0.00    +0.000 C 
ENDROOT
BRANCH   1   7
ATOM      7  C   UNL     1       1.782  10.000  19.146  0.00  0.00    +0.000 C 
BRANCH   7  12
ATOM      8  C   UNL     1      -3.148  12.840  21.461  0.00  0.00    +0.000 A 
ATOM      9  C   UNL     1      -2.231  12.417  20.481  0.00  0.00    +0.000 A 
ATOM     10  C   UNL     1      -1.130  11.616  20.787  0.00  0.00    +0.000 A 
ATOM     11  N   UNL     1      -0.244  11.245  19.843  0.00  0.00    +0.000 NA
ATOM     12  C   UNL     1       0.791  10.453  20.214  0.00  0.00    +0.000 A 
ATOM     13  N   UNL     1       0.985   9.985  21.458  0.00  0.00    +0.000 NA
ATOM     14  C   UNL     1       0.089  10.383  22.357  0.00  0.00    +0.000 A 
ATOM     15  C   UNL     1      -0.991  11.215  22.116  0.00  0.00    +0.000 A 
ATOM     16  C   UNL     1      -1.887  11.632  23.114  0.00  0.00    +0.000 A 
ATOM     17  C   UNL     1      -2.942  12.489  22.804  0.00  0.00    +0.000 A 
BRANCH   8  19
ATOM     18  C   UNL     1      -5.058  13.232  20.109  0.00  0.00    +0.000 C 
ATOM     19  O   UNL     1      -4.229  13.648  21.189  0.00  0.00    +0.000 OA
ENDBRANCH   8  19
BRANCH  14  20
ATOM     20  O   UNL     1       0.328   9.882  23.597  0.00  0.00    +0.000 OA
ATOM     21  H   UNL     1       0.419  10.713  24.099  0.00  0.00    +0.000 HD
ENDBRANCH  14  20
BRANCH  17  22
ATOM     22  O   UNL     1      -3.813  12.971  23.745  0.00  0.00    +0.000 OA
ATOM     23  C   UNL     1      -3.328  14.060  24.529  0.00  0.00    +0.000 C 
ENDBRANCH  17  22
ENDBRANCH   7  12
ENDBRANCH   1   7
BRANCH   4  24
ATOM     24  C   UNL     1       3.425   5.406  18.283  0.00  0.00    +0.000 C 
BRANCH  24  25
ATOM     25  C   UNL     1       4.884   5.037  17.959  0.00  0.00    +0.000 A 
ATOM     26  C   UNL     1       5.927   5.332  18.856  0.00  0.00    +0.000 A 
ATOM     27  C   UNL     1       7.263   5.166  18.481  0.00  0.00    +0.000 A 
ATOM     28  C   UNL     1       7.579   4.706  17.206  0.00  0.00    +0.000 A 
ATOM     29  C   UNL     1       6.559   4.385  16.313  0.00  0.00    +0.000 A 
ATOM     30  C   UNL     1       5.226   4.538  16.686  0.00  0.00    +0.000 A 
ENDBRANCH  24  25
BRANCH  24  31
ATOM     31  C   UNL     1       2.715   4.283  19.064  0.00  0.00    +0.000 A 
ATOM     32  C   UNL     1       1.589   3.655  18.503  0.00  0.00    +0.000 A 
ATOM     33  C   UNL     1       0.771   2.832  19.282  0.00  0.00    +0.000 A 
ATOM     34  C   UNL     1       1.073   2.610  20.623  0.00  0.00    +0.000 A 
ATOM     35  C   UNL     1       2.242   3.139  21.165  0.00  0.00    +0.000 A 
ATOM     36  C   UNL     1       3.078   3.935  20.380  0.00  0.00    +0.000 A 
ENDBRANCH  24  31
ENDBRANCH   4  24
TORSDOF 8
ENDMDL
MODEL 5
REMARK VINA RESULT:      -7.3      5.018      8.053
REMARK  Name = 
REMARK  10 active torsions:
REMARK  status: ('A' for Active; 'I' for Inactive)
REMARK    1  A    between atoms: C_1  and  O_2
REMARK    2  A    between atoms: O_2  and  C_3
REMARK    3  A    between atoms: C_7  and  C_8
REMARK    4  A    between atoms: C_8  and  N_9
REMARK    5  A    between atoms: N_12  and  C_13
REMARK    6  A    between atoms: C_13  and  C_14
REMARK    7  A    between atoms: C_13  and  C_20
REMARK    8  A    between atoms: C_29  and  O_30
REMARK    9  A    between atoms: C_33  and  O_34
REMARK   10  A    between atoms: O_34  and  C_35
REMARK                            x       y       z     vdW  Elec       q    Type
REMARK                         _______ _______ _______ _____ _____    ______ ____
ROOT
ATOM      1  N   UNL     1       0.912   8.983  19.137  0.00  0.00    +0.000 NA
ATOM      2  C   UNL     1       1.514   8.759  17.810  0.00  0.00    +0.000 C 
ATOM      3  C   UNL     1       2.966   8.217  17.845  0.00  0.00    +0.000 C 
ATOM      4  N   UNL     1       3.212   7.039  18.715  0.00  0.00    +0.000 NA
ATOM      5  C   UNL     1       2.432   7.147  19.970  0.00  0.00    +0.000 C 
ATOM      6  C   UNL     1       1.000   7.706  19.863  0.00  0.00    +0.000 C 
ENDROOT
BRANCH   1   7
ATOM      7  C   UNL     1       1.619  10.086  19.846  0.00  0.00    +0.000 C 
BRANCH   7  12
ATOM      8  C   UNL     1       2.070  16.108  18.719  0.00  0.00    +0.000 A 
ATOM      9  C   UNL     1       2.509  14.799  18.993  0.00  0.00    +0.000 A 
ATOM     10  C   UNL     1       1.621  13.731  19.141  0.00  0.00    +0.000 A 
ATOM     11  N   UNL     1       2.056  12.491  19.435  0.00  0.00    +0.000 NA
ATOM     12  C   UNL     1       1.136  11.502  19.547  0.00  0.00    +0.000 A 
ATOM     13  N   UNL     1      -0.184  11.664  19.358  0.00  0.00    +0.000 NA
ATOM     14  C   UNL     1      -0.566  12.908  19.077  0.00  0.00    +0.000 A 
ATOM     15  C   UNL     1       0.265  14.009  18.967  0.00  0.00    +0.000 A 
ATOM     16  C   UNL     1      -0.197  15.308  18.703  0.00  0.00    +0.000 A 
ATOM     17  C   UNL     1       0.695  16.376  18.628  0.00  0.00    +0.000 A 
BRANCH   8  19
ATOM     18  C   UNL     1       4.309  16.869  18.530  0.00  0.00    +0.000 C 
ATOM     19  O   UNL     1       2.922  17.181  18.590  0.00  0.00    +0.000 OA
ENDBRANCH   8  19
BRANCH  14  20
ATOM     20  O   UNL     1      -1.908  13.019  18.893  0.00  0.00    +0.000 OA
ATOM     21  H   UNL     1      -2.218  12.803  19.791  0.00  0.00    +0.000 HD
ENDBRANCH  14  20
BRANCH  17  22
ATOM     22  O   UNL     1       0.295  17.670  18.426  0.00  0.00    +0.000 OA
ATOM     23  C   UNL     1      -0.383  17.918  17.196  0.00  0.00    +0.000 C 
ENDBRANCH  17  22
ENDBRANCH   7  12
ENDBRANCH   1   7
BRANCH   4  24
ATOM     24  C   UNL     1       3.101   5.739  17.988  0.00  0.00    +0.000 C 
BRANCH  24  25
ATOM     25  C   UNL     1       4.442   5.378  17.324  0.00  0.00    +0.000 A 
ATOM     26  C   UNL     1       5.581   6.185  17.495  0.00  0.00    +0.000 A 
ATOM     27  C   UNL     1       6.739   5.959  16.746  0.00  0.00    +0.000 A 
ATOM     28  C   UNL     1       6.778   4.926  15.814  0.00  0.00    +0.000 A 
ATOM     29  C   UNL     1       5.667   4.101  15.649  0.00  0.00    +0.000 A 
ATOM     30  C   UNL     1       4.515   4.315  16.401  0.00  0.00    +0.000 A 
ENDBRANCH  24  25
BRANCH  24  31
ATOM     31  C   UNL     1       2.560   4.576  18.843  0.00  0.00    +0.000 A 
ATOM     32  C   UNL     1       1.327   3.987  18.508  0.00  0.00    +0.000 A 
ATOM     33  C   UNL     1       0.685   3.124  19.401  0.00  0.00    +0.000 A 
ATOM     34  C   UNL     1       1.269   2.824  20.629  0.00  0.00    +0.000 A 
ATOM     35  C   UNL     1       2.537   3.316  20.931  0.00  0.00    +0.000 A 
ATOM     36  C   UNL     1       3.194   4.152  20.026  0.00  0.00    +0.000 A 
ENDBRANCH  24  31
ENDBRANCH   4  24
TORSDOF 8
ENDMDL
MODEL 6
REMARK VINA RESULT:      -7.2      6.302      9.998
REMARK  Name = 
REMARK  10 active torsions:
REMARK  status: ('A' for Active; 'I' for Inactive)
REMARK    1  A    between atoms: C_1  and  O_2
REMARK    2  A    between atoms: O_2  and  C_3
REMARK    3  A    between atoms: C_7  and  C_8
REMARK    4  A    between atoms: C_8  and  N_9
REMARK    5  A    between atoms: N_12  and  C_13
REMARK    6  A    between atoms: C_13  and  C_14
REMARK    7  A    between atoms: C_13  and  C_20
REMARK    8  A    between atoms: C_29  and  O_30
REMARK    9  A    between atoms: C_33  and  O_34
REMARK   10  A    between atoms: O_34  and  C_35
REMARK                            x       y       z     vdW  Elec       q    Type
REMARK                         _______ _______ _______ _____ _____    ______ ____
ROOT
ATOM      1  N   UNL     1       0.995   9.026  18.547  0.00  0.00    +0.000 NA
ATOM      2  C   UNL     1       1.871   8.829  17.377  0.00  0.00    +0.000 C 
ATOM      3  C   UNL     1       3.278   8.272  17.712  0.00  0.00    +0.000 C 
ATOM      4  N   UNL     1       3.324   7.071  18.584  0.00  0.00    +0.000 NA
ATOM      5  C   UNL     1       2.290   7.155  19.642  0.00  0.00    +0.000 C 
ATOM      6  C   UNL     1       0.918   7.731  19.241  0.00  0.00    +0.000 C 
ENDROOT
BRANCH   1   7
ATOM      7  C   UNL     1       1.536  10.105  19.421  0.00  0.00    +0.000 C 
BRANCH   7  12
ATOM      8  C   UNL     1      -3.034  13.598  21.573  0.00  0.00    +0.000 A 
ATOM      9  C   UNL     1      -2.145  13.058  20.625  0.00  0.00    +0.000 A 
ATOM     10  C   UNL     1      -1.184  12.105  20.965  0.00  0.00    +0.000 A 
ATOM     11  N   UNL     1      -0.320  11.621  20.053  0.00  0.00    +0.000 NA
ATOM     12  C   UNL     1       0.575  10.685  20.454  0.00  0.00    +0.000 A 
ATOM     13  N   UNL     1       0.646  10.182  21.697  0.00  0.00    +0.000 NA
ATOM     14  C   UNL     1      -0.222  10.696  22.565  0.00  0.00    +0.000 A 
ATOM     15  C   UNL     1      -1.162  11.675  22.292  0.00  0.00    +0.000 A 
ATOM     16  C   UNL     1      -2.032  12.207  23.258  0.00  0.00    +0.000 A 
ATOM     17  C   UNL     1      -2.939  13.209  22.918  0.00  0.00    +0.000 A 
BRANCH   8  19
ATOM     18  C   UNL     1      -3.484  15.880  21.106  0.00  0.00    +0.000 C 
ATOM     19  O   UNL     1      -3.977  14.555  21.269  0.00  0.00    +0.000 OA
ENDBRANCH   8  19
BRANCH  14  20
ATOM     20  O   UNL     1      -0.111  10.154  23.806  0.00  0.00    +0.000 OA
ATOM     21  H   UNL     1      -0.568   9.306  23.660  0.00  0.00    +0.000 HD
ENDBRANCH  14  20
BRANCH  17  22
ATOM     22  O   UNL     1      -3.773  13.801  23.829  0.00  0.00    +0.000 OA
ATOM     23  C   UNL     1      -3.124  14.517  24.879  0.00  0.00    +0.000 C 
ENDBRANCH  17  22
ENDBRANCH   7  12
ENDBRANCH   1   7
BRANCH   4  24
ATOM     24  C   UNL     1       3.367   5.790  17.816  0.00  0.00    +0.000 C 
BRANCH  24  25
ATOM     25  C   UNL     1       4.813   5.463  17.397  0.00  0.00    +0.000 A 
ATOM     26  C   UNL     1       5.083   4.640  16.290  0.00  0.00    +0.000 A 
ATOM     27  C   UNL     1       6.382   4.198  16.025  0.00  0.00    +0.000 A 
ATOM     28  C   UNL     1       7.430   4.567  16.863  0.00  0.00    +0.000 A 
ATOM     29  C   UNL     1       7.185   5.404  17.950  0.00  0.00    +0.000 A 
ATOM     30  C   UNL     1       5.894   5.856  18.212  0.00  0.00    +0.000 A 
ENDBRANCH  24  25
BRANCH  24  31
ATOM     31  C   UNL     1       2.700   4.598  18.529  0.00  0.00    +0.000 A 
ATOM     32  C   UNL     1       3.378   3.951  19.577  0.00  0.00    +0.000 A 
ATOM     33  C   UNL     1       2.930   2.719  20.063  0.00  0.00    +0.000 A 
ATOM     34  C   UNL     1       1.793   2.125  19.522  0.00  0.00    +0.000 A 
ATOM     35  C   UNL     1       1.051   2.801  18.557  0.00  0.00    +0.000 A 
ATOM     36  C   UNL     1       1.479   4.047  18.094  0.00  0.00    +0.000 A 
ENDBRANCH  24  31
ENDBRANCH   4  24
TORSDOF 8
ENDMDL
MODEL 7
REMARK VINA RESULT:      -7.2      6.244     10.022
REMARK  Name = 
REMARK  10 active torsions:
REMARK  status: ('A' for Active; 'I' for Inactive)
REMARK    1  A    between atoms: C_1  and  O_2
REMARK    2  A    between atoms: O_2  and  C_3
REMARK    3  A    between atoms: C_7  and  C_8
REMARK    4  A    between atoms: C_8  and  N_9
REMARK    5  A    between atoms: N_12  and  C_13
REMARK    6  A    between atoms: C_13  and  C_14
REMARK    7  A    between atoms: C_13  and  C_20
REMARK    8  A    between atoms: C_29  and  O_30
REMARK    9  A    between atoms: C_33  and  O_34
REMARK   10  A    between atoms: O_34  and  C_35
REMARK                            x       y       z     vdW  Elec       q    Type
REMARK                         _______ _______ _______ _____ _____    ______ ____
ROOT
ATOM      1  N   UNL     1       1.024   9.353  18.348  0.00  0.00    +0.000 NA
ATOM      2  C   UNL     1       2.087   8.974  17.399  0.00  0.00    +0.000 C 
ATOM      3  C   UNL     1       3.310   8.275  18.046  0.00  0.00    +0.000 C 
ATOM      4  N   UNL     1       3.018   7.137  18.955  0.00  0.00    +0.000 NA
ATOM      5  C   UNL     1       1.810   7.416  19.766  0.00  0.00    +0.000 C 
ATOM      6  C   UNL     1       0.636   8.125  19.062  0.00  0.00    +0.000 C 
ENDROOT
BRANCH   1   7
ATOM      7  C   UNL     1       1.512  10.414  19.273  0.00  0.00    +0.000 C 
BRANCH   7  12
ATOM      8  C   UNL     1      -3.256  13.313  21.839  0.00  0.00    +0.000 A 
ATOM      9  C   UNL     1      -2.369  12.917  20.821  0.00  0.00    +0.000 A 
ATOM     10  C   UNL     1      -1.304  12.046  21.058  0.00  0.00    +0.000 A 
ATOM     11  N   UNL     1      -0.446  11.701  20.080  0.00  0.00    +0.000 NA
ATOM     12  C   UNL     1       0.554  10.838  20.382  0.00  0.00    +0.000 A 
ATOM     13  N   UNL     1       0.738  10.277  21.589  0.00  0.00    +0.000 NA
ATOM     14  C   UNL     1      -0.130  10.654  22.525  0.00  0.00    +0.000 A 
ATOM     15  C   UNL     1      -1.172  11.549  22.355  0.00  0.00    +0.000 A 
ATOM     16  C   UNL     1      -2.038  11.938  23.390  0.00  0.00    +0.000 A 
ATOM     17  C   UNL     1      -3.054  12.862  23.153  0.00  0.00    +0.000 A 
BRANCH   8  19
ATOM     18  C   UNL     1      -5.201  13.844  20.590  0.00  0.00    +0.000 C 
ATOM     19  O   UNL     1      -4.300  14.187  21.637  0.00  0.00    +0.000 OA
ENDBRANCH   8  19
BRANCH  14  20
ATOM     20  O   UNL     1       0.097  10.058  23.725  0.00  0.00    +0.000 OA
ATOM     21  H   UNL     1      -0.555  10.532  24.272  0.00  0.00    +0.000 HD
ENDBRANCH  14  20
BRANCH  17  22
ATOM     22  O   UNL     1      -3.893  13.317  24.135  0.00  0.00    +0.000 OA
ATOM     23  C   UNL     1      -4.708  12.324  24.754  0.00  0.00    +0.000 C 
ENDBRANCH  17  22
ENDBRANCH   7  12
ENDBRANCH   1   7
BRANCH   4  24
ATOM     24  C   UNL     1       3.048   5.812  18.265  0.00  0.00    +0.000 C 
BRANCH  24  25
ATOM     25  C   UNL     1       4.500   5.388  17.981  0.00  0.00    +0.000 A 
ATOM     26  C   UNL     1       5.499   5.503  18.964  0.00  0.00    +0.000 A 
ATOM     27  C   UNL     1       6.844   5.293  18.647  0.00  0.00    +0.000 A 
ATOM     28  C   UNL     1       7.213   4.969  17.344  0.00  0.00    +0.000 A 
ATOM     29  C   UNL     1       6.234   4.826  16.363  0.00  0.00    +0.000 A 
ATOM     30  C   UNL     1       4.892   5.023  16.676  0.00  0.00    +0.000 A 
ENDBRANCH  24  25
BRANCH  24  31
ATOM     31  C   UNL     1       2.263   4.700  18.988  0.00  0.00    +0.000 A 
ATOM     32  C   UNL     1       2.487   4.475  20.358  0.00  0.00    +0.000 A 
ATOM     33  C   UNL     1       2.001   3.321  20.978  0.00  0.00    +0.000 A 
ATOM     34  C   UNL     1       1.272   2.386  20.247  0.00  0.00    +0.000 A 
ATOM     35  C   UNL     1       0.952   2.646  18.917  0.00  0.00    +0.000 A 
ATOM     36  C   UNL     1       1.409   3.814  18.304  0.00  0.00    +0.000 A 
ENDBRANCH  24  31
ENDBRANCH   4  24
TORSDOF 8
ENDMDL
MODEL 8
REMARK VINA RESULT:      -7.1      5.524      9.469
REMARK  Name = 
REMARK  10 active torsions:
REMARK  status: ('A' for Active; 'I' for Inactive)
REMARK    1  A    between atoms: C_1  and  O_2
REMARK    2  A    between atoms: O_2  and  C_3
REMARK    3  A    between atoms: C_7  and  C_8
REMARK    4  A    between atoms: C_8  and  N_9
REMARK    5  A    between atoms: N_12  and  C_13
REMARK    6  A    between atoms: C_13  and  C_14
REMARK    7  A    between atoms: C_13  and  C_20
REMARK    8  A    between atoms: C_29  and  O_30
REMARK    9  A    between atoms: C_33  and  O_34
REMARK   10  A    between atoms: O_34  and  C_35
REMARK                            x       y       z     vdW  Elec       q    Type
REMARK                         _______ _______ _______ _____ _____    ______ ____
ROOT
ATOM      1  N   UNL     1       0.876   9.356  18.772  0.00  0.00    +0.000 NA
ATOM      2  C   UNL     1       1.591   8.875  17.576  0.00  0.00    +0.000 C 
ATOM      3  C   UNL     1       2.978   8.245  17.864  0.00  0.00    +0.000 C 
ATOM      4  N   UNL     1       3.027   7.212  18.930  0.00  0.00    +0.000 NA
ATOM      5  C   UNL     1       2.133   7.580  20.053  0.00  0.00    +0.000 C 
ATOM      6  C   UNL     1       0.775   8.213  19.694  0.00  0.00    +0.000 C 
ENDROOT
BRANCH   1   7
ATOM      7  C   UNL     1       1.600  10.508  19.377  0.00  0.00    +0.000 C 
BRANCH   7  12
ATOM      8  C   UNL     1      -3.542  13.564  20.776  0.00  0.00    +0.000 A 
ATOM      9  C   UNL     1      -2.739  12.569  20.187  0.00  0.00    +0.000 A 
ATOM     10  C   UNL     1      -1.356  12.521  20.374  0.00  0.00    +0.000 A 
ATOM     11  N   UNL     1      -0.598  11.581  19.778  0.00  0.00    +0.000 NA
ATOM     12  C   UNL     1       0.736  11.589  20.020  0.00  0.00    +0.000 A 
ATOM     13  N   UNL     1       1.357  12.456  20.837  0.00  0.00    +0.000 NA
ATOM     14  C   UNL     1       0.568  13.370  21.396  0.00  0.00    +0.000 A 
ATOM     15  C   UNL     1      -0.798  13.491  21.207  0.00  0.00    +0.000 A 
ATOM     16  C   UNL     1      -1.577  14.499  21.797  0.00  0.00    +0.000 A 
ATOM     17  C   UNL     1      -2.946  14.575  21.545  0.00  0.00    +0.000 A 
BRANCH   8  19
ATOM     18  C   UNL     1      -5.668  12.572  21.127  0.00  0.00    +0.000 C 
ATOM     19  O   UNL     1      -4.904  13.646  20.590  0.00  0.00    +0.000 OA
ENDBRANCH   8  19
BRANCH  14  20
ATOM     20  O   UNL     1       1.243  14.220  22.213  0.00  0.00    +0.000 OA
ATOM     21  H   UNL     1       1.841  13.589  22.653  0.00  0.00    +0.000 HD
ENDBRANCH  14  20
BRANCH  17  22
ATOM     22  O   UNL     1      -3.744  15.567  22.049  0.00  0.00    +0.000 OA
ATOM     23  C   UNL     1      -3.525  15.892  23.421  0.00  0.00    +0.000 C 
ENDBRANCH  17  22
ENDBRANCH   7  12
ENDBRANCH   1   7
BRANCH   4  24
ATOM     24  C   UNL     1       2.877   5.821  18.407  0.00  0.00    +0.000 C 
BRANCH  24  25
ATOM     25  C   UNL     1       4.239   5.273  17.941  0.00  0.00    +0.000 A 
ATOM     26  C   UNL     1       5.416   5.534  18.665  0.00  0.00    +0.000 A 
ATOM     27  C   UNL     1       6.668   5.195  18.144  0.00  0.00    +0.000 A 
ATOM     28  C   UNL     1       6.764   4.593  16.892  0.00  0.00    +0.000 A 
ATOM     29  C   UNL     1       5.607   4.304  16.172  0.00  0.00    +0.000 A 
ATOM     30  C   UNL     1       4.357   4.630  16.692  0.00  0.00    +0.000 A 
ENDBRANCH  24  25
BRANCH  24  31
ATOM     31  C   UNL     1       2.175   4.849  19.375  0.00  0.00    +0.000 A 
ATOM     32  C   UNL     1       2.613   4.766  20.709  0.00  0.00    +0.000 A 
ATOM     33  C   UNL     1       2.186   3.721  21.534  0.00  0.00    +0.000 A 
ATOM     34  C   UNL     1       1.306   2.758  21.047  0.00  0.00    +0.000 A 
ATOM     35  C   UNL     1       0.782   2.885  19.763  0.00  0.00    +0.000 A 
ATOM     36  C   UNL     1       1.182   3.946  18.948  0.00  0.00    +0.000 A 
ENDBRANCH  24  31
ENDBRANCH   4  24
TORSDOF 8
ENDMDL
MODEL 9
REMARK VINA RESULT:      -7.1      5.817      9.515
REMARK  Name = 
REMARK  10 active torsions:
REMARK  status: ('A' for Active; 'I' for Inactive)
REMARK    1  A    between atoms: C_1  and  O_2
REMARK    2  A    between atoms: O_2  and  C_3
REMARK    3  A    between atoms: C_7  and  C_8
REMARK    4  A    between atoms: C_8  and  N_9
REMARK    5  A    between atoms: N_12  and  C_13
REMARK    6  A    between atoms: C_13  and  C_14
REMARK    7  A    between atoms: C_13  and  C_20
REMARK    8  A    between atoms: C_29  and  O_30
REMARK    9  A    between atoms: C_33  and  O_34
REMARK   10  A    between atoms: O_34  and  C_35
REMARK                            x       y       z     vdW  Elec       q    Type
REMARK                         _______ _______ _______ _____ _____    ______ ____
ROOT
ATOM      1  N   UNL     1       0.712   9.269  18.820  0.00  0.00    +0.000 NA
ATOM      2  C   UNL     1       1.455   8.845  17.619  0.00  0.00    +0.000 C 
ATOM      3  C   UNL     1       2.879   8.301  17.901  0.00  0.00    +0.000 C 
ATOM      4  N   UNL     1       2.995   7.264  18.957  0.00  0.00    +0.000 NA
ATOM      5  C   UNL     1       2.081   7.564  20.084  0.00  0.00    +0.000 C 
ATOM      6  C   UNL     1       0.685   8.113  19.732  0.00  0.00    +0.000 C 
ENDROOT
BRANCH   1   7
ATOM      7  C   UNL     1       1.363  10.459  19.436  0.00  0.00    +0.000 C 
BRANCH   7  12
ATOM      8  C   UNL     1      -2.460  13.547  23.122  0.00  0.00    +0.000 A 
ATOM      9  C   UNL     1      -1.601  12.509  22.713  0.00  0.00    +0.000 A 
ATOM     10  C   UNL     1      -0.960  12.517  21.473  0.00  0.00    +0.000 A 
ATOM     11  N   UNL     1      -0.167  11.501  21.084  0.00  0.00    +0.000 NA
ATOM     12  C   UNL     1       0.434  11.588  19.873  0.00  0.00    +0.000 A 
ATOM     13  N   UNL     1       0.316  12.633  19.036  0.00  0.00    +0.000 NA
ATOM     14  C   UNL     1      -0.484  13.608  19.460  0.00  0.00    +0.000 A 
ATOM     15  C   UNL     1      -1.179  13.627  20.657  0.00  0.00    +0.000 A 
ATOM     16  C   UNL     1      -2.040  14.670  21.038  0.00  0.00    +0.000 A 
ATOM     17  C   UNL     1      -2.726  14.614  22.250  0.00  0.00    +0.000 A 
BRANCH   8  19
ATOM     18  C   UNL     1      -4.139  12.571  24.483  0.00  0.00    +0.000 C 
ATOM     19  O   UNL     1      -3.120  13.553  24.330  0.00  0.00    +0.000 OA
ENDBRANCH   8  19
BRANCH  14  20
ATOM     20  O   UNL     1      -0.568  14.640  18.581  0.00  0.00    +0.000 OA
ATOM     21  H   UNL     1      -0.057  14.270  17.839  0.00  0.00    +0.000 HD
ENDBRANCH  14  20
BRANCH  17  22
ATOM     22  O   UNL     1      -3.617  15.574  22.647  0.00  0.00    +0.000 OA
ATOM     23  C   UNL     1      -4.885  15.544  21.993  0.00  0.00    +0.000 C 
ENDBRANCH  17  22
ENDBRANCH   7  12
ENDBRANCH   1   7
BRANCH   4  24
ATOM     24  C   UNL     1       2.932   5.871  18.421  0.00  0.00    +0.000 C 
BRANCH  24  25
ATOM     25  C   UNL     1       4.343   5.373  18.055  0.00  0.00    +0.000 A 
ATOM     26  C   UNL     1       5.442   5.610  18.899  0.00  0.00    +0.000 A 
ATOM     27  C   UNL     1       6.744   5.322  18.479  0.00  0.00    +0.000 A 
ATOM     28  C   UNL     1       6.968   4.796  17.210  0.00  0.00    +0.000 A 
ATOM     29  C   UNL     1       5.889   4.531  16.370  0.00  0.00    +0.000 A 
ATOM     30  C   UNL     1       4.589   4.806  16.788  0.00  0.00    +0.000 A 
ENDBRANCH  24  25
BRANCH  24  31
ATOM     31  C   UNL     1       2.196   4.870  19.333  0.00  0.00    +0.000 A 
ATOM     32  C   UNL     1       2.545   4.788  20.693  0.00  0.00    +0.000 A 
ATOM     33  C   UNL     1       2.096   3.725  21.481  0.00  0.00    +0.000 A 
ATOM     34  C   UNL     1       1.281   2.740  20.929  0.00  0.00    +0.000 A 
ATOM     35  C   UNL     1       0.841   2.862  19.614  0.00  0.00    +0.000 A 
ATOM     36  C   UNL     1       1.262   3.942  18.835  0.00  0.00    +0.000 A 
ENDBRANCH  24  31
ENDBRANCH   4  24
TORSDOF 8
ENDMDL
