MODEL 1
REMARK VINA RESULT:      -7.9      0.000      0.000
REMARK  Name = 
REMARK  9 active torsions:
REMARK  status: ('A' for Active; 'I' for Inactive)
REMARK    1  A    between atoms: N_1  and  C_2
REMARK    2  A    between atoms: C_2  and  C_3
REMARK    3  A    between atoms: C_5  and  O_6
REMARK    4  A    between atoms: O_6  and  C_7
REMARK    5  A    between atoms: C_7  and  C_8
REMARK    6  A    between atoms: C_12  and  C_13
REMARK    7  A    between atoms: N_15  and  C_16
REMARK    8  A    between atoms: C_16  and  C_17
REMARK    9  A    between atoms: C_17  and  N_18
REMARK                            x       y       z     vdW  Elec       q    Type
REMARK                         _______ _______ _______ _____ _____    ______ ____
ROOT
ATOM      1  C   UNL     1       3.598   3.869  19.502  0.00  0.00    +0.000 A 
ATOM      2  C   UNL     1       2.625   3.025  20.054  0.00  0.00    +0.000 A 
ATOM      3  C   UNL     1       1.456   3.557  20.600  0.00  0.00    +0.000 A 
ATOM      4  C   UNL     1       1.253   4.938  20.603  0.00  0.00    +0.000 A 
ATOM      5  C   UNL     1       2.224   5.801  20.077  0.00  0.00    +0.000 A 
ATOM      6  C   UNL     1       3.394   5.262  19.527  0.00  0.00    +0.000 A 
ENDROOT
BRANCH   5   7
ATOM      7  C   UNL     1       1.938   7.266  20.096  0.00  0.00    +0.000 C 
ATOM      8  O   UNL     1       2.251   7.964  19.137  0.00  0.00    +0.000 OA
ATOM      9  N   UNL     1       1.291   7.774  21.207  0.00  0.00    +0.000 N 
ATOM     10  H   UNL     1       1.041   7.160  21.969  0.00  0.00    +0.000 HD
BRANCH   9  11
ATOM     11  C   UNL     1       0.956   9.193  21.287  0.00  0.00    +0.000 C 
BRANCH  11  12
ATOM     12  C   UNL     1       0.372   9.578  22.642  0.00  0.00    +0.000 C 
BRANCH  12  13
ATOM     13  N   UNL     1      -0.366  10.825  22.607  0.00  0.00    +0.000 N 
ATOM     14  C   UNL     1      -1.557  11.092  23.221  0.00  0.00    +0.000 A 
ATOM     15  C   UNL     1      -1.815  12.424  22.991  0.00  0.00    +0.000 A 
ATOM     16  C   UNL     1      -0.718  12.873  22.235  0.00  0.00    +0.000 A 
ATOM     17  N   UNL     1       0.170  11.903  22.002  0.00  0.00    +0.000 NA
ENDBRANCH  12  13
ENDBRANCH  11  12
ENDBRANCH   9  11
ENDBRANCH   5   7
BRANCH   1  18
ATOM     18  C   UNL     1       4.833   3.293  18.843  0.00  0.00    +0.000 C 
BRANCH  18  19
ATOM     19  O   UNL     1       6.007   4.011  19.250  0.00  0.00    +0.000 OA
BRANCH  19  22
ATOM     20  C   UNL     1       6.868   5.222  15.956  0.00  0.00    +0.000 A 
ATOM     21  C   UNL     1       6.369   4.379  16.937  0.00  0.00    +0.000 A 
ATOM     22  C   UNL     1       6.478   4.827  18.235  0.00  0.00    +0.000 A 
ATOM     23  N   UNL     1       7.033   6.007  18.565  0.00  0.00    +0.000 NA
ATOM     24  C   UNL     1       7.475   6.747  17.545  0.00  0.00    +0.000 A 
ATOM     25  N   UNL     1       7.423   6.419  16.252  0.00  0.00    +0.000 NA
BRANCH  20  26
ATOM     26  C   UNL     1       6.835   4.834  14.493  0.00  0.00    +0.000 C 
BRANCH  26  27
ATOM     27  N   UNL     1       7.872   5.494  13.698  0.00  0.00    +0.000 NA
ATOM     28  H   UNL     1       8.748   5.461  14.220  0.00  0.00    +0.000 HD
ATOM     29  H   UNL     1       7.636   6.484  13.625  0.00  0.00    +0.000 HD
ENDBRANCH  26  27
ENDBRANCH  20  26
ENDBRANCH  19  22
ENDBRANCH  18  19
ENDBRANCH   1  18
TORSDOF 9
ENDMDL
MODEL 2
REMARK VINA RESULT:      -7.7      1.667      8.287
REMARK  Name = 
REMARK  9 active torsions:
REMARK  status: ('A' for Active; 'I' for Inactive)
REMARK    1  A    between atoms: N_1  and  C_2
REMARK    2  A    between atoms: C_2  and  C_3
REMARK    3  A    between atoms: C_5  and  O_6
REMARK    4  A    between atoms: O_6  and  C_7
REMARK    5  A    between atoms: C_7  and  C_8
REMARK    6  A    between atoms: C_12  and  C_13
REMARK    7  A    between atoms: N_15  and  C_16
REMARK    8  A    between atoms: C_16  and  C_17
REMARK    9  A    between atoms: C_17  and  N_18
REMARK                            x       y       z     vdW  Elec       q    Type
REMARK                         _______ _______ _______ _____ _____    ______ ____
ROOT
ATOM      1  C   UNL     1       1.957   5.048  20.442  0.00  0.00    +0.000 A 
ATOM      2  C   UNL     1       1.762   3.952  21.295  0.00  0.00    +0.000 A 
ATOM      3  C   UNL     1       2.274   2.697  20.961  0.00  0.00    +0.000 A 
ATOM      4  C   UNL     1       2.980   2.527  19.768  0.00  0.00    +0.000 A 
ATOM      5  C   UNL     1       3.166   3.603  18.891  0.00  0.00    +0.000 A 
ATOM      6  C   UNL     1       2.653   4.862  19.233  0.00  0.00    +0.000 A 
ENDROOT
BRANCH   5   7
ATOM      7  C   UNL     1       3.945   3.358  17.642  0.00  0.00    +0.000 C 
ATOM      8  O   UNL     1       4.082   2.215  17.218  0.00  0.00    +0.000 OA
ATOM      9  N   UNL     1       4.462   4.461  16.989  0.00  0.00    +0.000 N 
ATOM     10  H   UNL     1       4.315   5.386  17.367  0.00  0.00    +0.000 HD
BRANCH   9  11
ATOM     11  C   UNL     1       5.215   4.303  15.747  0.00  0.00    +0.000 C 
BRANCH  11  12
ATOM     12  C   UNL     1       6.718   4.208  15.985  0.00  0.00    +0.000 C 
BRANCH  12  13
ATOM     13  N   UNL     1       7.179   5.076  17.050  0.00  0.00    +0.000 N 
ATOM     14  C   UNL     1       7.326   6.434  16.998  0.00  0.00    +0.000 A 
ATOM     15  C   UNL     1       7.688   6.828  18.265  0.00  0.00    +0.000 A 
ATOM     16  C   UNL     1       7.726   5.636  19.011  0.00  0.00    +0.000 A 
ATOM     17  N   UNL     1       7.411   4.566  18.276  0.00  0.00    +0.000 NA
ENDBRANCH  12  13
ENDBRANCH  11  12
ENDBRANCH   9  11
ENDBRANCH   5   7
BRANCH   1  18
ATOM     18  C   UNL     1       1.468   6.425  20.834  0.00  0.00    +0.000 C 
BRANCH  18  19
ATOM     19  O   UNL     1       2.044   7.428  19.986  0.00  0.00    +0.000 OA
BRANCH  19  22
ATOM     20  C   UNL     1       0.070  10.148  21.314  0.00  0.00    +0.000 A 
ATOM     21  C   UNL     1       0.767   8.951  21.278  0.00  0.00    +0.000 A 
ATOM     22  C   UNL     1       1.349   8.624  20.074  0.00  0.00    +0.000 A 
ATOM     23  N   UNL     1       1.264   9.398  18.977  0.00  0.00    +0.000 NA
ATOM     24  C   UNL     1       0.576  10.534  19.120  0.00  0.00    +0.000 A 
ATOM     25  N   UNL     1      -0.028  10.955  20.233  0.00  0.00    +0.000 NA
BRANCH  20  26
ATOM     26  C   UNL     1      -0.640  10.609  22.569  0.00  0.00    +0.000 C 
BRANCH  26  27
ATOM     27  N   UNL     1      -0.340   9.779  23.738  0.00  0.00    +0.000 NA
ATOM     28  H   UNL     1       0.477   9.206  23.525  0.00  0.00    +0.000 HD
ATOM     29  H   UNL     1      -1.109   9.121  23.867  0.00  0.00    +0.000 HD
ENDBRANCH  26  27
ENDBRANCH  20  26
ENDBRANCH  19  22
ENDBRANCH  18  19
ENDBRANCH   1  18
TORSDOF 9
ENDMDL
MODEL 3
REMARK VINA RESULT:      -7.7      1.233      2.155
REMARK  Name = 
REMARK  9 active torsions:
REMARK  status: ('A' for Active; 'I' for Inactive)
REMARK    1  A    between atoms: N_1  and  C_2
REMARK    2  A    between atoms: C_2  and  C_3
REMARK    3  A    between atoms: C_5  and  O_6
REMARK    4  A    between atoms: O_6  and  C_7
REMARK    5  A    between atoms: C_7  and  C_8
REMARK    6  A    between atoms: C_12  and  C_13
REMARK    7  A    between atoms: N_15  and  C_16
REMARK    8  A    between atoms: C_16  and  C_17
REMARK    9  A    between atoms: C_17  and  N_18
REMARK                            x       y       z     vdW  Elec       q    Type
REMARK                         _______ _______ _______ _____ _____    ______ ____
ROOT
ATOM      1  C   UNL     1       2.622   4.130  18.342  0.00  0.00    +0.000 A 
ATOM      2  C   UNL     1       2.122   3.221  19.285  0.00  0.00    +0.000 A 
ATOM      3  C   UNL     1       1.553   3.679  20.474  0.00  0.00    +0.000 A 
ATOM      4  C   UNL     1       1.484   5.049  20.732  0.00  0.00    +0.000 A 
ATOM      5  C   UNL     1       1.999   5.973  19.814  0.00  0.00    +0.000 A 
ATOM      6  C   UNL     1       2.566   5.509  18.619  0.00  0.00    +0.000 A 
ENDROOT
BRANCH   5   7
ATOM      7  C   UNL     1       1.878   7.424  20.142  0.00  0.00    +0.000 C 
ATOM      8  O   UNL     1       2.056   8.268  19.270  0.00  0.00    +0.000 OA
ATOM      9  N   UNL     1       1.533   7.756  21.439  0.00  0.00    +0.000 N 
ATOM     10  H   UNL     1       1.383   7.027  22.123  0.00  0.00    +0.000 HD
BRANCH   9  11
ATOM     11  C   UNL     1       1.372   9.154  21.831  0.00  0.00    +0.000 C 
BRANCH  11  12
ATOM     12  C   UNL     1       0.077   9.399  22.596  0.00  0.00    +0.000 C 
BRANCH  12  13
ATOM     13  N   UNL     1      -0.372  10.775  22.523  0.00  0.00    +0.000 N 
ATOM     14  C   UNL     1       0.005  11.715  21.605  0.00  0.00    +0.000 A 
ATOM     15  C   UNL     1      -0.750  12.834  21.871  0.00  0.00    +0.000 A 
ATOM     16  C   UNL     1      -1.556  12.467  22.963  0.00  0.00    +0.000 A 
ATOM     17  N   UNL     1      -1.333  11.212  23.361  0.00  0.00    +0.000 NA
ENDBRANCH  12  13
ENDBRANCH  11  12
ENDBRANCH   9  11
ENDBRANCH   5   7
BRANCH   1  18
ATOM     18  C   UNL     1       3.173   3.642  17.020  0.00  0.00    +0.000 C 
BRANCH  18  19
ATOM     19  O   UNL     1       4.479   3.076  17.192  0.00  0.00    +0.000 OA
BRANCH  19  22
ATOM     20  C   UNL     1       7.082   5.558  17.541  0.00  0.00    +0.000 A 
ATOM     21  C   UNL     1       6.107   4.644  17.907  0.00  0.00    +0.000 A 
ATOM     22  C   UNL     1       5.472   3.988  16.875  0.00  0.00    +0.000 A 
ATOM     23  N   UNL     1       5.758   4.202  15.578  0.00  0.00    +0.000 NA
ATOM     24  C   UNL     1       6.718   5.097  15.334  0.00  0.00    +0.000 A 
ATOM     25  N   UNL     1       7.401   5.790  16.248  0.00  0.00    +0.000 NA
BRANCH  20  26
ATOM     26  C   UNL     1       7.833   6.365  18.579  0.00  0.00    +0.000 C 
BRANCH  26  27
ATOM     27  N   UNL     1       8.110   5.612  19.804  0.00  0.00    +0.000 NA
ATOM     28  H   UNL     1       7.333   4.975  19.974  0.00  0.00    +0.000 HD
ATOM     29  H   UNL     1       8.103   6.266  20.588  0.00  0.00    +0.000 HD
ENDBRANCH  26  27
ENDBRANCH  20  26
ENDBRANCH  19  22
ENDBRANCH  18  19
ENDBRANCH   1  18
TORSDOF 9
ENDMDL
MODEL 4
REMARK VINA RESULT:      -7.7      1.747      2.544
REMARK  Name = 
REMARK  9 active torsions:
REMARK  status: ('A' for Active; 'I' for Inactive)
REMARK    1  A    between atoms: N_1  and  C_2
REMARK    2  A    between atoms: C_2  and  C_3
REMARK    3  A    between atoms: C_5  and  O_6
REMARK    4  A    between atoms: O_6  and  C_7
REMARK    5  A    between atoms: C_7  and  C_8
REMARK    6  A    between atoms: C_12  and  C_13
REMARK    7  A    between atoms: N_15  and  C_16
REMARK    8  A    between atoms: C_16  and  C_17
REMARK    9  A    between atoms: C_17  and  N_18
REMARK                            x       y       z     vdW  Elec       q    Type
REMARK                         _______ _______ _______ _____ _____    ______ ____
ROOT
ATOM      1  C   UNL     1       2.625   4.222  18.407  0.00  0.00    +0.000 A 
ATOM      2  C   UNL     1       2.182   3.331  19.394  0.00  0.00    +0.000 A 
ATOM      3  C   UNL     1       1.646   3.811  20.590  0.00  0.00    +0.000 A 
ATOM      4  C   UNL     1       1.553   5.186  20.811  0.00  0.00    +0.000 A 
ATOM      5  C   UNL     1       2.012   6.094  19.847  0.00  0.00    +0.000 A 
ATOM      6  C   UNL     1       2.546   5.607  18.647  0.00  0.00    +0.000 A 
ENDROOT
BRANCH   5   7
ATOM      7  C   UNL     1       1.868   7.551  20.138  0.00  0.00    +0.000 C 
ATOM      8  O   UNL     1       2.042   8.375  19.246  0.00  0.00    +0.000 OA
ATOM      9  N   UNL     1       1.508   7.910  21.423  0.00  0.00    +0.000 N 
ATOM     10  H   UNL     1       1.362   7.198  22.124  0.00  0.00    +0.000 HD
BRANCH   9  11
ATOM     11  C   UNL     1       1.324   9.315  21.778  0.00  0.00    +0.000 C 
BRANCH  11  12
ATOM     12  C   UNL     1      -0.109   9.788  21.563  0.00  0.00    +0.000 C 
BRANCH  12  13
ATOM     13  N   UNL     1      -0.264  10.606  20.377  0.00  0.00    +0.000 N 
ATOM     14  C   UNL     1      -0.992  10.304  19.261  0.00  0.00    +0.000 A 
ATOM     15  C   UNL     1      -0.927  11.414  18.450  0.00  0.00    +0.000 A 
ATOM     16  C   UNL     1      -0.142  12.333  19.169  0.00  0.00    +0.000 A 
ATOM     17  N   UNL     1       0.260  11.847  20.346  0.00  0.00    +0.000 NA
ENDBRANCH  12  13
ENDBRANCH  11  12
ENDBRANCH   9  11
ENDBRANCH   5   7
BRANCH   1  18
ATOM     18  C   UNL     1       3.138   3.708  17.080  0.00  0.00    +0.000 C 
BRANCH  18  19
ATOM     19  O   UNL     1       4.440   3.126  17.231  0.00  0.00    +0.000 OA
BRANCH  19  22
ATOM     20  C   UNL     1       7.089   5.533  17.728  0.00  0.00    +0.000 A 
ATOM     21  C   UNL     1       6.108   4.604  18.037  0.00  0.00    +0.000 A 
ATOM     22  C   UNL     1       5.440   4.048  16.969  0.00  0.00    +0.000 A 
ATOM     23  N   UNL     1       5.701   4.366  15.689  0.00  0.00    +0.000 NA
ATOM     24  C   UNL     1       6.670   5.265  15.498  0.00  0.00    +0.000 A 
ATOM     25  N   UNL     1       7.383   5.869  16.452  0.00  0.00    +0.000 NA
BRANCH  20  26
ATOM     26  C   UNL     1       7.875   6.238  18.813  0.00  0.00    +0.000 C 
BRANCH  26  27
ATOM     27  N   UNL     1       7.861   5.525  20.091  0.00  0.00    +0.000 NA
ATOM     28  H   UNL     1       8.359   4.643  19.974  0.00  0.00    +0.000 HD
ATOM     29  H   UNL     1       6.896   5.267  20.302  0.00  0.00    +0.000 HD
ENDBRANCH  26  27
ENDBRANCH  20  26
ENDBRANCH  19  22
ENDBRANCH  18  19
ENDBRANCH   1  18
TORSDOF 9
ENDMDL
MODEL 5
REMARK VINA RESULT:      -7.6      2.892      3.766
REMARK  Name = 
REMARK  9 active torsions:
REMARK  status: ('A' for Active; 'I' for Inactive)
REMARK    1  A    between atoms: N_1  and  C_2
REMARK    2  A    between atoms: C_2  and  C_3
REMARK    3  A    between atoms: C_5  and  O_6
REMARK    4  A    between atoms: O_6  and  C_7
REMARK    5  A    between atoms: C_7  and  C_8
REMARK    6  A    between atoms: C_12  and  C_13
REMARK    7  A    between atoms: N_15  and  C_16
REMARK    8  A    between atoms: C_16  and  C_17
REMARK    9  A    between atoms: C_17  and  N_18
REMARK                            x       y       z     vdW  Elec       q    Type
REMARK                         _______ _______ _______ _____ _____    ______ ____
ROOT
ATOM      1  C   UNL     1       4.843   5.987  17.107  0.00  0.00    +0.000 A 
ATOM      2  C   UNL     1       4.152   4.786  17.319  0.00  0.00    +0.000 A 
ATOM      3  C   UNL     1       2.844   4.799  17.807  0.00  0.00    +0.000 A 
ATOM      4  C   UNL     1       2.220   6.015  18.093  0.00  0.00    +0.000 A 
ATOM      5  C   UNL     1       2.900   7.225  17.910  0.00  0.00    +0.000 A 
ATOM      6  C   UNL     1       4.211   7.206  17.416  0.00  0.00    +0.000 A 
ENDROOT
BRANCH   5   7
ATOM      7  C   UNL     1       2.169   8.490  18.218  0.00  0.00    +0.000 C 
ATOM      8  O   UNL     1       1.933   9.295  17.324  0.00  0.00    +0.000 OA
ATOM      9  N   UNL     1       1.757   8.684  19.523  0.00  0.00    +0.000 N 
ATOM     10  H   UNL     1       1.962   7.988  20.226  0.00  0.00    +0.000 HD
BRANCH   9  11
ATOM     11  C   UNL     1       1.015   9.885  19.896  0.00  0.00    +0.000 C 
BRANCH  11  12
ATOM     12  C   UNL     1      -0.492   9.655  19.923  0.00  0.00    +0.000 C 
BRANCH  12  13
ATOM     13  N   UNL     1      -1.191  10.361  18.869  0.00  0.00    +0.000 N 
ATOM     14  C   UNL     1      -1.576   9.858  17.658  0.00  0.00    +0.000 A 
ATOM     15  C   UNL     1      -2.291  10.857  17.038  0.00  0.00    +0.000 A 
ATOM     16  C   UNL     1      -2.286  11.920  17.958  0.00  0.00    +0.000 A 
ATOM     17  N   UNL     1      -1.622  11.621  19.077  0.00  0.00    +0.000 NA
ENDBRANCH  12  13
ENDBRANCH  11  12
ENDBRANCH   9  11
ENDBRANCH   5   7
BRANCH   1  18
ATOM     18  C   UNL     1       6.233   5.980  16.509  0.00  0.00    +0.000 C 
BRANCH  18  19
ATOM     19  O   UNL     1       6.605   4.655  16.104  0.00  0.00    +0.000 OA
BRANCH  19  22
ATOM     20  C   UNL     1       6.249   3.671  12.646  0.00  0.00    +0.000 A 
ATOM     21  C   UNL     1       6.005   3.724  14.009  0.00  0.00    +0.000 A 
ATOM     22  C   UNL     1       6.802   4.580  14.735  0.00  0.00    +0.000 A 
ATOM     23  N   UNL     1       7.771   5.334  14.184  0.00  0.00    +0.000 NA
ATOM     24  C   UNL     1       7.919   5.215  12.862  0.00  0.00    +0.000 A 
ATOM     25  N   UNL     1       7.208   4.422  12.058  0.00  0.00    +0.000 NA
BRANCH  20  26
ATOM     26  C   UNL     1       5.461   2.748  11.741  0.00  0.00    +0.000 C 
BRANCH  26  27
ATOM     27  N   UNL     1       6.130   1.468  11.501  0.00  0.00    +0.000 NA
ATOM     28  H   UNL     1       5.462   0.833  11.063  0.00  0.00    +0.000 HD
ATOM     29  H   UNL     1       6.350   1.049  12.406  0.00  0.00    +0.000 HD
ENDBRANCH  26  27
ENDBRANCH  20  26
ENDBRANCH  19  22
ENDBRANCH  18  19
ENDBRANCH   1  18
TORSDOF 9
ENDMDL
MODEL 6
REMARK VINA RESULT:      -7.5      1.632      1.871
REMARK  Name = 
REMARK  9 active torsions:
REMARK  status: ('A' for Active; 'I' for Inactive)
REMARK    1  A    between atoms: N_1  and  C_2
REMARK    2  A    between atoms: C_2  and  C_3
REMARK    3  A    between atoms: C_5  and  O_6
REMARK    4  A    between atoms: O_6  and  C_7
REMARK    5  A    between atoms: C_7  and  C_8
REMARK    6  A    between atoms: C_12  and  C_13
REMARK    7  A    between atoms: N_15  and  C_16
REMARK    8  A    between atoms: C_16  and  C_17
REMARK    9  A    between atoms: C_17  and  N_18
REMARK                            x       y       z     vdW  Elec       q    Type
REMARK                         _______ _______ _______ _____ _____    ______ ____
ROOT
ATOM      1  C   UNL     1       3.234   3.767  19.197  0.00  0.00    +0.000 A 
ATOM      2  C   UNL     1       2.242   2.948  19.755  0.00  0.00    +0.000 A 
ATOM      3  C   UNL     1       1.165   3.511  20.442  0.00  0.00    +0.000 A 
ATOM      4  C   UNL     1       1.075   4.897  20.582  0.00  0.00    +0.000 A 
ATOM      5  C   UNL     1       2.068   5.732  20.052  0.00  0.00    +0.000 A 
ATOM      6  C   UNL     1       3.145   5.162  19.360  0.00  0.00    +0.000 A 
ENDROOT
BRANCH   5   7
ATOM      7  C   UNL     1       1.903   7.206  20.221  0.00  0.00    +0.000 C 
ATOM      8  O   UNL     1       2.085   7.957  19.269  0.00  0.00    +0.000 OA
ATOM      9  N   UNL     1       1.514   7.663  21.466  0.00  0.00    +0.000 N 
ATOM     10  H   UNL     1       1.363   7.008  22.220  0.00  0.00    +0.000 HD
BRANCH   9  11
ATOM     11  C   UNL     1       1.308   9.090  21.703  0.00  0.00    +0.000 C 
BRANCH  11  12
ATOM     12  C   UNL     1      -0.147   9.506  21.522  0.00  0.00    +0.000 C 
BRANCH  12  13
ATOM     13  N   UNL     1      -0.334  10.461  20.447  0.00  0.00    +0.000 N 
ATOM     14  C   UNL     1       0.073  11.765  20.427  0.00  0.00    +0.000 A 
ATOM     15  C   UNL     1      -0.231  12.241  19.173  0.00  0.00    +0.000 A 
ATOM     16  C   UNL     1      -0.812  11.146  18.508  0.00  0.00    +0.000 A 
ATOM     17  N   UNL     1      -0.872  10.057  19.279  0.00  0.00    +0.000 NA
ENDBRANCH  12  13
ENDBRANCH  11  12
ENDBRANCH   9  11
ENDBRANCH   5   7
BRANCH   1  18
ATOM     18  C   UNL     1       4.363   3.166  18.389  0.00  0.00    +0.000 C 
BRANCH  18  19
ATOM     19  O   UNL     1       4.242   3.523  17.005  0.00  0.00    +0.000 OA
BRANCH  19  22
ATOM     20  C   UNL     1       6.795   4.860  14.825  0.00  0.00    +0.000 A 
ATOM     21  C   UNL     1       5.662   4.167  15.219  0.00  0.00    +0.000 A 
ATOM     22  C   UNL     1       5.358   4.214  16.562  0.00  0.00    +0.000 A 
ATOM     23  N   UNL     1       6.099   4.883  17.463  0.00  0.00    +0.000 NA
ATOM     24  C   UNL     1       7.166   5.524  16.979  0.00  0.00    +0.000 A 
ATOM     25  N   UNL     1       7.557   5.551  15.703  0.00  0.00    +0.000 NA
BRANCH  20  26
ATOM     26  C   UNL     1       7.253   4.863  13.382  0.00  0.00    +0.000 C 
BRANCH  26  27
ATOM     27  N   UNL     1       8.388   5.756  13.140  0.00  0.00    +0.000 NA
ATOM     28  H   UNL     1       9.249   5.231  13.294  0.00  0.00    +0.000 HD
ATOM     29  H   UNL     1       8.380   6.483  13.856  0.00  0.00    +0.000 HD
ENDBRANCH  26  27
ENDBRANCH  20  26
ENDBRANCH  19  22
ENDBRANCH  18  19
ENDBRANCH   1  18
TORSDOF 9
ENDMDL
MODEL 7
REMARK VINA RESULT:      -7.5      1.616      8.788
REMARK  Name = 
REMARK  9 active torsions:
REMARK  status: ('A' for Active; 'I' for Inactive)
REMARK    1  A    between atoms: N_1  and  C_2
REMARK    2  A    between atoms: C_2  and  C_3
REMARK    3  A    between atoms: C_5  and  O_6
REMARK    4  A    between atoms: O_6  and  C_7
REMARK    5  A    between atoms: C_7  and  C_8
REMARK    6  A    between atoms: C_12  and  C_13
REMARK    7  A    between atoms: N_15  and  C_16
REMARK    8  A    between atoms: C_16  and  C_17
REMARK    9  A    between atoms: C_17  and  N_18
REMARK                            x       y       z     vdW  Elec       q    Type
REMARK                         _______ _______ _______ _____ _____    ______ ____
ROOT
ATOM      1  C   UNL     1       2.167   6.266  19.832  0.00  0.00    +0.000 A 
ATOM      2  C   UNL     1       1.626   5.397  20.790  0.00  0.00    +0.000 A 
ATOM      3  C   UNL     1       1.844   4.021  20.699  0.00  0.00    +0.000 A 
ATOM      4  C   UNL     1       2.599   3.503  19.645  0.00  0.00    +0.000 A 
ATOM      5  C   UNL     1       3.129   4.351  18.664  0.00  0.00    +0.000 A 
ATOM      6  C   UNL     1       2.911   5.732  18.763  0.00  0.00    +0.000 A 
ENDROOT
BRANCH   5   7
ATOM      7  C   UNL     1       3.941   3.735  17.574  0.00  0.00    +0.000 C 
ATOM      8  O   UNL     1       3.985   2.515  17.457  0.00  0.00    +0.000 OA
ATOM      9  N   UNL     1       4.598   4.591  16.710  0.00  0.00    +0.000 N 
ATOM     10  H   UNL     1       4.524   5.590  16.836  0.00  0.00    +0.000 HD
BRANCH   9  11
ATOM     11  C   UNL     1       5.392   4.063  15.604  0.00  0.00    +0.000 C 
BRANCH  11  12
ATOM     12  C   UNL     1       6.864   4.446  15.710  0.00  0.00    +0.000 C 
BRANCH  12  13
ATOM     13  N   UNL     1       7.136   5.353  16.807  0.00  0.00    +0.000 N 
ATOM     14  C   UNL     1       7.600   5.024  18.049  0.00  0.00    +0.000 A 
ATOM     15  C   UNL     1       7.799   6.213  18.711  0.00  0.00    +0.000 A 
ATOM     16  C   UNL     1       7.433   7.202  17.781  0.00  0.00    +0.000 A 
ATOM     17  N   UNL     1       7.033   6.683  16.617  0.00  0.00    +0.000 NA
ENDBRANCH  12  13
ENDBRANCH  11  12
ENDBRANCH   9  11
ENDBRANCH   5   7
BRANCH   1  18
ATOM     18  C   UNL     1       1.997   7.763  19.967  0.00  0.00    +0.000 C 
BRANCH  18  19
ATOM     19  O   UNL     1       1.339   8.090  21.200  0.00  0.00    +0.000 OA
BRANCH  19  22
ATOM     20  C   UNL     1      -0.805  10.876  22.030  0.00  0.00    +0.000 A 
ATOM     21  C   UNL     1      -0.038   9.736  22.204  0.00  0.00    +0.000 A 
ATOM     22  C   UNL     1       0.574   9.238  21.076  0.00  0.00    +0.000 A 
ATOM     23  N   UNL     1       0.454   9.801  19.861  0.00  0.00    +0.000 NA
ATOM     24  C   UNL     1      -0.301  10.901  19.802  0.00  0.00    +0.000 A 
ATOM     25  N   UNL     1      -0.940  11.474  20.824  0.00  0.00    +0.000 NA
BRANCH  20  26
ATOM     26  C   UNL     1      -1.554  11.506  23.186  0.00  0.00    +0.000 C 
BRANCH  26  27
ATOM     27  N   UNL     1      -2.751  12.237  22.766  0.00  0.00    +0.000 NA
ATOM     28  H   UNL     1      -3.342  11.605  22.227  0.00  0.00    +0.000 HD
ATOM     29  H   UNL     1      -2.466  12.968  22.113  0.00  0.00    +0.000 HD
ENDBRANCH  26  27
ENDBRANCH  20  26
ENDBRANCH  19  22
ENDBRANCH  18  19
ENDBRANCH   1  18
TORSDOF 9
ENDMDL
MODEL 8
REMARK VINA RESULT:      -7.4      2.243      3.256
REMARK  Name = 
REMARK  9 active torsions:
REMARK  status: ('A' for Active; 'I' for Inactive)
REMARK    1  A    between atoms: N_1  and  C_2
REMARK    2  A    between atoms: C_2  and  C_3
REMARK    3  A    between atoms: C_5  and  O_6
REMARK    4  A    between atoms: O_6  and  C_7
REMARK    5  A    between atoms: C_7  and  C_8
REMARK    6  A    between atoms: C_12  and  C_13
REMARK    7  A    between atoms: N_15  and  C_16
REMARK    8  A    between atoms: C_16  and  C_17
REMARK    9  A    between atoms: C_17  and  N_18
REMARK                            x       y       z     vdW  Elec       q    Type
REMARK                         _______ _______ _______ _____ _____    ______ ____
ROOT
ATOM      1  C   UNL     1       4.450   5.917  16.975  0.00  0.00    +0.000 A 
ATOM      2  C   UNL     1       3.922   4.629  17.141  0.00  0.00    +0.000 A 
ATOM      3  C   UNL     1       2.822   4.419  17.974  0.00  0.00    +0.000 A 
ATOM      4  C   UNL     1       2.244   5.494  18.651  0.00  0.00    +0.000 A 
ATOM      5  C   UNL     1       2.771   6.785  18.517  0.00  0.00    +0.000 A 
ATOM      6  C   UNL     1       3.874   6.992  17.677  0.00  0.00    +0.000 A 
ENDROOT
BRANCH   5   7
ATOM      7  C   UNL     1       2.097   7.894  19.255  0.00  0.00    +0.000 C 
ATOM      8  O   UNL     1       1.901   7.798  20.462  0.00  0.00    +0.000 OA
ATOM      9  N   UNL     1       1.743   9.017  18.530  0.00  0.00    +0.000 N 
ATOM     10  H   UNL     1       1.935   9.058  17.539  0.00  0.00    +0.000 HD
BRANCH   9  11
ATOM     11  C   UNL     1       1.101  10.153  19.187  0.00  0.00    +0.000 C 
BRANCH  11  12
ATOM     12  C   UNL     1      -0.327   9.844  19.622  0.00  0.00    +0.000 C 
BRANCH  12  13
ATOM     13  N   UNL     1      -0.592  10.214  20.998  0.00  0.00    +0.000 N 
ATOM     14  C   UNL     1      -0.502   9.408  22.098  0.00  0.00    +0.000 A 
ATOM     15  C   UNL     1      -0.745  10.215  23.185  0.00  0.00    +0.000 A 
ATOM     16  C   UNL     1      -0.965  11.492  22.637  0.00  0.00    +0.000 A 
ATOM     17  N   UNL     1      -0.867  11.497  21.305  0.00  0.00    +0.000 NA
ENDBRANCH  12  13
ENDBRANCH  11  12
ENDBRANCH   9  11
ENDBRANCH   5   7
BRANCH   1  18
ATOM     18  C   UNL     1       5.596   6.161  16.017  0.00  0.00    +0.000 C 
BRANCH  18  19
ATOM     19  O   UNL     1       6.378   4.971  15.848  0.00  0.00    +0.000 OA
BRANCH  19  22
ATOM     20  C   UNL     1       6.199   3.547  12.531  0.00  0.00    +0.000 A 
ATOM     21  C   UNL     1       5.889   3.770  13.863  0.00  0.00    +0.000 A 
ATOM     22  C   UNL     1       6.642   4.725  14.510  0.00  0.00    +0.000 A 
ATOM     23  N   UNL     1       7.628   5.417  13.912  0.00  0.00    +0.000 NA
ATOM     24  C   UNL     1       7.841   5.133  12.625  0.00  0.00    +0.000 A 
ATOM     25  N   UNL     1       7.177   4.232  11.897  0.00  0.00    +0.000 NA
BRANCH  20  26
ATOM     26  C   UNL     1       5.465   2.504  11.716  0.00  0.00    +0.000 C 
BRANCH  26  27
ATOM     27  N   UNL     1       6.307   1.365  11.345  0.00  0.00    +0.000 NA
ATOM     28  H   UNL     1       7.058   1.702  10.743  0.00  0.00    +0.000 HD
ATOM     29  H   UNL     1       5.753   0.735  10.763  0.00  0.00    +0.000 HD
ENDBRANCH  26  27
ENDBRANCH  20  26
ENDBRANCH  19  22
ENDBRANCH  18  19
ENDBRANCH   1  18
TORSDOF 9
ENDMDL
MODEL 9
REMARK VINA RESULT:      -7.4      2.829      8.955
REMARK  Name = 
REMARK  9 active torsions:
REMARK  status: ('A' for Active; 'I' for Inactive)
REMARK    1  A    between atoms: N_1  and  C_2
REMARK    2  A    between atoms: C_2  and  C_3
REMARK    3  A    between atoms: C_5  and  O_6
REMARK    4  A    between atoms: O_6  and  C_7
REMARK    5  A    between atoms: C_7  and  C_8
REMARK    6  A    between atoms: C_12  and  C_13
REMARK    7  A    between atoms: N_15  and  C_16
REMARK    8  A    between atoms: C_16  and  C_17
REMARK    9  A    between atoms: C_17  and  N_18
REMARK                            x       y       z     vdW  Elec       q    Type
REMARK                         _______ _______ _______ _____ _____    ______ ____
ROOT
ATOM      1  C   UNL     1       1.490   8.474  19.984  0.00  0.00    +0.000 A 
ATOM      2  C   UNL     1       1.375   9.385  18.924  0.00  0.00    +0.000 A 
ATOM      3  C   UNL     1       1.991   9.124  17.699  0.00  0.00    +0.000 A 
ATOM      4  C   UNL     1       2.733   7.954  17.526  0.00  0.00    +0.000 A 
ATOM      5  C   UNL     1       2.880   7.043  18.580  0.00  0.00    +0.000 A 
ATOM      6  C   UNL     1       2.256   7.307  19.806  0.00  0.00    +0.000 A 
ENDROOT
BRANCH   5   7
ATOM      7  C   UNL     1       3.671   5.803  18.324  0.00  0.00    +0.000 C 
ATOM      8  O   UNL     1       3.795   5.380  17.179  0.00  0.00    +0.000 OA
ATOM      9  N   UNL     1       4.266   5.193  19.412  0.00  0.00    +0.000 N 
ATOM     10  H   UNL     1       4.148   5.583  20.336  0.00  0.00    +0.000 HD
BRANCH   9  11
ATOM     11  C   UNL     1       5.076   3.990  19.238  0.00  0.00    +0.000 C 
BRANCH  11  12
ATOM     12  C   UNL     1       4.346   2.727  19.680  0.00  0.00    +0.000 C 
BRANCH  12  13
ATOM     13  N   UNL     1       2.903   2.858  19.625  0.00  0.00    +0.000 N 
ATOM     14  C   UNL     1       2.070   2.363  18.662  0.00  0.00    +0.000 A 
ATOM     15  C   UNL     1       0.790   2.645  19.081  0.00  0.00    +0.000 A 
ATOM     16  C   UNL     1       0.958   3.307  20.311  0.00  0.00    +0.000 A 
ATOM     17  N   UNL     1       2.244   3.434  20.649  0.00  0.00    +0.000 NA
ENDBRANCH  12  13
ENDBRANCH  11  12
ENDBRANCH   9  11
ENDBRANCH   5   7
BRANCH   1  18
ATOM     18  C   UNL     1       0.764   8.716  21.289  0.00  0.00    +0.000 C 
BRANCH  18  19
ATOM     19  O   UNL     1       1.049  10.029  21.793  0.00  0.00    +0.000 OA
BRANCH  19  22
ATOM     20  C   UNL     1      -1.826  12.118  21.137  0.00  0.00    +0.000 A 
ATOM     21  C   UNL     1      -0.675  11.385  20.894  0.00  0.00    +0.000 A 
ATOM     22  C   UNL     1      -0.112  10.760  21.984  0.00  0.00    +0.000 A 
ATOM     23  N   UNL     1      -0.624  10.837  23.226  0.00  0.00    +0.000 NA
ATOM     24  C   UNL     1      -1.740  11.561  23.351  0.00  0.00    +0.000 A 
ATOM     25  N   UNL     1      -2.373  12.208  22.370  0.00  0.00    +0.000 NA
BRANCH  20  26
ATOM     26  C   UNL     1      -2.525  12.876  20.029  0.00  0.00    +0.000 C 
BRANCH  26  27
ATOM     27  N   UNL     1      -2.474  14.329  20.203  0.00  0.00    +0.000 NA
ATOM     28  H   UNL     1      -1.810  14.712  19.530  0.00  0.00    +0.000 HD
ATOM     29  H   UNL     1      -2.073  14.525  21.122  0.00  0.00    +0.000 HD
ENDBRANCH  26  27
ENDBRANCH  20  26
ENDBRANCH  19  22
ENDBRANCH  18  19
ENDBRANCH   1  18
TORSDOF 9
ENDMDL
