MODEL 1
REMARK VINA RESULT:      -7.0      0.000      0.000
REMARK  Name = 
REMARK  8 active torsions:
REMARK  status: ('A' for Active; 'I' for Inactive)
REMARK    1  A    between atoms: C_1  and  O_2
REMARK    2  A    between atoms: O_2  and  C_3
REMARK    3  A    between atoms: C_7  and  O_8
REMARK    4  A    between atoms: C_9  and  O_10
REMARK    5  A    between atoms: O_10  and  C_11
REMARK    6  A    between atoms: C_12  and  C_13
REMARK    7  A    between atoms: N_14  and  C_15
REMARK    8  A    between atoms: N_14  and  C_16
REMARK                            x       y       z     vdW  Elec       q    Type
REMARK                         _______ _______ _______ _____ _____    ______ ____
ROOT
ATOM      1  C   UNL     1       5.786   5.084  16.274  0.00  0.00    +0.000 A 
ATOM      2  C   UNL     1       4.563   4.402  16.170  0.00  0.00    +0.000 A 
ATOM      3  C   UNL     1       3.921   3.882  17.295  0.00  0.00    +0.000 A 
ATOM      4  C   UNL     1       4.484   4.053  18.580  0.00  0.00    +0.000 A 
ATOM      5  C   UNL     1       5.720   4.755  18.693  0.00  0.00    +0.000 A 
ATOM      6  C   UNL     1       6.367   5.265  17.554  0.00  0.00    +0.000 A 
ATOM      7  C   UNL     1       3.771   3.490  19.819  0.00  0.00    +0.000 C 
ATOM      8  C   UNL     1       4.586   2.257  20.305  0.00  0.00    +0.000 C 
ATOM      9  N   UNL     1       2.306   3.210  19.568  0.00  0.00    +0.000 N 
ATOM     10  C   UNL     1       1.559   4.496  19.477  0.00  0.00    +0.000 C 
ATOM     11  C   UNL     1       1.696   2.448  20.690  0.00  0.00    +0.000 C 
ATOM     12  C   UNL     1       2.135   2.418  18.324  0.00  0.00    +0.000 C 
ATOM     13  C   UNL     1       2.615   3.163  17.077  0.00  0.00    +0.000 C 
ENDROOT
BRANCH   1  15
ATOM     14  C   UNL     1       6.965   4.822  14.153  0.00  0.00    +0.000 C 
ATOM     15  O   UNL     1       6.411   5.569  15.171  0.00  0.00    +0.000 OA
ENDBRANCH   1  15
BRANCH   5  16
ATOM     16  O   UNL     1       6.312   4.980  19.890  0.00  0.00    +0.000 OA
ATOM     17  H   UNL     1       7.200   5.336  20.017  0.00  0.00    +0.000 HD
ENDBRANCH   5  16
BRANCH   6  18
ATOM     18  O   UNL     1       7.542   5.929  17.757  0.00  0.00    +0.000 OA
ATOM     19  C   UNL     1       7.752   7.293  17.807  0.00  0.00    +0.000 C 
ENDBRANCH   6  18
TORSDOF 3
ENDMDL
MODEL 2
REMARK VINA RESULT:      -6.6      1.392      2.965
REMARK  Name = 
REMARK  8 active torsions:
REMARK  status: ('A' for Active; 'I' for Inactive)
REMARK    1  A    between atoms: C_1  and  O_2
REMARK    2  A    between atoms: O_2  and  C_3
REMARK    3  A    between atoms: C_7  and  O_8
REMARK    4  A    between atoms: C_9  and  O_10
REMARK    5  A    between atoms: O_10  and  C_11
REMARK    6  A    between atoms: C_12  and  C_13
REMARK    7  A    between atoms: N_14  and  C_15
REMARK    8  A    between atoms: N_14  and  C_16
REMARK                            x       y       z     vdW  Elec       q    Type
REMARK                         _______ _______ _______ _____ _____    ______ ____
ROOT
ATOM      1  C   UNL     1       6.672   6.161  17.076  0.00  0.00    +0.000 A 
ATOM      2  C   UNL     1       5.764   6.263  18.142  0.00  0.00    +0.000 A 
ATOM      3  C   UNL     1       4.836   5.255  18.408  0.00  0.00    +0.000 A 
ATOM      4  C   UNL     1       4.805   4.087  17.612  0.00  0.00    +0.000 A 
ATOM      5  C   UNL     1       5.734   3.972  16.536  0.00  0.00    +0.000 A 
ATOM      6  C   UNL     1       6.657   4.997  16.267  0.00  0.00    +0.000 A 
ATOM      7  C   UNL     1       3.791   2.973  17.912  0.00  0.00    +0.000 C 
ATOM      8  C   UNL     1       2.710   3.014  16.794  0.00  0.00    +0.000 C 
ATOM      9  N   UNL     1       3.238   3.054  19.318  0.00  0.00    +0.000 N 
ATOM     10  C   UNL     1       4.285   2.636  20.293  0.00  0.00    +0.000 C 
ATOM     11  C   UNL     1       2.092   2.126  19.508  0.00  0.00    +0.000 C 
ATOM     12  C   UNL     1       2.771   4.433  19.613  0.00  0.00    +0.000 C 
ATOM     13  C   UNL     1       3.902   5.462  19.571  0.00  0.00    +0.000 C 
ENDROOT
BRANCH   1  15
ATOM     14  C   UNL     1       7.882   8.201  17.655  0.00  0.00    +0.000 C 
ATOM     15  O   UNL     1       7.558   7.156  16.815  0.00  0.00    +0.000 OA
ENDBRANCH   1  15
BRANCH   5  16
ATOM     16  O   UNL     1       5.784   2.875  15.743  0.00  0.00    +0.000 OA
ATOM     17  H   UNL     1       6.065   1.996  16.023  0.00  0.00    +0.000 HD
ENDBRANCH   5  16
BRANCH   6  18
ATOM     18  O   UNL     1       7.512   4.800  15.222  0.00  0.00    +0.000 OA
ATOM     19  C   UNL     1       7.310   5.094  13.889  0.00  0.00    +0.000 C 
ENDBRANCH   6  18
TORSDOF 3
ENDMDL
MODEL 3
REMARK VINA RESULT:      -6.0      3.099      5.071
REMARK  Name = 
REMARK  8 active torsions:
REMARK  status: ('A' for Active; 'I' for Inactive)
REMARK    1  A    between atoms: C_1  and  O_2
REMARK    2  A    between atoms: O_2  and  C_3
REMARK    3  A    between atoms: C_7  and  O_8
REMARK    4  A    between atoms: C_9  and  O_10
REMARK    5  A    between atoms: O_10  and  C_11
REMARK    6  A    between atoms: C_12  and  C_13
REMARK    7  A    between atoms: N_14  and  C_15
REMARK    8  A    between atoms: N_14  and  C_16
REMARK                            x       y       z     vdW  Elec       q    Type
REMARK                         _______ _______ _______ _____ _____    ______ ____
ROOT
ATOM      1  C   UNL     1       1.660   7.327  20.361  0.00  0.00    +0.000 A 
ATOM      2  C   UNL     1       1.457   6.048  20.904  0.00  0.00    +0.000 A 
ATOM      3  C   UNL     1       1.927   4.902  20.262  0.00  0.00    +0.000 A 
ATOM      4  C   UNL     1       2.645   5.008  19.048  0.00  0.00    +0.000 A 
ATOM      5  C   UNL     1       2.864   6.305  18.499  0.00  0.00    +0.000 A 
ATOM      6  C   UNL     1       2.377   7.454  19.145  0.00  0.00    +0.000 A 
ATOM      7  C   UNL     1       3.172   3.746  18.348  0.00  0.00    +0.000 C 
ATOM      8  C   UNL     1       2.292   3.512  17.087  0.00  0.00    +0.000 C 
ATOM      9  N   UNL     1       3.256   2.557  19.280  0.00  0.00    +0.000 N 
ATOM     10  C   UNL     1       4.390   2.745  20.229  0.00  0.00    +0.000 C 
ATOM     11  C   UNL     1       3.534   1.300  18.536  0.00  0.00    +0.000 C 
ATOM     12  C   UNL     1       1.979   2.386  20.018  0.00  0.00    +0.000 C 
ATOM     13  C   UNL     1       1.654   3.576  20.923  0.00  0.00    +0.000 C 
ENDROOT
BRANCH   1  15
ATOM     14  C   UNL     1      -0.075   8.583  21.533  0.00  0.00    +0.000 C 
ATOM     15  O   UNL     1       1.181   8.435  20.985  0.00  0.00    +0.000 OA
ENDBRANCH   1  15
BRANCH   5  16
ATOM     16  O   UNL     1       3.562   6.493  17.354  0.00  0.00    +0.000 OA
ATOM     17  H   UNL     1       3.992   7.315  17.088  0.00  0.00    +0.000 HD
ENDBRANCH   5  16
BRANCH   6  18
ATOM     18  O   UNL     1       2.639   8.655  18.552  0.00  0.00    +0.000 OA
ATOM     19  C   UNL     1       1.778   9.452  17.825  0.00  0.00    +0.000 C 
ENDBRANCH   6  18
TORSDOF 3
ENDMDL
MODEL 4
REMARK VINA RESULT:      -6.0      2.640      5.362
REMARK  Name = 
REMARK  8 active torsions:
REMARK  status: ('A' for Active; 'I' for Inactive)
REMARK    1  A    between atoms: C_1  and  O_2
REMARK    2  A    between atoms: O_2  and  C_3
REMARK    3  A    between atoms: C_7  and  O_8
REMARK    4  A    between atoms: C_9  and  O_10
REMARK    5  A    between atoms: O_10  and  C_11
REMARK    6  A    between atoms: C_12  and  C_13
REMARK    7  A    between atoms: N_14  and  C_15
REMARK    8  A    between atoms: N_14  and  C_16
REMARK                            x       y       z     vdW  Elec       q    Type
REMARK                         _______ _______ _______ _____ _____    ______ ____
ROOT
ATOM      1  C   UNL     1       2.677   5.586  19.742  0.00  0.00    +0.000 A 
ATOM      2  C   UNL     1       3.075   6.365  18.644  0.00  0.00    +0.000 A 
ATOM      3  C   UNL     1       4.160   6.000  17.846  0.00  0.00    +0.000 A 
ATOM      4  C   UNL     1       4.874   4.809  18.116  0.00  0.00    +0.000 A 
ATOM      5  C   UNL     1       4.466   4.008  19.222  0.00  0.00    +0.000 A 
ATOM      6  C   UNL     1       3.381   4.390  20.029  0.00  0.00    +0.000 A 
ATOM      7  C   UNL     1       6.060   4.401  17.230  0.00  0.00    +0.000 C 
ATOM      8  C   UNL     1       7.359   4.633  18.054  0.00  0.00    +0.000 C 
ATOM      9  N   UNL     1       6.044   5.091  15.883  0.00  0.00    +0.000 N 
ATOM     10  C   UNL     1       4.959   4.515  15.039  0.00  0.00    +0.000 C 
ATOM     11  C   UNL     1       7.315   4.871  15.143  0.00  0.00    +0.000 C 
ATOM     12  C   UNL     1       5.854   6.553  16.053  0.00  0.00    +0.000 C 
ATOM     13  C   UNL     1       4.510   6.905  16.694  0.00  0.00    +0.000 C 
ENDROOT
BRANCH   1  15
ATOM     14  C   UNL     1       1.368   7.239  20.973  0.00  0.00    +0.000 C 
ATOM     15  O   UNL     1       1.632   5.963  20.524  0.00  0.00    +0.000 OA
ENDBRANCH   1  15
BRANCH   5  16
ATOM     16  O   UNL     1       5.084   2.843  19.533  0.00  0.00    +0.000 OA
ATOM     17  H   UNL     1       5.963   2.579  19.235  0.00  0.00    +0.000 HD
ENDBRANCH   5  16
BRANCH   6  18
ATOM     18  O   UNL     1       3.056   3.559  21.062  0.00  0.00    +0.000 OA
ATOM     19  C   UNL     1       1.965   2.721  21.171  0.00  0.00    +0.000 C 
ENDBRANCH   6  18
TORSDOF 3
ENDMDL
MODEL 5
REMARK VINA RESULT:      -5.9      1.990      2.997
REMARK  Name = 
REMARK  8 active torsions:
REMARK  status: ('A' for Active; 'I' for Inactive)
REMARK    1  A    between atoms: C_1  and  O_2
REMARK    2  A    between atoms: O_2  and  C_3
REMARK    3  A    between atoms: C_7  and  O_8
REMARK    4  A    between atoms: C_9  and  O_10
REMARK    5  A    between atoms: O_10  and  C_11
REMARK    6  A    between atoms: C_12  and  C_13
REMARK    7  A    between atoms: N_14  and  C_15
REMARK    8  A    between atoms: N_14  and  C_16
REMARK                            x       y       z     vdW  Elec       q    Type
REMARK                         _______ _______ _______ _____ _____    ______ ____
ROOT
ATOM      1  C   UNL     1       6.217   4.026  14.287  0.00  0.00    +0.000 A 
ATOM      2  C   UNL     1       5.099   3.570  15.003  0.00  0.00    +0.000 A 
ATOM      3  C   UNL     1       4.772   4.093  16.255  0.00  0.00    +0.000 A 
ATOM      4  C   UNL     1       5.558   5.123  16.824  0.00  0.00    +0.000 A 
ATOM      5  C   UNL     1       6.687   5.598  16.095  0.00  0.00    +0.000 A 
ATOM      6  C   UNL     1       7.017   5.057  14.840  0.00  0.00    +0.000 A 
ATOM      7  C   UNL     1       5.191   5.707  18.196  0.00  0.00    +0.000 C 
ATOM      8  C   UNL     1       6.242   5.188  19.219  0.00  0.00    +0.000 C 
ATOM      9  N   UNL     1       3.755   5.427  18.582  0.00  0.00    +0.000 N 
ATOM     10  C   UNL     1       2.842   6.270  17.758  0.00  0.00    +0.000 C 
ATOM     11  C   UNL     1       3.491   5.785  20.001  0.00  0.00    +0.000 C 
ATOM     12  C   UNL     1       3.441   3.987  18.401  0.00  0.00    +0.000 C 
ATOM     13  C   UNL     1       3.556   3.534  16.945  0.00  0.00    +0.000 C 
ENDROOT
BRANCH   1  15
ATOM     14  C   UNL     1       5.654   3.182  12.066  0.00  0.00    +0.000 C 
ATOM     15  O   UNL     1       6.536   3.495  13.078  0.00  0.00    +0.000 OA
ENDBRANCH   1  15
BRANCH   5  16
ATOM     16  O   UNL     1       7.475   6.597  16.560  0.00  0.00    +0.000 OA
ATOM     17  H   UNL     1       7.536   7.483  16.184  0.00  0.00    +0.000 HD
ENDBRANCH   5  16
BRANCH   6  18
ATOM     18  O   UNL     1       8.110   5.577  14.211  0.00  0.00    +0.000 OA
ATOM     19  C   UNL     1       8.312   5.751  12.857  0.00  0.00    +0.000 C 
ENDBRANCH   6  18
TORSDOF 3
ENDMDL
MODEL 6
REMARK VINA RESULT:      -5.7      1.673      2.025
REMARK  Name = 
REMARK  8 active torsions:
REMARK  status: ('A' for Active; 'I' for Inactive)
REMARK    1  A    between atoms: C_1  and  O_2
REMARK    2  A    between atoms: O_2  and  C_3
REMARK    3  A    between atoms: C_7  and  O_8
REMARK    4  A    between atoms: C_9  and  O_10
REMARK    5  A    between atoms: O_10  and  C_11
REMARK    6  A    between atoms: C_12  and  C_13
REMARK    7  A    between atoms: N_14  and  C_15
REMARK    8  A    between atoms: N_14  and  C_16
REMARK                            x       y       z     vdW  Elec       q    Type
REMARK                         _______ _______ _______ _____ _____    ______ ____
ROOT
ATOM      1  C   UNL     1       5.786   6.175  17.439  0.00  0.00    +0.000 A 
ATOM      2  C   UNL     1       4.399   6.304  17.264  0.00  0.00    +0.000 A 
ATOM      3  C   UNL     1       3.507   5.376  17.801  0.00  0.00    +0.000 A 
ATOM      4  C   UNL     1       3.986   4.285  18.563  0.00  0.00    +0.000 A 
ATOM      5  C   UNL     1       5.393   4.156  18.755  0.00  0.00    +0.000 A 
ATOM      6  C   UNL     1       6.286   5.088  18.199  0.00  0.00    +0.000 A 
ATOM      7  C   UNL     1       3.003   3.270  19.164  0.00  0.00    +0.000 C 
ATOM      8  C   UNL     1       3.133   1.954  18.345  0.00  0.00    +0.000 C 
ATOM      9  N   UNL     1       1.593   3.811  19.256  0.00  0.00    +0.000 N 
ATOM     10  C   UNL     1       1.517   4.828  20.343  0.00  0.00    +0.000 C 
ATOM     11  C   UNL     1       0.621   2.742  19.611  0.00  0.00    +0.000 C 
ATOM     12  C   UNL     1       1.179   4.402  17.958  0.00  0.00    +0.000 C 
ATOM     13  C   UNL     1       2.038   5.601  17.553  0.00  0.00    +0.000 C 
ENDROOT
BRANCH   1  15
ATOM     14  C   UNL     1       7.294   8.091  17.563  0.00  0.00    +0.000 C 
ATOM     15  O   UNL     1       6.646   7.074  16.895  0.00  0.00    +0.000 OA
ENDBRANCH   1  15
BRANCH   5  16
ATOM     16  O   UNL     1       5.930   3.153  19.490  0.00  0.00    +0.000 OA
ATOM     17  H   UNL     1       6.651   3.248  20.124  0.00  0.00    +0.000 HD
ENDBRANCH   5  16
BRANCH   6  18
ATOM     18  O   UNL     1       7.615   4.890  18.439  0.00  0.00    +0.000 OA
ATOM     19  C   UNL     1       8.378   5.392  19.474  0.00  0.00    +0.000 C 
ENDBRANCH   6  18
TORSDOF 3
ENDMDL
MODEL 7
REMARK VINA RESULT:      -5.6      1.572      1.708
REMARK  Name = 
REMARK  8 active torsions:
REMARK  status: ('A' for Active; 'I' for Inactive)
REMARK    1  A    between atoms: C_1  and  O_2
REMARK    2  A    between atoms: O_2  and  C_3
REMARK    3  A    between atoms: C_7  and  O_8
REMARK    4  A    between atoms: C_9  and  O_10
REMARK    5  A    between atoms: O_10  and  C_11
REMARK    6  A    between atoms: C_12  and  C_13
REMARK    7  A    between atoms: N_14  and  C_15
REMARK    8  A    between atoms: N_14  and  C_16
REMARK                            x       y       z     vdW  Elec       q    Type
REMARK                         _______ _______ _______ _____ _____    ______ ____
ROOT
ATOM      1  C   UNL     1       6.198   4.860  16.257  0.00  0.00    +0.000 A 
ATOM      2  C   UNL     1       5.466   3.693  16.530  0.00  0.00    +0.000 A 
ATOM      3  C   UNL     1       4.365   3.707  17.387  0.00  0.00    +0.000 A 
ATOM      4  C   UNL     1       3.944   4.916  17.987  0.00  0.00    +0.000 A 
ATOM      5  C   UNL     1       4.675   6.106  17.703  0.00  0.00    +0.000 A 
ATOM      6  C   UNL     1       5.792   6.082  16.850  0.00  0.00    +0.000 A 
ATOM      7  C   UNL     1       2.724   4.932  18.920  0.00  0.00    +0.000 C 
ATOM      8  C   UNL     1       3.251   5.118  20.372  0.00  0.00    +0.000 C 
ATOM      9  N   UNL     1       1.831   3.726  18.730  0.00  0.00    +0.000 N 
ATOM     10  C   UNL     1       1.094   3.847  17.440  0.00  0.00    +0.000 C 
ATOM     11  C   UNL     1       0.799   3.639  19.798  0.00  0.00    +0.000 C 
ATOM     12  C   UNL     1       2.634   2.477  18.759  0.00  0.00    +0.000 C 
ATOM     13  C   UNL     1       3.650   2.401  17.618  0.00  0.00    +0.000 C 
ENDROOT
BRANCH   1  15
ATOM     14  C   UNL     1       7.261   4.875  14.060  0.00  0.00    +0.000 C 
ATOM     15  O   UNL     1       7.280   4.831  15.438  0.00  0.00    +0.000 OA
ENDBRANCH   1  15
BRANCH   5  16
ATOM     16  O   UNL     1       4.322   7.307  18.220  0.00  0.00    +0.000 OA
ATOM     17  H   UNL     1       4.919   7.924  18.661  0.00  0.00    +0.000 HD
ENDBRANCH   5  16
BRANCH   6  18
ATOM     18  O   UNL     1       6.427   7.269  16.630  0.00  0.00    +0.000 OA
ATOM     19  C   UNL     1       7.501   7.800  17.315  0.00  0.00    +0.000 C 
ENDBRANCH   6  18
TORSDOF 3
ENDMDL
MODEL 8
REMARK VINA RESULT:      -5.6      2.591      5.344
REMARK  Name = 
REMARK  8 active torsions:
REMARK  status: ('A' for Active; 'I' for Inactive)
REMARK    1  A    between atoms: C_1  and  O_2
REMARK    2  A    between atoms: O_2  and  C_3
REMARK    3  A    between atoms: C_7  and  O_8
REMARK    4  A    between atoms: C_9  and  O_10
REMARK    5  A    between atoms: O_10  and  C_11
REMARK    6  A    between atoms: C_12  and  C_13
REMARK    7  A    between atoms: N_14  and  C_15
REMARK    8  A    between atoms: N_14  and  C_16
REMARK                            x       y       z     vdW  Elec       q    Type
REMARK                         _______ _______ _______ _____ _____    ______ ____
ROOT
ATOM      1  C   UNL     1       2.718   2.818  18.598  0.00  0.00    +0.000 A 
ATOM      2  C   UNL     1       3.632   2.814  17.533  0.00  0.00    +0.000 A 
ATOM      3  C   UNL     1       4.512   3.876  17.323  0.00  0.00    +0.000 A 
ATOM      4  C   UNL     1       4.517   4.982  18.205  0.00  0.00    +0.000 A 
ATOM      5  C   UNL     1       3.599   4.986  19.295  0.00  0.00    +0.000 A 
ATOM      6  C   UNL     1       2.706   3.918  19.491  0.00  0.00    +0.000 A 
ATOM      7  C   UNL     1       5.494   6.145  17.981  0.00  0.00    +0.000 C 
ATOM      8  C   UNL     1       4.667   7.355  17.459  0.00  0.00    +0.000 C 
ATOM      9  N   UNL     1       6.662   5.761  17.099  0.00  0.00    +0.000 N 
ATOM     10  C   UNL     1       7.587   4.869  17.854  0.00  0.00    +0.000 C 
ATOM     11  C   UNL     1       7.459   6.952  16.701  0.00  0.00    +0.000 C 
ATOM     12  C   UNL     1       6.181   5.091  15.865  0.00  0.00    +0.000 C 
ATOM     13  C   UNL     1       5.452   3.778  16.150  0.00  0.00    +0.000 C 
ENDROOT
BRANCH   1  15
ATOM     14  C   UNL     1       0.477   1.854  18.699  0.00  0.00    +0.000 C 
ATOM     15  O   UNL     1       1.852   1.788  18.780  0.00  0.00    +0.000 OA
ENDBRANCH   1  15
BRANCH   5  16
ATOM     16  O   UNL     1       3.557   5.997  20.196  0.00  0.00    +0.000 OA
ATOM     17  H   UNL     1       2.861   6.662  20.257  0.00  0.00    +0.000 HD
ENDBRANCH   5  16
BRANCH   6  18
ATOM     18  O   UNL     1       1.868   4.003  20.565  0.00  0.00    +0.000 OA
ATOM     19  C   UNL     1       1.960   3.341  21.773  0.00  0.00    +0.000 C 
ENDBRANCH   6  18
TORSDOF 3
ENDMDL
MODEL 9
REMARK VINA RESULT:      -5.2      5.983      7.752
REMARK  Name = 
REMARK  8 active torsions:
REMARK  status: ('A' for Active; 'I' for Inactive)
REMARK    1  A    between atoms: C_1  and  O_2
REMARK    2  A    between atoms: O_2  and  C_3
REMARK    3  A    between atoms: C_7  and  O_8
REMARK    4  A    between atoms: C_9  and  O_10
REMARK    5  A    between atoms: O_10  and  C_11
REMARK    6  A    between atoms: C_12  and  C_13
REMARK    7  A    between atoms: N_14  and  C_15
REMARK    8  A    between atoms: N_14  and  C_16
REMARK                            x       y       z     vdW  Elec       q    Type
REMARK                         _______ _______ _______ _____ _____    ______ ____
ROOT
ATOM      1  C   UNL     1       1.919   7.410  20.113  0.00  0.00    +0.000 A 
ATOM      2  C   UNL     1       1.267   8.251  21.029  0.00  0.00    +0.000 A 
ATOM      3  C   UNL     1       0.876   9.544  20.680  0.00  0.00    +0.000 A 
ATOM      4  C   UNL     1       1.110  10.032  19.374  0.00  0.00    +0.000 A 
ATOM      5  C   UNL     1       1.761   9.178  18.436  0.00  0.00    +0.000 A 
ATOM      6  C   UNL     1       2.164   7.882  18.799  0.00  0.00    +0.000 A 
ATOM      7  C   UNL     1       0.668  11.451  18.988  0.00  0.00    +0.000 C 
ATOM      8  C   UNL     1       1.951  12.324  18.875  0.00  0.00    +0.000 C 
ATOM      9  N   UNL     1      -0.384  12.007  19.921  0.00  0.00    +0.000 N 
ATOM     10  C   UNL     1      -1.684  11.321  19.675  0.00  0.00    +0.000 C 
ATOM     11  C   UNL     1      -0.620  13.455  19.678  0.00  0.00    +0.000 C 
ATOM     12  C   UNL     1       0.036  11.837  21.335  0.00  0.00    +0.000 C 
ATOM     13  C   UNL     1       0.186  10.368  21.736  0.00  0.00    +0.000 C 
ENDROOT
BRANCH   1  15
ATOM     14  C   UNL     1       1.513   5.040  20.534  0.00  0.00    +0.000 C 
ATOM     15  O   UNL     1       2.313   6.161  20.469  0.00  0.00    +0.000 OA
ENDBRANCH   1  15
BRANCH   5  16
ATOM     16  O   UNL     1       2.001   9.563  17.160  0.00  0.00    +0.000 OA
ATOM     17  H   UNL     1       1.613  10.332  16.725  0.00  0.00    +0.000 HD
ENDBRANCH   5  16
BRANCH   6  18
ATOM     18  O   UNL     1       2.774   7.132  17.835  0.00  0.00    +0.000 OA
ATOM     19  C   UNL     1       4.123   6.888  17.672  0.00  0.00    +0.000 C 
ENDBRANCH   6  18
TORSDOF 3
ENDMDL
