MODEL 1
REMARK VINA RESULT:      -7.4      0.000      0.000
REMARK  Name = 
REMARK  4 active torsions:
REMARK  status: ('A' for Active; 'I' for Inactive)
REMARK    1  A    between atoms: C_1  and  C_2
REMARK    2  A    between atoms: C_2  and  C_3
REMARK    3  A    between atoms: N_5  and  C_6
REMARK    4  A    between atoms: C_10  and  C_11
REMARK                            x       y       z     vdW  Elec       q    Type
REMARK                         _______ _______ _______ _____ _____    ______ ____
ROOT
ATOM      1  C   UNL     1       3.891   5.997  17.284  0.00  0.00    +0.000 C 
ATOM      2  C   UNL     1       4.006   7.527  17.187  0.00  0.00    +0.000 C 
ATOM      3  C   UNL     1       2.827   8.109  17.970  0.00  0.00    +0.000 C 
ATOM      4  C   UNL     1       2.566   7.048  19.001  0.00  0.00    +0.000 A 
ATOM      5  C   UNL     1       1.815   7.120  20.180  0.00  0.00    +0.000 A 
ATOM      6  C   UNL     1       1.729   5.900  20.868  0.00  0.00    +0.000 A 
ATOM      7  N   UNL     1       2.290   4.716  20.488  0.00  0.00    +0.000 NA
ATOM      8  C   UNL     1       2.993   4.709  19.339  0.00  0.00    +0.000 A 
ATOM      9  C   UNL     1       3.169   5.848  18.589  0.00  0.00    +0.000 A 
ENDROOT
BRANCH   5  10
ATOM     10  C   UNL     1       1.173   8.352  20.700  0.00  0.00    +0.000 A 
ATOM     11  C   UNL     1       0.839   9.423  19.844  0.00  0.00    +0.000 A 
ATOM     12  C   UNL     1       0.210  10.585  20.317  0.00  0.00    +0.000 A 
ATOM     13  C   UNL     1      -0.122  10.693  21.663  0.00  0.00    +0.000 A 
ATOM     14 CL   UNL     1      -0.925  12.102  22.236  0.00  0.00    +0.000 Cl
ATOM     15  C   UNL     1       0.202   9.656  22.527  0.00  0.00    +0.000 A 
ATOM     16  F   UNL     1      -0.113   9.722  23.829  0.00  0.00    +0.000 F 
ATOM     17  C   UNL     1       0.860   8.517  22.060  0.00  0.00    +0.000 A 
ENDBRANCH   5  10
BRANCH   1  20
ATOM     18  C   UNL     1       5.863   5.070  16.116  0.00  0.00    +0.000 C 
ATOM     19  O   UNL     1       5.408   5.286  15.001  0.00  0.00    +0.000 OA
ATOM     20  N   UNL     1       5.205   5.392  17.281  0.00  0.00    +0.000 N 
ATOM     21  H   UNL     1       5.555   5.014  18.152  0.00  0.00    +0.000 HD
BRANCH  18  23
ATOM     22  C   UNL     1       7.689   4.633  17.804  0.00  0.00    +0.000 C 
ATOM     23  C   UNL     1       7.217   4.436  16.375  0.00  0.00    +0.000 C 
ENDBRANCH  18  23
ENDBRANCH   1  20
TORSDOF 3
ENDMDL
MODEL 2
REMARK VINA RESULT:      -7.3      2.461      3.552
REMARK  Name = 
REMARK  4 active torsions:
REMARK  status: ('A' for Active; 'I' for Inactive)
REMARK    1  A    between atoms: C_1  and  C_2
REMARK    2  A    between atoms: C_2  and  C_3
REMARK    3  A    between atoms: N_5  and  C_6
REMARK    4  A    between atoms: C_10  and  C_11
REMARK                            x       y       z     vdW  Elec       q    Type
REMARK                         _______ _______ _______ _____ _____    ______ ____
ROOT
ATOM      1  C   UNL     1       3.017   5.631  19.781  0.00  0.00    +0.000 C 
ATOM      2  C   UNL     1       1.822   5.666  20.749  0.00  0.00    +0.000 C 
ATOM      3  C   UNL     1       1.433   7.136  20.916  0.00  0.00    +0.000 C 
ATOM      4  C   UNL     1       1.857   7.737  19.606  0.00  0.00    +0.000 A 
ATOM      5  C   UNL     1       1.508   8.967  19.038  0.00  0.00    +0.000 A 
ATOM      6  C   UNL     1       2.159   9.231  17.822  0.00  0.00    +0.000 A 
ATOM      7  N   UNL     1       3.058   8.420  17.194  0.00  0.00    +0.000 NA
ATOM      8  C   UNL     1       3.359   7.253  17.796  0.00  0.00    +0.000 A 
ATOM      9  C   UNL     1       2.768   6.872  18.977  0.00  0.00    +0.000 A 
ENDROOT
BRANCH   5  10
ATOM     10  C   UNL     1       0.534   9.923  19.620  0.00  0.00    +0.000 A 
ATOM     11  C   UNL     1       0.747  10.508  20.887  0.00  0.00    +0.000 A 
ATOM     12  C   UNL     1      -0.154  11.430  21.440  0.00  0.00    +0.000 A 
ATOM     13  C   UNL     1      -1.285  11.808  20.726  0.00  0.00    +0.000 A 
ATOM     14 CL   UNL     1      -2.370  12.966  21.389  0.00  0.00    +0.000 Cl
ATOM     15  C   UNL     1      -1.521  11.240  19.480  0.00  0.00    +0.000 A 
ATOM     16  F   UNL     1      -2.597  11.590  18.759  0.00  0.00    +0.000 F 
ATOM     17  C   UNL     1      -0.642  10.297  18.948  0.00  0.00    +0.000 A 
ENDBRANCH   5  10
BRANCH   1  20
ATOM     18  C   UNL     1       4.100   3.622  18.832  0.00  0.00    +0.000 C 
ATOM     19  O   UNL     1       5.181   3.856  19.356  0.00  0.00    +0.000 OA
ATOM     20  N   UNL     1       2.990   4.420  18.992  0.00  0.00    +0.000 N 
ATOM     21  H   UNL     1       2.196   4.268  18.383  0.00  0.00    +0.000 HD
BRANCH  18  23
ATOM     22  C   UNL     1       2.340   2.188  17.727  0.00  0.00    +0.000 C 
ATOM     23  C   UNL     1       3.824   2.418  17.951  0.00  0.00    +0.000 C 
ENDBRANCH  18  23
ENDBRANCH   1  20
TORSDOF 3
ENDMDL
MODEL 3
REMARK VINA RESULT:      -7.2      2.173      3.223
REMARK  Name = 
REMARK  4 active torsions:
REMARK  status: ('A' for Active; 'I' for Inactive)
REMARK    1  A    between atoms: C_1  and  C_2
REMARK    2  A    between atoms: C_2  and  C_3
REMARK    3  A    between atoms: N_5  and  C_6
REMARK    4  A    between atoms: C_10  and  C_11
REMARK                            x       y       z     vdW  Elec       q    Type
REMARK                         _______ _______ _______ _____ _____    ______ ____
ROOT
ATOM      1  C   UNL     1       3.044   5.453  19.882  0.00  0.00    +0.000 C 
ATOM      2  C   UNL     1       1.820   5.539  20.809  0.00  0.00    +0.000 C 
ATOM      3  C   UNL     1       1.449   7.020  20.912  0.00  0.00    +0.000 C 
ATOM      4  C   UNL     1       1.922   7.567  19.596  0.00  0.00    +0.000 A 
ATOM      5  C   UNL     1       1.610   8.781  18.974  0.00  0.00    +0.000 A 
ATOM      6  C   UNL     1       2.303   8.992  17.771  0.00  0.00    +0.000 A 
ATOM      7  N   UNL     1       3.209   8.147  17.201  0.00  0.00    +0.000 NA
ATOM      8  C   UNL     1       3.473   6.998  17.852  0.00  0.00    +0.000 A 
ATOM      9  C   UNL     1       2.840   6.667  19.027  0.00  0.00    +0.000 A 
ENDROOT
BRANCH   5  10
ATOM     10  C   UNL     1       0.633   9.771  19.491  0.00  0.00    +0.000 A 
ATOM     11  C   UNL     1      -0.395  10.284  18.671  0.00  0.00    +0.000 A 
ATOM     12  C   UNL     1      -1.340  11.203  19.153  0.00  0.00    +0.000 A 
ATOM     13  C   UNL     1      -1.291  11.615  20.480  0.00  0.00    +0.000 A 
ATOM     14 CL   UNL     1      -2.471  12.713  21.080  0.00  0.00    +0.000 Cl
ATOM     15  C   UNL     1      -0.285  11.130  21.304  0.00  0.00    +0.000 A 
ATOM     16  F   UNL     1      -0.214  11.498  22.593  0.00  0.00    +0.000 F 
ATOM     17  C   UNL     1       0.675  10.244  20.814  0.00  0.00    +0.000 A 
ENDBRANCH   5  10
BRANCH   1  20
ATOM     18  C   UNL     1       4.156   3.459  18.932  0.00  0.00    +0.000 C 
ATOM     19  O   UNL     1       5.255   3.757  19.381  0.00  0.00    +0.000 OA
ATOM     20  N   UNL     1       3.023   4.215  19.135  0.00  0.00    +0.000 N 
ATOM     21  H   UNL     1       2.202   4.008  18.581  0.00  0.00    +0.000 HD
BRANCH  18  23
ATOM     22  C   UNL     1       2.422   2.091  17.710  0.00  0.00    +0.000 C 
ATOM     23  C   UNL     1       3.881   2.215  18.110  0.00  0.00    +0.000 C 
ENDBRANCH  18  23
ENDBRANCH   1  20
TORSDOF 3
ENDMDL
MODEL 4
REMARK VINA RESULT:      -7.2      2.452      3.696
REMARK  Name = 
REMARK  4 active torsions:
REMARK  status: ('A' for Active; 'I' for Inactive)
REMARK    1  A    between atoms: C_1  and  C_2
REMARK    2  A    between atoms: C_2  and  C_3
REMARK    3  A    between atoms: N_5  and  C_6
REMARK    4  A    between atoms: C_10  and  C_11
REMARK                            x       y       z     vdW  Elec       q    Type
REMARK                         _______ _______ _______ _____ _____    ______ ____
ROOT
ATOM      1  C   UNL     1       2.724   6.434  19.550  0.00  0.00    +0.000 C 
ATOM      2  C   UNL     1       1.749   6.178  20.710  0.00  0.00    +0.000 C 
ATOM      3  C   UNL     1       1.290   7.549  21.212  0.00  0.00    +0.000 C 
ATOM      4  C   UNL     1       1.396   8.400  19.979  0.00  0.00    +0.000 A 
ATOM      5  C   UNL     1       0.848   9.660  19.718  0.00  0.00    +0.000 A 
ATOM      6  C   UNL     1       1.220  10.191  18.473  0.00  0.00    +0.000 A 
ATOM      7  N   UNL     1       2.034   9.598  17.553  0.00  0.00    +0.000 NA
ATOM      8  C   UNL     1       2.538   8.388  17.865  0.00  0.00    +0.000 A 
ATOM      9  C   UNL     1       2.227   7.755  19.045  0.00  0.00    +0.000 A 
ENDROOT
BRANCH   5  10
ATOM     10  C   UNL     1      -0.060  10.394  20.635  0.00  0.00    +0.000 A 
ATOM     11  C   UNL     1      -0.024  10.180  22.029  0.00  0.00    +0.000 A 
ATOM     12  C   UNL     1      -0.860  10.884  22.910  0.00  0.00    +0.000 A 
ATOM     13  C   UNL     1      -1.742  11.838  22.415  0.00  0.00    +0.000 A 
ATOM     14 CL   UNL     1      -2.741  12.725  23.498  0.00  0.00    +0.000 Cl
ATOM     15  C   UNL     1      -1.801  12.061  21.046  0.00  0.00    +0.000 A 
ATOM     16  F   UNL     1      -2.632  12.982  20.535  0.00  0.00    +0.000 F 
ATOM     17  C   UNL     1      -0.994  11.335  20.169  0.00  0.00    +0.000 A 
ENDBRANCH   5  10
BRANCH   1  20
ATOM     18  C   UNL     1       3.491   4.298  18.570  0.00  0.00    +0.000 C 
ATOM     19  O   UNL     1       4.377   4.140  19.400  0.00  0.00    +0.000 OA
ATOM     20  N   UNL     1       2.632   5.374  18.571  0.00  0.00    +0.000 N 
ATOM     21  H   UNL     1       2.057   5.531  17.753  0.00  0.00    +0.000 HD
BRANCH  18  23
ATOM     22  C   UNL     1       3.291   1.878  17.877  0.00  0.00    +0.000 C 
ATOM     23  C   UNL     1       3.201   3.329  17.439  0.00  0.00    +0.000 C 
ENDBRANCH  18  23
ENDBRANCH   1  20
TORSDOF 3
ENDMDL
MODEL 5
REMARK VINA RESULT:      -7.1      1.004      1.430
REMARK  Name = 
REMARK  4 active torsions:
REMARK  status: ('A' for Active; 'I' for Inactive)
REMARK    1  A    between atoms: C_1  and  C_2
REMARK    2  A    between atoms: C_2  and  C_3
REMARK    3  A    between atoms: N_5  and  C_6
REMARK    4  A    between atoms: C_10  and  C_11
REMARK                            x       y       z     vdW  Elec       q    Type
REMARK                         _______ _______ _______ _____ _____    ______ ____
ROOT
ATOM      1  C   UNL     1       3.852   5.989  17.312  0.00  0.00    +0.000 C 
ATOM      2  C   UNL     1       3.972   7.518  17.211  0.00  0.00    +0.000 C 
ATOM      3  C   UNL     1       2.797   8.106  17.994  0.00  0.00    +0.000 C 
ATOM      4  C   UNL     1       2.534   7.050  19.029  0.00  0.00    +0.000 A 
ATOM      5  C   UNL     1       1.787   7.128  20.210  0.00  0.00    +0.000 A 
ATOM      6  C   UNL     1       1.698   5.910  20.902  0.00  0.00    +0.000 A 
ATOM      7  N   UNL     1       2.253   4.723  20.524  0.00  0.00    +0.000 NA
ATOM      8  C   UNL     1       2.953   4.710  19.373  0.00  0.00    +0.000 A 
ATOM      9  C   UNL     1       3.132   5.846  18.619  0.00  0.00    +0.000 A 
ENDROOT
BRANCH   5  10
ATOM     10  C   UNL     1       1.150   8.364  20.728  0.00  0.00    +0.000 A 
ATOM     11  C   UNL     1       0.959   8.566  22.111  0.00  0.00    +0.000 A 
ATOM     12  C   UNL     1       0.379   9.740  22.617  0.00  0.00    +0.000 A 
ATOM     13  C   UNL     1      -0.006  10.753  21.746  0.00  0.00    +0.000 A 
ATOM     14 CL   UNL     1      -0.684  12.206  22.369  0.00  0.00    +0.000 Cl
ATOM     15  C   UNL     1       0.165  10.575  20.380  0.00  0.00    +0.000 A 
ATOM     16  F   UNL     1      -0.185  11.536  19.512  0.00  0.00    +0.000 F 
ATOM     17  C   UNL     1       0.709   9.393  19.877  0.00  0.00    +0.000 A 
ENDBRANCH   5  10
BRANCH   1  20
ATOM     18  C   UNL     1       5.841   5.099  16.143  0.00  0.00    +0.000 C 
ATOM     19  O   UNL     1       5.405   5.362  15.029  0.00  0.00    +0.000 OA
ATOM     20  N   UNL     1       5.163   5.378  17.308  0.00  0.00    +0.000 N 
ATOM     21  H   UNL     1       5.497   4.965  18.170  0.00  0.00    +0.000 HD
BRANCH  18  23
ATOM     22  C   UNL     1       7.669   4.650  17.825  0.00  0.00    +0.000 C 
ATOM     23  C   UNL     1       7.187   4.450  16.399  0.00  0.00    +0.000 C 
ENDBRANCH  18  23
ENDBRANCH   1  20
TORSDOF 3
ENDMDL
MODEL 6
REMARK VINA RESULT:      -7.1      4.525      7.631
REMARK  Name = 
REMARK  4 active torsions:
REMARK  status: ('A' for Active; 'I' for Inactive)
REMARK    1  A    between atoms: C_1  and  C_2
REMARK    2  A    between atoms: C_2  and  C_3
REMARK    3  A    between atoms: N_5  and  C_6
REMARK    4  A    between atoms: C_10  and  C_11
REMARK                            x       y       z     vdW  Elec       q    Type
REMARK                         _______ _______ _______ _____ _____    ______ ____
ROOT
ATOM      1  C   UNL     1       0.432   9.991  20.822  0.00  0.00    +0.000 C 
ATOM      2  C   UNL     1       0.865   9.030  21.941  0.00  0.00    +0.000 C 
ATOM      3  C   UNL     1       1.194   7.694  21.272  0.00  0.00    +0.000 C 
ATOM      4  C   UNL     1       1.633   8.116  19.899  0.00  0.00    +0.000 A 
ATOM      5  C   UNL     1       2.330   7.390  18.926  0.00  0.00    +0.000 A 
ATOM      6  C   UNL     1       2.505   8.089  17.721  0.00  0.00    +0.000 A 
ATOM      7  N   UNL     1       2.066   9.351  17.447  0.00  0.00    +0.000 NA
ATOM      8  C   UNL     1       1.394   9.994  18.421  0.00  0.00    +0.000 A 
ATOM      9  C   UNL     1       1.181   9.424  19.654  0.00  0.00    +0.000 A 
ENDROOT
BRANCH   5  10
ATOM     10  C   UNL     1       2.866   6.020  19.115  0.00  0.00    +0.000 A 
ATOM     11  C   UNL     1       4.255   5.775  19.154  0.00  0.00    +0.000 A 
ATOM     12  C   UNL     1       4.777   4.488  19.355  0.00  0.00    +0.000 A 
ATOM     13  C   UNL     1       3.916   3.413  19.544  0.00  0.00    +0.000 A 
ATOM     14 CL   UNL     1       4.555   1.841  19.826  0.00  0.00    +0.000 Cl
ATOM     15  C   UNL     1       2.544   3.627  19.502  0.00  0.00    +0.000 A 
ATOM     16  F   UNL     1       1.685   2.615  19.691  0.00  0.00    +0.000 F 
ATOM     17  C   UNL     1       2.028   4.902  19.267  0.00  0.00    +0.000 A 
ENDBRANCH   5  10
BRANCH   1  20
ATOM     18  C   UNL     1      -0.019  12.420  20.931  0.00  0.00    +0.000 C 
ATOM     19  O   UNL     1      -1.150  12.313  20.473  0.00  0.00    +0.000 OA
ATOM     20  N   UNL     1       0.816  11.347  21.146  0.00  0.00    +0.000 N 
ATOM     21  H   UNL     1       1.792  11.530  21.345  0.00  0.00    +0.000 HD
BRANCH  18  23
ATOM     22  C   UNL     1      -0.168  14.445  22.431  0.00  0.00    +0.000 C 
ATOM     23  C   UNL     1       0.613  13.736  21.339  0.00  0.00    +0.000 C 
ENDBRANCH  18  23
ENDBRANCH   1  20
TORSDOF 3
ENDMDL
MODEL 7
REMARK VINA RESULT:      -7.1      4.715      7.851
REMARK  Name = 
REMARK  4 active torsions:
REMARK  status: ('A' for Active; 'I' for Inactive)
REMARK    1  A    between atoms: C_1  and  C_2
REMARK    2  A    between atoms: C_2  and  C_3
REMARK    3  A    between atoms: N_5  and  C_6
REMARK    4  A    between atoms: C_10  and  C_11
REMARK                            x       y       z     vdW  Elec       q    Type
REMARK                         _______ _______ _______ _____ _____    ______ ____
ROOT
ATOM      1  C   UNL     1       0.229  10.121  20.803  0.00  0.00    +0.000 C 
ATOM      2  C   UNL     1       0.638   9.197  21.962  0.00  0.00    +0.000 C 
ATOM      3  C   UNL     1       1.034   7.856  21.339  0.00  0.00    +0.000 C 
ATOM      4  C   UNL     1       1.523   8.261  19.978  0.00  0.00    +0.000 A 
ATOM      5  C   UNL     1       2.282   7.535  19.054  0.00  0.00    +0.000 A 
ATOM      6  C   UNL     1       2.493   8.212  17.842  0.00  0.00    +0.000 A 
ATOM      7  N   UNL     1       2.032   9.455  17.520  0.00  0.00    +0.000 NA
ATOM      8  C   UNL     1       1.299  10.100  18.448  0.00  0.00    +0.000 A 
ATOM      9  C   UNL     1       1.046   9.550  19.683  0.00  0.00    +0.000 A 
ENDROOT
BRANCH   5  10
ATOM     10  C   UNL     1       2.847   6.185  19.298  0.00  0.00    +0.000 A 
ATOM     11  C   UNL     1       2.060   5.147  19.838  0.00  0.00    +0.000 A 
ATOM     12  C   UNL     1       2.574   3.859  20.053  0.00  0.00    +0.000 A 
ATOM     13  C   UNL     1       3.891   3.573  19.709  0.00  0.00    +0.000 A 
ATOM     14 CL   UNL     1       4.510   1.985  19.939  0.00  0.00    +0.000 Cl
ATOM     15  C   UNL     1       4.688   4.580  19.183  0.00  0.00    +0.000 A 
ATOM     16  F   UNL     1       5.959   4.336  18.830  0.00  0.00    +0.000 F 
ATOM     17  C   UNL     1       4.185   5.869  19.004  0.00  0.00    +0.000 A 
ENDBRANCH   5  10
BRANCH   1  20
ATOM     18  C   UNL     1      -0.378  12.391  21.571  0.00  0.00    +0.000 C 
ATOM     19  O   UNL     1      -1.550  12.099  21.771  0.00  0.00    +0.000 OA
ATOM     20  N   UNL     1       0.560  11.494  21.113  0.00  0.00    +0.000 N 
ATOM     21  H   UNL     1       1.452  11.851  20.794  0.00  0.00    +0.000 HD
BRANCH  18  23
ATOM     22  C   UNL     1      -0.582  14.570  22.829  0.00  0.00    +0.000 C 
ATOM     23  C   UNL     1       0.209  13.768  21.811  0.00  0.00    +0.000 C 
ENDBRANCH  18  23
ENDBRANCH   1  20
TORSDOF 3
ENDMDL
MODEL 8
REMARK VINA RESULT:      -7.1      2.038      3.289
REMARK  Name = 
REMARK  4 active torsions:
REMARK  status: ('A' for Active; 'I' for Inactive)
REMARK    1  A    between atoms: C_1  and  C_2
REMARK    2  A    between atoms: C_2  and  C_3
REMARK    3  A    between atoms: N_5  and  C_6
REMARK    4  A    between atoms: C_10  and  C_11
REMARK                            x       y       z     vdW  Elec       q    Type
REMARK                         _______ _______ _______ _____ _____    ______ ____
ROOT
ATOM      1  C   UNL     1       2.820   6.260  19.491  0.00  0.00    +0.000 C 
ATOM      2  C   UNL     1       1.776   6.083  20.607  0.00  0.00    +0.000 C 
ATOM      3  C   UNL     1       1.338   7.487  21.028  0.00  0.00    +0.000 C 
ATOM      4  C   UNL     1       1.537   8.282  19.769  0.00  0.00    +0.000 A 
ATOM      5  C   UNL     1       1.046   9.547  19.429  0.00  0.00    +0.000 A 
ATOM      6  C   UNL     1       1.501  10.013  18.185  0.00  0.00    +0.000 A 
ATOM      7  N   UNL     1       2.342   9.357  17.335  0.00  0.00    +0.000 NA
ATOM      8  C   UNL     1       2.788   8.146  17.722  0.00  0.00    +0.000 A 
ATOM      9  C   UNL     1       2.394   7.573  18.908  0.00  0.00    +0.000 A 
ENDROOT
BRANCH   5  10
ATOM     10  C   UNL     1       0.117  10.346  20.265  0.00  0.00    +0.000 A 
ATOM     11  C   UNL     1      -0.710  11.340  19.698  0.00  0.00    +0.000 A 
ATOM     12  C   UNL     1      -1.611  12.088  20.472  0.00  0.00    +0.000 A 
ATOM     13  C   UNL     1      -1.721  11.842  21.837  0.00  0.00    +0.000 A 
ATOM     14 CL   UNL     1      -2.850  12.734  22.779  0.00  0.00    +0.000 Cl
ATOM     15  C   UNL     1      -0.913  10.875  22.419  0.00  0.00    +0.000 A 
ATOM     16  F   UNL     1      -1.000  10.605  23.730  0.00  0.00    +0.000 F 
ATOM     17  C   UNL     1       0.007  10.158  21.654  0.00  0.00    +0.000 A 
ENDBRANCH   5  10
BRANCH   1  20
ATOM     18  C   UNL     1       3.792   4.293  18.351  0.00  0.00    +0.000 C 
ATOM     19  O   UNL     1       4.852   4.362  18.958  0.00  0.00    +0.000 OA
ATOM     20  N   UNL     1       2.744   5.163  18.552  0.00  0.00    +0.000 N 
ATOM     21  H   UNL     1       1.981   5.160  17.886  0.00  0.00    +0.000 HD
BRANCH  18  23
ATOM     22  C   UNL     1       2.453   2.226  17.796  0.00  0.00    +0.000 C 
ATOM     23  C   UNL     1       3.474   3.238  17.309  0.00  0.00    +0.000 C 
ENDBRANCH  18  23
ENDBRANCH   1  20
TORSDOF 3
ENDMDL
MODEL 9
REMARK VINA RESULT:      -6.9      2.350      3.656
REMARK  Name = 
REMARK  4 active torsions:
REMARK  status: ('A' for Active; 'I' for Inactive)
REMARK    1  A    between atoms: C_1  and  C_2
REMARK    2  A    between atoms: C_2  and  C_3
REMARK    3  A    between atoms: N_5  and  C_6
REMARK    4  A    between atoms: C_10  and  C_11
REMARK                            x       y       z     vdW  Elec       q    Type
REMARK                         _______ _______ _______ _____ _____    ______ ____
ROOT
ATOM      1  C   UNL     1       2.470   6.636  19.585  0.00  0.00    +0.000 C 
ATOM      2  C   UNL     1       1.641   6.561  20.878  0.00  0.00    +0.000 C 
ATOM      3  C   UNL     1       1.436   8.001  21.355  0.00  0.00    +0.000 C 
ATOM      4  C   UNL     1       1.476   8.778  20.070  0.00  0.00    +0.000 A 
ATOM      5  C   UNL     1       1.063  10.089  19.811  0.00  0.00    +0.000 A 
ATOM      6  C   UNL     1       1.322  10.513  18.498  0.00  0.00    +0.000 A 
ATOM      7  N   UNL     1       1.917   9.779  17.515  0.00  0.00    +0.000 NA
ATOM      8  C   UNL     1       2.301   8.526  17.828  0.00  0.00    +0.000 A 
ATOM      9  C   UNL     1       2.079   7.990  19.075  0.00  0.00    +0.000 A 
ENDROOT
BRANCH   5  10
ATOM     10  C   UNL     1       0.393  10.975  20.795  0.00  0.00    +0.000 A 
ATOM     11  C   UNL     1       0.609  12.370  20.792  0.00  0.00    +0.000 A 
ATOM     12  C   UNL     1      -0.035  13.223  21.702  0.00  0.00    +0.000 A 
ATOM     13  C   UNL     1      -0.932  12.700  22.627  0.00  0.00    +0.000 A 
ATOM     14 CL   UNL     1      -1.748  13.749  23.717  0.00  0.00    +0.000 Cl
ATOM     15  C   UNL     1      -1.155  11.329  22.654  0.00  0.00    +0.000 A 
ATOM     16  F   UNL     1      -2.022  10.792  23.526  0.00  0.00    +0.000 F 
ATOM     17  C   UNL     1      -0.487  10.480  21.772  0.00  0.00    +0.000 A 
ENDBRANCH   5  10
BRANCH   1  20
ATOM     18  C   UNL     1       2.958   4.510  18.421  0.00  0.00    +0.000 C 
ATOM     19  O   UNL     1       4.068   4.394  18.925  0.00  0.00    +0.000 OA
ATOM     20  N   UNL     1       2.108   5.558  18.692  0.00  0.00    +0.000 N 
ATOM     21  H   UNL     1       1.296   5.685  18.100  0.00  0.00    +0.000 HD
BRANCH  18  23
ATOM     22  C   UNL     1       2.736   2.082  17.768  0.00  0.00    +0.000 C 
ATOM     23  C   UNL     1       2.357   3.516  17.446  0.00  0.00    +0.000 C 
ENDBRANCH  18  23
ENDBRANCH   1  20
TORSDOF 3
ENDMDL
