MODEL 1
REMARK VINA RESULT:      -7.9      0.000      0.000
REMARK  Name = 
REMARK  10 active torsions:
REMARK  status: ('A' for Active; 'I' for Inactive)
REMARK    1  A    between atoms: C_1  and  C_2
REMARK    2  A    between atoms: C_6  and  C_7
REMARK    3  A    between atoms: N_8  and  C_9
REMARK    4  A    between atoms: C_9  and  C_10
REMARK    5  A    between atoms: C_10  and  O_11
REMARK    6  A    between atoms: C_10  and  C_12
REMARK    7  A    between atoms: C_12  and  N_13
REMARK    8  A    between atoms: N_13  and  C_14
REMARK    9  A    between atoms: C_14  and  C_15
REMARK   10  A    between atoms: C_14  and  C_21
REMARK                            x       y       z     vdW  Elec       q    Type
REMARK                         _______ _______ _______ _____ _____    ______ ____
ROOT
ATOM      1  N   UNL     1       2.540   7.225  18.520  0.00  0.00    +0.000 NA
ATOM      2  H   UNL     1       1.496   7.269  18.653  0.00  0.00    +0.000 HD
ENDROOT
BRANCH   1   3
ATOM      3  C   UNL     1       2.917   8.393  17.728  0.00  0.00    +0.000 C 
BRANCH   3   4
ATOM      4  C   UNL     1       1.835   9.482  17.893  0.00  0.00    +0.000 C 
BRANCH   4   5
ATOM      5  O   UNL     1       2.202  10.712  17.332  0.00  0.00    +0.000 OA
ATOM      6  H   UNL     1       2.751  10.568  16.520  0.00  0.00    +0.000 HD
ENDBRANCH   4   5
BRANCH   4   7
ATOM      7  C   UNL     1       1.325   9.623  19.361  0.00  0.00    +0.000 C 
BRANCH   7  15
ATOM      8  C   UNL     1      -2.235  10.544  18.372  0.00  0.00    +0.000 C 
ATOM      9  C   UNL     1      -0.733  10.752  18.653  0.00  0.00    +0.000 C 
ATOM     10  C   UNL     1      -0.433  12.202  19.117  0.00  0.00    +0.000 C 
ATOM     11  C   UNL     1      -0.907  12.451  20.550  0.00  0.00    +0.000 C 
ATOM     12  C   UNL     1      -0.276  11.427  21.472  0.00  0.00    +0.000 C 
ATOM     13  C   UNL     1      -0.642  10.001  20.997  0.00  0.00    +0.000 C 
ATOM     14  C   UNL     1      -0.227   8.998  22.074  0.00  0.00    +0.000 C 
ATOM     15  N   UNL     1      -0.154   9.729  19.599  0.00  0.00    +0.000 NA
ENDBRANCH   7  15
ENDBRANCH   4   7
ENDBRANCH   3   4
ENDBRANCH   1   3
BRANCH   1  16
ATOM     16  C   UNL     1       2.846   5.948  17.854  0.00  0.00    +0.000 C 
BRANCH  16  17
ATOM     17  C   UNL     1       4.357   5.753  17.749  0.00  0.00    +0.000 A 
ATOM     18  C   UNL     1       5.031   5.749  16.510  0.00  0.00    +0.000 A 
ATOM     19  C   UNL     1       6.406   5.517  16.450  0.00  0.00    +0.000 A 
ATOM     20  C   UNL     1       7.132   5.278  17.618  0.00  0.00    +0.000 A 
ATOM     21  C   UNL     1       6.481   5.271  18.852  0.00  0.00    +0.000 A 
ATOM     22  C   UNL     1       5.104   5.507  18.919  0.00  0.00    +0.000 A 
ENDBRANCH  16  17
BRANCH  16  23
ATOM     23  C   UNL     1       2.098   4.861  18.607  0.00  0.00    +0.000 A 
ATOM     24  C   UNL     1       1.827   5.025  19.978  0.00  0.00    +0.000 A 
ATOM     25  C   UNL     1       1.234   3.990  20.713  0.00  0.00    +0.000 A 
ATOM     26  C   UNL     1       0.911   2.784  20.088  0.00  0.00    +0.000 A 
ATOM     27  C   UNL     1       1.173   2.608  18.728  0.00  0.00    +0.000 A 
ATOM     28  C   UNL     1       1.765   3.636  17.993  0.00  0.00    +0.000 A 
ENDBRANCH  16  23
ENDBRANCH   1  16
TORSDOF 8
ENDMDL
MODEL 2
REMARK VINA RESULT:      -7.8      0.370      1.018
REMARK  Name = 
REMARK  10 active torsions:
REMARK  status: ('A' for Active; 'I' for Inactive)
REMARK    1  A    between atoms: C_1  and  C_2
REMARK    2  A    between atoms: C_6  and  C_7
REMARK    3  A    between atoms: N_8  and  C_9
REMARK    4  A    between atoms: C_9  and  C_10
REMARK    5  A    between atoms: C_10  and  O_11
REMARK    6  A    between atoms: C_10  and  C_12
REMARK    7  A    between atoms: C_12  and  N_13
REMARK    8  A    between atoms: N_13  and  C_14
REMARK    9  A    between atoms: C_14  and  C_15
REMARK   10  A    between atoms: C_14  and  C_21
REMARK                            x       y       z     vdW  Elec       q    Type
REMARK                         _______ _______ _______ _____ _____    ______ ____
ROOT
ATOM      1  N   UNL     1       2.510   7.123  18.571  0.00  0.00    +0.000 NA
ATOM      2  H   UNL     1       1.464   7.158  18.688  0.00  0.00    +0.000 HD
ENDROOT
BRANCH   1   3
ATOM      3  C   UNL     1       2.891   8.298  17.791  0.00  0.00    +0.000 C 
BRANCH   3   4
ATOM      4  C   UNL     1       1.796   9.376  17.940  0.00  0.00    +0.000 C 
BRANCH   4   5
ATOM      5  O   UNL     1       2.123  10.585  17.311  0.00  0.00    +0.000 OA
ATOM      6  H   UNL     1       2.712  10.416  16.532  0.00  0.00    +0.000 HD
ENDBRANCH   4   5
BRANCH   4   7
ATOM      7  C   UNL     1       1.330   9.579  19.416  0.00  0.00    +0.000 C 
BRANCH   7  15
ATOM      8  C   UNL     1      -2.051  11.190  18.729  0.00  0.00    +0.000 C 
ATOM      9  C   UNL     1      -0.543  11.116  19.048  0.00  0.00    +0.000 C 
ATOM     10  C   UNL     1      -0.073  12.338  19.881  0.00  0.00    +0.000 C 
ATOM     11  C   UNL     1      -0.554  12.258  21.331  0.00  0.00    +0.000 C 
ATOM     12  C   UNL     1      -0.088  10.951  21.942  0.00  0.00    +0.000 C 
ATOM     13  C   UNL     1      -0.620   9.764  21.105  0.00  0.00    +0.000 C 
ATOM     14  C   UNL     1      -0.370   8.465  21.872  0.00  0.00    +0.000 C 
ATOM     15  N   UNL     1      -0.129   9.812  19.682  0.00  0.00    +0.000 NA
ENDBRANCH   7  15
ENDBRANCH   4   7
ENDBRANCH   3   4
ENDBRANCH   1   3
BRANCH   1  16
ATOM     16  C   UNL     1       2.837   5.852  17.906  0.00  0.00    +0.000 C 
BRANCH  16  17
ATOM     17  C   UNL     1       4.351   5.663  17.838  0.00  0.00    +0.000 A 
ATOM     18  C   UNL     1       5.142   5.501  18.994  0.00  0.00    +0.000 A 
ATOM     19  C   UNL     1       6.529   5.380  18.895  0.00  0.00    +0.000 A 
ATOM     20  C   UNL     1       7.153   5.426  17.647  0.00  0.00    +0.000 A 
ATOM     21  C   UNL     1       6.388   5.592  16.493  0.00  0.00    +0.000 A 
ATOM     22  C   UNL     1       4.997   5.709  16.586  0.00  0.00    +0.000 A 
ENDBRANCH  16  17
BRANCH  16  23
ATOM     23  C   UNL     1       2.074   4.757  18.632  0.00  0.00    +0.000 A 
ATOM     24  C   UNL     1       1.785   4.901  20.002  0.00  0.00    +0.000 A 
ATOM     25  C   UNL     1       1.177   3.859  20.712  0.00  0.00    +0.000 A 
ATOM     26  C   UNL     1       0.857   2.664  20.064  0.00  0.00    +0.000 A 
ATOM     27  C   UNL     1       1.136   2.508  18.706  0.00  0.00    +0.000 A 
ATOM     28  C   UNL     1       1.743   3.545  17.995  0.00  0.00    +0.000 A 
ENDBRANCH  16  23
ENDBRANCH   1  16
TORSDOF 8
ENDMDL
MODEL 3
REMARK VINA RESULT:      -7.8      1.227      4.203
REMARK  Name = 
REMARK  10 active torsions:
REMARK  status: ('A' for Active; 'I' for Inactive)
REMARK    1  A    between atoms: C_1  and  C_2
REMARK    2  A    between atoms: C_6  and  C_7
REMARK    3  A    between atoms: N_8  and  C_9
REMARK    4  A    between atoms: C_9  and  C_10
REMARK    5  A    between atoms: C_10  and  O_11
REMARK    6  A    between atoms: C_10  and  C_12
REMARK    7  A    between atoms: C_12  and  N_13
REMARK    8  A    between atoms: N_13  and  C_14
REMARK    9  A    between atoms: C_14  and  C_15
REMARK   10  A    between atoms: C_14  and  C_21
REMARK                            x       y       z     vdW  Elec       q    Type
REMARK                         _______ _______ _______ _____ _____    ______ ____
ROOT
ATOM      1  N   UNL     1       2.724   7.440  18.115  0.00  0.00    +0.000 NA
ATOM      2  H   UNL     1       3.458   8.069  17.697  0.00  0.00    +0.000 HD
ENDROOT
BRANCH   1   3
ATOM      3  C   UNL     1       1.890   8.274  18.976  0.00  0.00    +0.000 C 
BRANCH   3   4
ATOM      4  C   UNL     1       1.127   9.293  18.102  0.00  0.00    +0.000 C 
BRANCH   4   5
ATOM      5  O   UNL     1       1.973  10.093  17.322  0.00  0.00    +0.000 OA
ATOM      6  H   UNL     1       2.496   9.530  16.697  0.00  0.00    +0.000 HD
ENDBRANCH   4   5
BRANCH   4   7
ATOM      7  C   UNL     1       0.084  10.132  18.904  0.00  0.00    +0.000 C 
BRANCH   7  15
ATOM      8  C   UNL     1      -0.211  13.919  18.637  0.00  0.00    +0.000 C 
ATOM      9  C   UNL     1      -0.284  12.524  19.292  0.00  0.00    +0.000 C 
ATOM     10  C   UNL     1      -1.372  12.466  20.396  0.00  0.00    +0.000 C 
ATOM     11  C   UNL     1      -2.783  12.448  19.805  0.00  0.00    +0.000 C 
ATOM     12  C   UNL     1      -2.905  11.287  18.837  0.00  0.00    +0.000 C 
ATOM     13  C   UNL     1      -1.832  11.414  17.731  0.00  0.00    +0.000 C 
ATOM     14  C   UNL     1      -2.133  10.398  16.629  0.00  0.00    +0.000 C 
ATOM     15  N   UNL     1      -0.436  11.402  18.295  0.00  0.00    +0.000 NA
ENDBRANCH   7  15
ENDBRANCH   4   7
ENDBRANCH   3   4
ENDBRANCH   1   3
BRANCH   1  16
ATOM     16  C   UNL     1       3.424   6.370  18.844  0.00  0.00    +0.000 C 
BRANCH  16  17
ATOM     17  C   UNL     1       2.469   5.215  19.139  0.00  0.00    +0.000 A 
ATOM     18  C   UNL     1       2.071   4.883  20.450  0.00  0.00    +0.000 A 
ATOM     19  C   UNL     1       1.236   3.789  20.684  0.00  0.00    +0.000 A 
ATOM     20  C   UNL     1       0.789   3.004  19.620  0.00  0.00    +0.000 A 
ATOM     21  C   UNL     1       1.178   3.313  18.316  0.00  0.00    +0.000 A 
ATOM     22  C   UNL     1       2.011   4.411  18.076  0.00  0.00    +0.000 A 
ENDBRANCH  16  17
BRANCH  16  23
ATOM     23  C   UNL     1       4.656   6.007  18.033  0.00  0.00    +0.000 A 
ATOM     24  C   UNL     1       4.716   6.349  16.669  0.00  0.00    +0.000 A 
ATOM     25  C   UNL     1       5.795   5.931  15.879  0.00  0.00    +0.000 A 
ATOM     26  C   UNL     1       6.818   5.166  16.441  0.00  0.00    +0.000 A 
ATOM     27  C   UNL     1       6.773   4.821  17.793  0.00  0.00    +0.000 A 
ATOM     28  C   UNL     1       5.698   5.235  18.583  0.00  0.00    +0.000 A 
ENDBRANCH  16  23
ENDBRANCH   1  16
TORSDOF 8
ENDMDL
MODEL 4
REMARK VINA RESULT:      -7.8      1.283      4.139
REMARK  Name = 
REMARK  10 active torsions:
REMARK  status: ('A' for Active; 'I' for Inactive)
REMARK    1  A    between atoms: C_1  and  C_2
REMARK    2  A    between atoms: C_6  and  C_7
REMARK    3  A    between atoms: N_8  and  C_9
REMARK    4  A    between atoms: C_9  and  C_10
REMARK    5  A    between atoms: C_10  and  O_11
REMARK    6  A    between atoms: C_10  and  C_12
REMARK    7  A    between atoms: C_12  and  N_13
REMARK    8  A    between atoms: N_13  and  C_14
REMARK    9  A    between atoms: C_14  and  C_15
REMARK   10  A    between atoms: C_14  and  C_21
REMARK                            x       y       z     vdW  Elec       q    Type
REMARK                         _______ _______ _______ _____ _____    ______ ____
ROOT
ATOM      1  N   UNL     1       2.408   7.295  18.182  0.00  0.00    +0.000 NA
ATOM      2  H   UNL     1       3.077   7.682  17.467  0.00  0.00    +0.000 HD
ENDROOT
BRANCH   1   3
ATOM      3  C   UNL     1       1.901   8.431  18.948  0.00  0.00    +0.000 C 
BRANCH   3   4
ATOM      4  C   UNL     1       1.157   9.389  17.993  0.00  0.00    +0.000 C 
BRANCH   4   5
ATOM      5  O   UNL     1       1.997  10.342  17.403  0.00  0.00    +0.000 OA
ATOM      6  H   UNL     1       1.820  11.238  17.787  0.00  0.00    +0.000 HD
ENDBRANCH   4   5
BRANCH   4   7
ATOM      7  C   UNL     1      -0.114  10.029  18.634  0.00  0.00    +0.000 C 
BRANCH   7  15
ATOM      8  C   UNL     1      -0.166  13.837  18.636  0.00  0.00    +0.000 C 
ATOM      9  C   UNL     1      -0.307  12.407  19.198  0.00  0.00    +0.000 C 
ATOM     10  C   UNL     1      -1.354  12.341  20.341  0.00  0.00    +0.000 C 
ATOM     11  C   UNL     1      -2.784  12.454  19.810  0.00  0.00    +0.000 C 
ATOM     12  C   UNL     1      -3.020  11.374  18.772  0.00  0.00    +0.000 C 
ATOM     13  C   UNL     1      -1.984  11.510  17.633  0.00  0.00    +0.000 C 
ATOM     14  C   UNL     1      -2.394  10.595  16.479  0.00  0.00    +0.000 C 
ATOM     15  N   UNL     1      -0.571  11.370  18.134  0.00  0.00    +0.000 NA
ENDBRANCH   7  15
ENDBRANCH   4   7
ENDBRANCH   3   4
ENDBRANCH   1   3
BRANCH   1  16
ATOM     16  C   UNL     1       3.150   6.325  19.003  0.00  0.00    +0.000 C 
BRANCH  16  17
ATOM     17  C   UNL     1       2.330   5.051  19.191  0.00  0.00    +0.000 A 
ATOM     18  C   UNL     1       1.973   4.219  18.111  0.00  0.00    +0.000 A 
ATOM     19  C   UNL     1       1.180   3.089  18.315  0.00  0.00    +0.000 A 
ATOM     20  C   UNL     1       0.723   2.771  19.595  0.00  0.00    +0.000 A 
ATOM     21  C   UNL     1       1.061   3.586  20.676  0.00  0.00    +0.000 A 
ATOM     22  C   UNL     1       1.859   4.718  20.477  0.00  0.00    +0.000 A 
ENDBRANCH  16  17
BRANCH  16  23
ATOM     23  C   UNL     1       4.510   6.137  18.352  0.00  0.00    +0.000 A 
ATOM     24  C   UNL     1       5.530   5.466  19.053  0.00  0.00    +0.000 A 
ATOM     25  C   UNL     1       6.820   5.376  18.514  0.00  0.00    +0.000 A 
ATOM     26  C   UNL     1       7.104   5.956  17.277  0.00  0.00    +0.000 A 
ATOM     27  C   UNL     1       6.102   6.623  16.570  0.00  0.00    +0.000 A 
ATOM     28  C   UNL     1       4.816   6.717  17.104  0.00  0.00    +0.000 A 
ENDBRANCH  16  23
ENDBRANCH   1  16
TORSDOF 8
ENDMDL
MODEL 5
REMARK VINA RESULT:      -7.8      1.211      4.099
REMARK  Name = 
REMARK  10 active torsions:
REMARK  status: ('A' for Active; 'I' for Inactive)
REMARK    1  A    between atoms: C_1  and  C_2
REMARK    2  A    between atoms: C_6  and  C_7
REMARK    3  A    between atoms: N_8  and  C_9
REMARK    4  A    between atoms: C_9  and  C_10
REMARK    5  A    between atoms: C_10  and  O_11
REMARK    6  A    between atoms: C_10  and  C_12
REMARK    7  A    between atoms: C_12  and  N_13
REMARK    8  A    between atoms: N_13  and  C_14
REMARK    9  A    between atoms: C_14  and  C_15
REMARK   10  A    between atoms: C_14  and  C_21
REMARK                            x       y       z     vdW  Elec       q    Type
REMARK                         _______ _______ _______ _____ _____    ______ ____
ROOT
ATOM      1  N   UNL     1       2.573   7.284  18.139  0.00  0.00    +0.000 NA
ATOM      2  H   UNL     1       3.241   7.753  17.473  0.00  0.00    +0.000 HD
ENDROOT
BRANCH   1   3
ATOM      3  C   UNL     1       2.012   8.332  18.987  0.00  0.00    +0.000 C 
BRANCH   3   4
ATOM      4  C   UNL     1       1.203   9.310  18.108  0.00  0.00    +0.000 C 
BRANCH   4   5
ATOM      5  O   UNL     1       2.011  10.134  17.313  0.00  0.00    +0.000 OA
ATOM      6  H   UNL     1       1.458  10.817  16.856  0.00  0.00    +0.000 HD
ENDBRANCH   4   5
BRANCH   4   7
ATOM      7  C   UNL     1       0.135  10.118  18.909  0.00  0.00    +0.000 C 
BRANCH   7  15
ATOM      8  C   UNL     1       0.998  13.821  19.117  0.00  0.00    +0.000 C 
ATOM      9  C   UNL     1       0.618  12.414  19.621  0.00  0.00    +0.000 C 
ATOM     10  C   UNL     1      -0.200  12.478  20.938  0.00  0.00    +0.000 C 
ATOM     11  C   UNL     1      -1.631  12.960  20.696  0.00  0.00    +0.000 C 
ATOM     12  C   UNL     1      -2.295  12.065  19.668  0.00  0.00    +0.000 C 
ATOM     13  C   UNL     1      -1.470  12.071  18.361  0.00  0.00    +0.000 C 
ATOM     14  C   UNL     1      -2.280  11.385  17.260  0.00  0.00    +0.000 C 
ATOM     15  N   UNL     1      -0.067  11.568  18.576  0.00  0.00    +0.000 NA
ENDBRANCH   7  15
ENDBRANCH   4   7
ENDBRANCH   3   4
ENDBRANCH   1   3
BRANCH   1  16
ATOM     16  C   UNL     1       3.336   6.274  18.891  0.00  0.00    +0.000 C 
BRANCH  16  17
ATOM     17  C   UNL     1       2.470   5.046  19.159  0.00  0.00    +0.000 A 
ATOM     18  C   UNL     1       2.053   4.178  18.129  0.00  0.00    +0.000 A 
ATOM     19  C   UNL     1       1.220   3.093  18.406  0.00  0.00    +0.000 A 
ATOM     20  C   UNL     1       0.782   2.857  19.710  0.00  0.00    +0.000 A 
ATOM     21  C   UNL     1       1.178   3.708  20.742  0.00  0.00    +0.000 A 
ATOM     22  C   UNL     1       2.016   4.794  20.470  0.00  0.00    +0.000 A 
ENDBRANCH  16  17
BRANCH  16  23
ATOM     23  C   UNL     1       4.617   6.014  18.117  0.00  0.00    +0.000 A 
ATOM     24  C   UNL     1       4.682   6.339  16.749  0.00  0.00    +0.000 A 
ATOM     25  C   UNL     1       5.815   6.010  15.994  0.00  0.00    +0.000 A 
ATOM     26  C   UNL     1       6.888   5.349  16.595  0.00  0.00    +0.000 A 
ATOM     27  C   UNL     1       6.838   5.022  17.951  0.00  0.00    +0.000 A 
ATOM     28  C   UNL     1       5.710   5.348  18.706  0.00  0.00    +0.000 A 
ENDBRANCH  16  23
ENDBRANCH   1  16
TORSDOF 8
ENDMDL
MODEL 6
REMARK VINA RESULT:      -7.8      1.004      3.842
REMARK  Name = 
REMARK  10 active torsions:
REMARK  status: ('A' for Active; 'I' for Inactive)
REMARK    1  A    between atoms: C_1  and  C_2
REMARK    2  A    between atoms: C_6  and  C_7
REMARK    3  A    between atoms: N_8  and  C_9
REMARK    4  A    between atoms: C_9  and  C_10
REMARK    5  A    between atoms: C_10  and  O_11
REMARK    6  A    between atoms: C_10  and  C_12
REMARK    7  A    between atoms: C_12  and  N_13
REMARK    8  A    between atoms: N_13  and  C_14
REMARK    9  A    between atoms: C_14  and  C_15
REMARK   10  A    between atoms: C_14  and  C_21
REMARK                            x       y       z     vdW  Elec       q    Type
REMARK                         _______ _______ _______ _____ _____    ______ ____
ROOT
ATOM      1  N   UNL     1       2.697   7.352  18.391  0.00  0.00    +0.000 NA
ATOM      2  H   UNL     1       3.424   7.973  17.950  0.00  0.00    +0.000 HD
ENDROOT
BRANCH   1   3
ATOM      3  C   UNL     1       1.942   8.179  19.327  0.00  0.00    +0.000 C 
BRANCH   3   4
ATOM      4  C   UNL     1       1.283   9.341  18.552  0.00  0.00    +0.000 C 
BRANCH   4   5
ATOM      5  O   UNL     1       1.994   9.710  17.403  0.00  0.00    +0.000 OA
ATOM      6  H   UNL     1       2.774   9.112  17.276  0.00  0.00    +0.000 HD
ENDBRANCH   4   5
BRANCH   4   7
ATOM      7  C   UNL     1       0.936  10.564  19.457  0.00  0.00    +0.000 C 
BRANCH   7  15
ATOM      8  C   UNL     1      -2.549  11.521  18.257  0.00  0.00    +0.000 C 
ATOM      9  C   UNL     1      -1.021  11.631  18.436  0.00  0.00    +0.000 C 
ATOM     10  C   UNL     1      -0.542  13.106  18.384  0.00  0.00    +0.000 C 
ATOM     11  C   UNL     1      -0.915  13.870  19.656  0.00  0.00    +0.000 C 
ATOM     12  C   UNL     1      -0.353  13.141  20.861  0.00  0.00    +0.000 C 
ATOM     13  C   UNL     1      -0.894  11.693  20.895  0.00  0.00    +0.000 C 
ATOM     14  C   UNL     1      -0.537  11.061  22.240  0.00  0.00    +0.000 C 
ATOM     15  N   UNL     1      -0.509  10.918  19.663  0.00  0.00    +0.000 NA
ENDBRANCH   7  15
ENDBRANCH   4   7
ENDBRANCH   3   4
ENDBRANCH   1   3
BRANCH   1  16
ATOM     16  C   UNL     1       3.405   6.237  19.040  0.00  0.00    +0.000 C 
BRANCH  16  17
ATOM     17  C   UNL     1       2.448   5.073  19.288  0.00  0.00    +0.000 A 
ATOM     18  C   UNL     1       2.047   4.690  20.584  0.00  0.00    +0.000 A 
ATOM     19  C   UNL     1       1.210   3.589  20.774  0.00  0.00    +0.000 A 
ATOM     20  C   UNL     1       0.766   2.846  19.679  0.00  0.00    +0.000 A 
ATOM     21  C   UNL     1       1.157   3.205  18.390  0.00  0.00    +0.000 A 
ATOM     22  C   UNL     1       1.992   4.310  18.193  0.00  0.00    +0.000 A 
ENDBRANCH  16  17
BRANCH  16  23
ATOM     23  C   UNL     1       4.617   5.915  18.182  0.00  0.00    +0.000 A 
ATOM     24  C   UNL     1       5.703   5.220  18.745  0.00  0.00    +0.000 A 
ATOM     25  C   UNL     1       6.871   5.007  18.002  0.00  0.00    +0.000 A 
ATOM     26  C   UNL     1       6.967   5.490  16.696  0.00  0.00    +0.000 A 
ATOM     27  C   UNL     1       5.897   6.180  16.124  0.00  0.00    +0.000 A 
ATOM     28  C   UNL     1       4.732   6.394  16.862  0.00  0.00    +0.000 A 
ENDBRANCH  16  23
ENDBRANCH   1  16
TORSDOF 8
ENDMDL
MODEL 7
REMARK VINA RESULT:      -7.7      0.916      3.730
REMARK  Name = 
REMARK  10 active torsions:
REMARK  status: ('A' for Active; 'I' for Inactive)
REMARK    1  A    between atoms: C_1  and  C_2
REMARK    2  A    between atoms: C_6  and  C_7
REMARK    3  A    between atoms: N_8  and  C_9
REMARK    4  A    between atoms: C_9  and  C_10
REMARK    5  A    between atoms: C_10  and  O_11
REMARK    6  A    between atoms: C_10  and  C_12
REMARK    7  A    between atoms: C_12  and  N_13
REMARK    8  A    between atoms: N_13  and  C_14
REMARK    9  A    between atoms: C_14  and  C_15
REMARK   10  A    between atoms: C_14  and  C_21
REMARK                            x       y       z     vdW  Elec       q    Type
REMARK                         _______ _______ _______ _____ _____    ______ ____
ROOT
ATOM      1  N   UNL     1       2.877   7.317  18.230  0.00  0.00    +0.000 NA
ATOM      2  H   UNL     1       3.602   7.977  17.847  0.00  0.00    +0.000 HD
ENDROOT
BRANCH   1   3
ATOM      3  C   UNL     1       2.051   8.083  19.159  0.00  0.00    +0.000 C 
BRANCH   3   4
ATOM      4  C   UNL     1       1.363   9.231  18.389  0.00  0.00    +0.000 C 
BRANCH   4   5
ATOM      5  O   UNL     1       2.073   9.636  17.252  0.00  0.00    +0.000 OA
ATOM      6  H   UNL     1       2.699  10.369  17.483  0.00  0.00    +0.000 HD
ENDBRANCH   4   5
BRANCH   4   7
ATOM      7  C   UNL     1       0.965  10.432  19.303  0.00  0.00    +0.000 C 
BRANCH   7  15
ATOM      8  C   UNL     1      -2.576  11.290  18.196  0.00  0.00    +0.000 C 
ATOM      9  C   UNL     1      -1.053  11.464  18.369  0.00  0.00    +0.000 C 
ATOM     10  C   UNL     1      -0.648  12.961  18.411  0.00  0.00    +0.000 C 
ATOM     11  C   UNL     1      -1.043  13.622  19.733  0.00  0.00    +0.000 C 
ATOM     12  C   UNL     1      -0.433  12.845  20.883  0.00  0.00    +0.000 C 
ATOM     13  C   UNL     1      -0.902  11.373  20.826  0.00  0.00    +0.000 C 
ATOM     14  C   UNL     1      -0.499  10.673  22.124  0.00  0.00    +0.000 C 
ATOM     15  N   UNL     1      -0.493  10.699  19.543  0.00  0.00    +0.000 NA
ENDBRANCH   7  15
ENDBRANCH   4   7
ENDBRANCH   3   4
ENDBRANCH   1   3
BRANCH   1  16
ATOM     16  C   UNL     1       3.591   6.201  18.871  0.00  0.00    +0.000 C 
BRANCH  16  17
ATOM     17  C   UNL     1       2.638   5.035  19.124  0.00  0.00    +0.000 A 
ATOM     18  C   UNL     1       2.032   4.317  18.073  0.00  0.00    +0.000 A 
ATOM     19  C   UNL     1       1.127   3.289  18.343  0.00  0.00    +0.000 A 
ATOM     20  C   UNL     1       0.804   2.964  19.661  0.00  0.00    +0.000 A 
ATOM     21  C   UNL     1       1.389   3.668  20.714  0.00  0.00    +0.000 A 
ATOM     22  C   UNL     1       2.299   4.696  20.449  0.00  0.00    +0.000 A 
ENDBRANCH  16  17
BRANCH  16  23
ATOM     23  C   UNL     1       4.797   5.883  18.002  0.00  0.00    +0.000 A 
ATOM     24  C   UNL     1       4.727   6.093  16.612  0.00  0.00    +0.000 A 
ATOM     25  C   UNL     1       5.788   5.707  15.783  0.00  0.00    +0.000 A 
ATOM     26  C   UNL     1       6.922   5.105  16.331  0.00  0.00    +0.000 A 
ATOM     27  C   UNL     1       7.005   4.893  17.708  0.00  0.00    +0.000 A 
ATOM     28  C   UNL     1       5.950   5.275  18.538  0.00  0.00    +0.000 A 
ENDBRANCH  16  23
ENDBRANCH   1  16
TORSDOF 8
ENDMDL
MODEL 8
REMARK VINA RESULT:      -7.7      1.218      4.173
REMARK  Name = 
REMARK  10 active torsions:
REMARK  status: ('A' for Active; 'I' for Inactive)
REMARK    1  A    between atoms: C_1  and  C_2
REMARK    2  A    between atoms: C_6  and  C_7
REMARK    3  A    between atoms: N_8  and  C_9
REMARK    4  A    between atoms: C_9  and  C_10
REMARK    5  A    between atoms: C_10  and  O_11
REMARK    6  A    between atoms: C_10  and  C_12
REMARK    7  A    between atoms: C_12  and  N_13
REMARK    8  A    between atoms: N_13  and  C_14
REMARK    9  A    between atoms: C_14  and  C_15
REMARK   10  A    between atoms: C_14  and  C_21
REMARK                            x       y       z     vdW  Elec       q    Type
REMARK                         _______ _______ _______ _____ _____    ______ ____
ROOT
ATOM      1  N   UNL     1       2.730   7.390  18.112  0.00  0.00    +0.000 NA
ATOM      2  H   UNL     1       3.462   8.009  17.676  0.00  0.00    +0.000 HD
ENDROOT
BRANCH   1   3
ATOM      3  C   UNL     1       1.917   8.239  18.979  0.00  0.00    +0.000 C 
BRANCH   3   4
ATOM      4  C   UNL     1       1.147   9.255  18.108  0.00  0.00    +0.000 C 
BRANCH   4   5
ATOM      5  O   UNL     1       1.986  10.043  17.308  0.00  0.00    +0.000 OA
ATOM      6  H   UNL     1       2.334   9.510  16.549  0.00  0.00    +0.000 HD
ENDBRANCH   4   5
BRANCH   4   7
ATOM      7  C   UNL     1       0.124  10.109  18.920  0.00  0.00    +0.000 C 
BRANCH   7  15
ATOM      8  C   UNL     1       0.850  13.846  18.995  0.00  0.00    +0.000 C 
ATOM      9  C   UNL     1       0.491  12.451  19.546  0.00  0.00    +0.000 C 
ATOM     10  C   UNL     1      -0.398  12.546  20.814  0.00  0.00    +0.000 C 
ATOM     11  C   UNL     1      -1.830  12.966  20.475  0.00  0.00    +0.000 C 
ATOM     12  C   UNL     1      -2.407  12.001  19.458  0.00  0.00    +0.000 C 
ATOM     13  C   UNL     1      -1.514  11.976  18.196  0.00  0.00    +0.000 C 
ATOM     14  C   UNL     1      -2.241  11.212  17.089  0.00  0.00    +0.000 C 
ATOM     15  N   UNL     1      -0.109  11.534  18.508  0.00  0.00    +0.000 NA
ENDBRANCH   7  15
ENDBRANCH   4   7
ENDBRANCH   3   4
ENDBRANCH   1   3
BRANCH   1  16
ATOM     16  C   UNL     1       3.432   6.320  18.838  0.00  0.00    +0.000 C 
BRANCH  16  17
ATOM     17  C   UNL     1       2.474   5.172  19.149  0.00  0.00    +0.000 A 
ATOM     18  C   UNL     1       2.052   4.878  20.462  0.00  0.00    +0.000 A 
ATOM     19  C   UNL     1       1.215   3.789  20.713  0.00  0.00    +0.000 A 
ATOM     20  C   UNL     1       0.790   2.972  19.665  0.00  0.00    +0.000 A 
ATOM     21  C   UNL     1       1.202   3.244  18.360  0.00  0.00    +0.000 A 
ATOM     22  C   UNL     1       2.037   4.335  18.102  0.00  0.00    +0.000 A 
ENDBRANCH  16  17
BRANCH  16  23
ATOM     23  C   UNL     1       4.653   5.947  18.014  0.00  0.00    +0.000 A 
ATOM     24  C   UNL     1       5.785   5.408  18.654  0.00  0.00    +0.000 A 
ATOM     25  C   UNL     1       6.957   5.156  17.930  0.00  0.00    +0.000 A 
ATOM     26  C   UNL     1       7.011   5.445  16.565  0.00  0.00    +0.000 A 
ATOM     27  C   UNL     1       5.896   5.978  15.917  0.00  0.00    +0.000 A 
ATOM     28  C   UNL     1       4.726   6.231  16.636  0.00  0.00    +0.000 A 
ENDBRANCH  16  23
ENDBRANCH   1  16
TORSDOF 8
ENDMDL
MODEL 9
REMARK VINA RESULT:      -7.7      0.789      1.510
REMARK  Name = 
REMARK  10 active torsions:
REMARK  status: ('A' for Active; 'I' for Inactive)
REMARK    1  A    between atoms: C_1  and  C_2
REMARK    2  A    between atoms: C_6  and  C_7
REMARK    3  A    between atoms: N_8  and  C_9
REMARK    4  A    between atoms: C_9  and  C_10
REMARK    5  A    between atoms: C_10  and  O_11
REMARK    6  A    between atoms: C_10  and  C_12
REMARK    7  A    between atoms: C_12  and  N_13
REMARK    8  A    between atoms: N_13  and  C_14
REMARK    9  A    between atoms: C_14  and  C_15
REMARK   10  A    between atoms: C_14  and  C_21
REMARK                            x       y       z     vdW  Elec       q    Type
REMARK                         _______ _______ _______ _____ _____    ______ ____
ROOT
ATOM      1  N   UNL     1       2.623   7.483  18.456  0.00  0.00    +0.000 NA
ATOM      2  H   UNL     1       2.293   7.318  19.442  0.00  0.00    +0.000 HD
ENDROOT
BRANCH   1   3
ATOM      3  C   UNL     1       1.476   7.983  17.702  0.00  0.00    +0.000 C 
BRANCH   3   4
ATOM      4  C   UNL     1       1.298   9.488  17.998  0.00  0.00    +0.000 C 
BRANCH   4   5
ATOM      5  O   UNL     1       2.352  10.274  17.515  0.00  0.00    +0.000 OA
ATOM      6  H   UNL     1       2.675   9.918  16.648  0.00  0.00    +0.000 HD
ENDBRANCH   4   5
BRANCH   4   7
ATOM      7  C   UNL     1       0.971   9.784  19.495  0.00  0.00    +0.000 C 
BRANCH   7  15
ATOM      8  C   UNL     1      -2.362  11.445  18.701  0.00  0.00    +0.000 C 
ATOM      9  C   UNL     1      -0.831  11.302  18.818  0.00  0.00    +0.000 C 
ATOM     10  C   UNL     1      -0.143  12.674  19.044  0.00  0.00    +0.000 C 
ATOM     11  C   UNL     1      -0.371  13.199  20.463  0.00  0.00    +0.000 C 
ATOM     12  C   UNL     1       0.105  12.162  21.462  0.00  0.00    +0.000 C 
ATOM     13  C   UNL     1      -0.641  10.829  21.228  0.00  0.00    +0.000 C 
ATOM     14  C   UNL     1      -0.350   9.885  22.395  0.00  0.00    +0.000 C 
ATOM     15  N   UNL     1      -0.402  10.283  19.845  0.00  0.00    +0.000 NA
ENDBRANCH   7  15
ENDBRANCH   4   7
ENDBRANCH   3   4
ENDBRANCH   1   3
BRANCH   1  16
ATOM     16  C   UNL     1       3.141   6.204  17.944  0.00  0.00    +0.000 C 
BRANCH  16  17
ATOM     17  C   UNL     1       4.663   6.159  18.071  0.00  0.00    +0.000 A 
ATOM     18  C   UNL     1       5.312   5.421  19.081  0.00  0.00    +0.000 A 
ATOM     19  C   UNL     1       6.703   5.445  19.197  0.00  0.00    +0.000 A 
ATOM     20  C   UNL     1       7.470   6.208  18.315  0.00  0.00    +0.000 A 
ATOM     21  C   UNL     1       6.845   6.950  17.313  0.00  0.00    +0.000 A 
ATOM     22  C   UNL     1       5.452   6.927  17.190  0.00  0.00    +0.000 A 
ENDBRANCH  16  17
BRANCH  16  23
ATOM     23  C   UNL     1       2.393   5.097  18.666  0.00  0.00    +0.000 A 
ATOM     24  C   UNL     1       1.935   3.980  17.942  0.00  0.00    +0.000 A 
ATOM     25  C   UNL     1       1.152   3.001  18.567  0.00  0.00    +0.000 A 
ATOM     26  C   UNL     1       0.816   3.131  19.916  0.00  0.00    +0.000 A 
ATOM     27  C   UNL     1       1.263   4.232  20.647  0.00  0.00    +0.000 A 
ATOM     28  C   UNL     1       2.043   5.210  20.027  0.00  0.00    +0.000 A 
ENDBRANCH  16  23
ENDBRANCH   1  16
TORSDOF 8
ENDMDL
