MODEL 1
REMARK VINA RESULT:      -6.0      0.000      0.000
REMARK  Name = 
REMARK  5 active torsions:
REMARK  status: ('A' for Active; 'I' for Inactive)
REMARK    1  A    between atoms: C_1  and  C_2
REMARK    2  A    between atoms: C_2  and  C_3
REMARK    3  A    between atoms: C_5  and  S_6
REMARK    4  A    between atoms: C_15  and  C_16
REMARK    5  A    between atoms: C_15  and  C_17
REMARK                            x       y       z     vdW  Elec       q    Type
REMARK                         _______ _______ _______ _____ _____    ______ ____
ROOT
ATOM      1  C   UNL     1       2.032   9.877  18.299  0.00  0.00    +0.000 A 
ATOM      2  N   UNL     1       1.373   9.659  19.449  0.00  0.00    +0.000 NA
ATOM      3  C   UNL     1       1.419   8.427  19.995  0.00  0.00    +0.000 A 
ATOM      4  C   UNL     1       2.143   7.395  19.382  0.00  0.00    +0.000 A 
ATOM      5  C   UNL     1       2.407   6.006  19.664  0.00  0.00    +0.000 A 
ATOM      6  C   UNL     1       3.253   5.431  18.733  0.00  0.00    +0.000 A 
ATOM      7  S   UNL     1       3.680   6.509  17.494  0.00  0.00    +0.000 S 
ATOM      8  C   UNL     1       2.781   7.769  18.207  0.00  0.00    +0.000 A 
ATOM      9  N   UNL     1       2.755   8.977  17.624  0.00  0.00    +0.000 NA
ATOM     10  C   UNL     1       3.715   4.010  18.737  0.00  0.00    +0.000 C 
ATOM     11  O   UNL     1       3.375   3.387  19.990  0.00  0.00    +0.000 OA
ATOM     12  C   UNL     1       2.049   3.662  20.488  0.00  0.00    +0.000 C 
ATOM     13  C   UNL     1       0.967   3.178  19.509  0.00  0.00    +0.000 C 
ATOM     14  C   UNL     1       1.906   2.873  21.796  0.00  0.00    +0.000 C 
ATOM     15  C   UNL     1       1.909   5.173  20.806  0.00  0.00    +0.000 C 
ENDROOT
BRANCH   1  17
ATOM     16  C   UNL     1       1.411  12.231  18.785  0.00  0.00    +0.000 C 
ATOM     17  C   UNL     1       2.031  11.285  17.770  0.00  0.00    +0.000 C 
ENDBRANCH   1  17
BRANCH   3  18
ATOM     18  S   UNL     1       0.558   8.205  21.515  0.00  0.00    +0.000 S 
ATOM     19  H   UNL     1      -0.646   8.481  20.995  0.00  0.00    +0.000 HD
ENDBRANCH   3  18
TORSDOF 2
ENDMDL
MODEL 2
REMARK VINA RESULT:      -5.9      3.705      6.060
REMARK  Name = 
REMARK  5 active torsions:
REMARK  status: ('A' for Active; 'I' for Inactive)
REMARK    1  A    between atoms: C_1  and  C_2
REMARK    2  A    between atoms: C_2  and  C_3
REMARK    3  A    between atoms: C_5  and  S_6
REMARK    4  A    between atoms: C_15  and  C_16
REMARK    5  A    between atoms: C_15  and  C_17
REMARK                            x       y       z     vdW  Elec       q    Type
REMARK                         _______ _______ _______ _____ _____    ______ ____
ROOT
ATOM      1  C   UNL     1       1.963   3.396  18.326  0.00  0.00    +0.000 A 
ATOM      2  N   UNL     1       1.881   4.636  18.836  0.00  0.00    +0.000 NA
ATOM      3  C   UNL     1       2.904   5.488  18.626  0.00  0.00    +0.000 A 
ATOM      4  C   UNL     1       4.028   5.094  17.887  0.00  0.00    +0.000 A 
ATOM      5  C   UNL     1       5.266   5.710  17.476  0.00  0.00    +0.000 A 
ATOM      6  C   UNL     1       6.036   4.872  16.690  0.00  0.00    +0.000 A 
ATOM      7  S   UNL     1       5.331   3.340  16.494  0.00  0.00    +0.000 S 
ATOM      8  C   UNL     1       3.970   3.790  17.414  0.00  0.00    +0.000 A 
ATOM      9  N   UNL     1       2.979   2.907  17.607  0.00  0.00    +0.000 NA
ATOM     10  C   UNL     1       7.372   5.206  16.110  0.00  0.00    +0.000 C 
ATOM     11  O   UNL     1       7.633   6.614  16.259  0.00  0.00    +0.000 OA
ATOM     12  C   UNL     1       7.297   7.184  17.542  0.00  0.00    +0.000 C 
ATOM     13  C   UNL     1       8.093   6.522  18.677  0.00  0.00    +0.000 C 
ATOM     14  C   UNL     1       7.691   8.665  17.474  0.00  0.00    +0.000 C 
ATOM     15  C   UNL     1       5.767   7.091  17.774  0.00  0.00    +0.000 C 
ENDROOT
BRANCH   1  17
ATOM     16  C   UNL     1       0.294   2.536  19.950  0.00  0.00    +0.000 C 
ATOM     17  C   UNL     1       0.764   2.506  18.505  0.00  0.00    +0.000 C 
ENDBRANCH   1  17
BRANCH   3  18
ATOM     18  S   UNL     1       2.732   7.108  19.295  0.00  0.00    +0.000 S 
ATOM     19  H   UNL     1       3.323   7.714  18.257  0.00  0.00    +0.000 HD
ENDBRANCH   3  18
TORSDOF 2
ENDMDL
MODEL 3
REMARK VINA RESULT:      -5.8      2.253      3.769
REMARK  Name = 
REMARK  5 active torsions:
REMARK  status: ('A' for Active; 'I' for Inactive)
REMARK    1  A    between atoms: C_1  and  C_2
REMARK    2  A    between atoms: C_2  and  C_3
REMARK    3  A    between atoms: C_5  and  S_6
REMARK    4  A    between atoms: C_15  and  C_16
REMARK    5  A    between atoms: C_15  and  C_17
REMARK                            x       y       z     vdW  Elec       q    Type
REMARK                         _______ _______ _______ _____ _____    ______ ____
ROOT
ATOM      1  C   UNL     1       0.730   8.417  21.003  0.00  0.00    +0.000 A 
ATOM      2  N   UNL     1       1.197   8.967  19.871  0.00  0.00    +0.000 NA
ATOM      3  C   UNL     1       1.989   8.224  19.071  0.00  0.00    +0.000 A 
ATOM      4  C   UNL     1       2.314   6.904  19.408  0.00  0.00    +0.000 A 
ATOM      5  C   UNL     1       3.103   5.848  18.821  0.00  0.00    +0.000 A 
ATOM      6  C   UNL     1       3.054   4.681  19.560  0.00  0.00    +0.000 A 
ATOM      7  S   UNL     1       2.135   4.848  20.977  0.00  0.00    +0.000 S 
ATOM      8  C   UNL     1       1.752   6.466  20.600  0.00  0.00    +0.000 A 
ATOM      9  N   UNL     1       0.969   7.172  21.429  0.00  0.00    +0.000 NA
ATOM     10  C   UNL     1       3.764   3.408  19.226  0.00  0.00    +0.000 C 
ATOM     11  O   UNL     1       4.294   3.479  17.889  0.00  0.00    +0.000 OA
ATOM     12  C   UNL     1       4.939   4.720  17.534  0.00  0.00    +0.000 C 
ATOM     13  C   UNL     1       6.144   5.009  18.443  0.00  0.00    +0.000 C 
ATOM     14  C   UNL     1       5.448   4.547  16.097  0.00  0.00    +0.000 C 
ATOM     15  C   UNL     1       3.905   5.875  17.555  0.00  0.00    +0.000 C 
ENDROOT
BRANCH   1  17
ATOM     16  C   UNL     1       0.282   9.375  23.248  0.00  0.00    +0.000 C 
ATOM     17  C   UNL     1      -0.221   9.246  21.821  0.00  0.00    +0.000 C 
ENDBRANCH   1  17
BRANCH   3  18
ATOM     18  S   UNL     1       2.552   8.988  17.588  0.00  0.00    +0.000 S 
ATOM     19  H   UNL     1       2.685  10.202  18.139  0.00  0.00    +0.000 HD
ENDBRANCH   3  18
TORSDOF 2
ENDMDL
MODEL 4
REMARK VINA RESULT:      -5.8      2.468      3.946
REMARK  Name = 
REMARK  5 active torsions:
REMARK  status: ('A' for Active; 'I' for Inactive)
REMARK    1  A    between atoms: C_1  and  C_2
REMARK    2  A    between atoms: C_2  and  C_3
REMARK    3  A    between atoms: C_5  and  S_6
REMARK    4  A    between atoms: C_15  and  C_16
REMARK    5  A    between atoms: C_15  and  C_17
REMARK                            x       y       z     vdW  Elec       q    Type
REMARK                         _______ _______ _______ _____ _____    ______ ____
ROOT
ATOM      1  C   UNL     1       0.629   8.524  21.243  0.00  0.00    +0.000 A 
ATOM      2  N   UNL     1       0.944   9.307  20.198  0.00  0.00    +0.000 NA
ATOM      3  C   UNL     1       1.737   8.804  19.231  0.00  0.00    +0.000 A 
ATOM      4  C   UNL     1       2.220   7.491  19.308  0.00  0.00    +0.000 A 
ATOM      5  C   UNL     1       3.059   6.646  18.493  0.00  0.00    +0.000 A 
ATOM      6  C   UNL     1       3.188   5.372  19.016  0.00  0.00    +0.000 A 
ATOM      7  S   UNL     1       2.377   5.193  20.497  0.00  0.00    +0.000 S 
ATOM      8  C   UNL     1       1.805   6.797  20.437  0.00  0.00    +0.000 A 
ATOM      9  N   UNL     1       1.026   7.260  21.426  0.00  0.00    +0.000 NA
ATOM     10  C   UNL     1       3.992   4.262  18.418  0.00  0.00    +0.000 C 
ATOM     11  O   UNL     1       4.400   4.617  17.084  0.00  0.00    +0.000 OA
ATOM     12  C   UNL     1       4.886   5.965  16.912  0.00  0.00    +0.000 C 
ATOM     13  C   UNL     1       6.127   6.231  17.779  0.00  0.00    +0.000 C 
ATOM     14  C   UNL     1       5.289   6.096  15.438  0.00  0.00    +0.000 C 
ATOM     15  C   UNL     1       3.747   6.976  17.204  0.00  0.00    +0.000 C 
ENDROOT
BRANCH   1  17
ATOM     16  C   UNL     1      -0.415  10.601  22.112  0.00  0.00    +0.000 C 
ATOM     17  C   UNL     1      -0.329   9.091  22.254  0.00  0.00    +0.000 C 
ENDBRANCH   1  17
BRANCH   3  18
ATOM     18  S   UNL     1       2.096   9.866  17.873  0.00  0.00    +0.000 S 
ATOM     19  H   UNL     1       2.549  10.867  18.639  0.00  0.00    +0.000 HD
ENDBRANCH   3  18
TORSDOF 2
ENDMDL
MODEL 5
REMARK VINA RESULT:      -5.6      6.087      7.438
REMARK  Name = 
REMARK  5 active torsions:
REMARK  status: ('A' for Active; 'I' for Inactive)
REMARK    1  A    between atoms: C_1  and  C_2
REMARK    2  A    between atoms: C_2  and  C_3
REMARK    3  A    between atoms: C_5  and  S_6
REMARK    4  A    between atoms: C_15  and  C_16
REMARK    5  A    between atoms: C_15  and  C_17
REMARK                            x       y       z     vdW  Elec       q    Type
REMARK                         _______ _______ _______ _____ _____    ______ ____
ROOT
ATOM      1  C   UNL     1      -3.363  10.290  16.541  0.00  0.00    +0.000 A 
ATOM      2  N   UNL     1      -4.203  11.022  17.291  0.00  0.00    +0.000 NA
ATOM      3  C   UNL     1      -3.744  11.555  18.441  0.00  0.00    +0.000 A 
ATOM      4  C   UNL     1      -2.418  11.356  18.847  0.00  0.00    +0.000 A 
ATOM      5  C   UNL     1      -1.607  11.755  19.971  0.00  0.00    +0.000 A 
ATOM      6  C   UNL     1      -0.300  11.318  19.858  0.00  0.00    +0.000 A 
ATOM      7  S   UNL     1      -0.046  10.383  18.464  0.00  0.00    +0.000 S 
ATOM      8  C   UNL     1      -1.663  10.588  17.969  0.00  0.00    +0.000 A 
ATOM      9  N   UNL     1      -2.081  10.032  16.821  0.00  0.00    +0.000 NA
ATOM     10  C   UNL     1       0.788  11.558  20.856  0.00  0.00    +0.000 C 
ATOM     11  O   UNL     1       0.358  12.535  21.823  0.00  0.00    +0.000 OA
ATOM     12  C   UNL     1      -0.986  12.375  22.322  0.00  0.00    +0.000 C 
ATOM     13  C   UNL     1      -1.167  11.023  23.031  0.00  0.00    +0.000 C 
ATOM     14  C   UNL     1      -1.201  13.493  23.351  0.00  0.00    +0.000 C 
ATOM     15  C   UNL     1      -2.003  12.565  21.167  0.00  0.00    +0.000 C 
ENDROOT
BRANCH   1  17
ATOM     16  C   UNL     1      -2.869  10.037  14.122  0.00  0.00    +0.000 C 
ATOM     17  C   UNL     1      -3.886   9.789  15.223  0.00  0.00    +0.000 C 
ENDBRANCH   1  17
BRANCH   3  18
ATOM     18  S   UNL     1      -4.882  12.526  19.370  0.00  0.00    +0.000 S 
ATOM     19  H   UNL     1      -5.317  11.498  20.110  0.00  0.00    +0.000 HD
ENDBRANCH   3  18
TORSDOF 2
ENDMDL
MODEL 6
REMARK VINA RESULT:      -5.5      2.945      5.234
REMARK  Name = 
REMARK  5 active torsions:
REMARK  status: ('A' for Active; 'I' for Inactive)
REMARK    1  A    between atoms: C_1  and  C_2
REMARK    2  A    between atoms: C_2  and  C_3
REMARK    3  A    between atoms: C_5  and  S_6
REMARK    4  A    between atoms: C_15  and  C_16
REMARK    5  A    between atoms: C_15  and  C_17
REMARK                            x       y       z     vdW  Elec       q    Type
REMARK                         _______ _______ _______ _____ _____    ______ ____
ROOT
ATOM      1  C   UNL     1       4.192   4.874  17.822  0.00  0.00    +0.000 A 
ATOM      2  N   UNL     1       3.672   4.324  18.931  0.00  0.00    +0.000 NA
ATOM      3  C   UNL     1       2.850   5.069  19.696  0.00  0.00    +0.000 A 
ATOM      4  C   UNL     1       2.538   6.389  19.343  0.00  0.00    +0.000 A 
ATOM      5  C   UNL     1       1.730   7.447  19.898  0.00  0.00    +0.000 A 
ATOM      6  C   UNL     1       1.726   8.578  19.102  0.00  0.00    +0.000 A 
ATOM      7  S   UNL     1       2.725   8.417  17.740  0.00  0.00    +0.000 S 
ATOM      8  C   UNL     1       3.140   6.820  18.168  0.00  0.00    +0.000 A 
ATOM      9  N   UNL     1       3.969   6.117  17.383  0.00  0.00    +0.000 NA
ATOM     10  C   UNL     1       0.993   9.848  19.397  0.00  0.00    +0.000 C 
ATOM     11  O   UNL     1       0.077   9.643  20.489  0.00  0.00    +0.000 OA
ATOM     12  C   UNL     1       0.591   8.889  21.608  0.00  0.00    +0.000 C 
ATOM     13  C   UNL     1       1.803   9.586  22.246  0.00  0.00    +0.000 C 
ATOM     14  C   UNL     1      -0.537   8.833  22.646  0.00  0.00    +0.000 C 
ATOM     15  C   UNL     1       0.922   7.443  21.160  0.00  0.00    +0.000 C 
ENDROOT
BRANCH   1  17
ATOM     16  C   UNL     1       5.374   4.688  15.647  0.00  0.00    +0.000 C 
ATOM     17  C   UNL     1       5.031   3.982  16.949  0.00  0.00    +0.000 C 
ENDBRANCH   1  17
BRANCH   3  18
ATOM     18  S   UNL     1       2.176   4.288  21.124  0.00  0.00    +0.000 S 
ATOM     19  H   UNL     1       3.181   3.411  21.247  0.00  0.00    +0.000 HD
ENDBRANCH   3  18
TORSDOF 2
ENDMDL
MODEL 7
REMARK VINA RESULT:      -5.4      7.995      9.954
REMARK  Name = 
REMARK  5 active torsions:
REMARK  status: ('A' for Active; 'I' for Inactive)
REMARK    1  A    between atoms: C_1  and  C_2
REMARK    2  A    between atoms: C_2  and  C_3
REMARK    3  A    between atoms: C_5  and  S_6
REMARK    4  A    between atoms: C_15  and  C_16
REMARK    5  A    between atoms: C_15  and  C_17
REMARK                            x       y       z     vdW  Elec       q    Type
REMARK                         _______ _______ _______ _____ _____    ______ ____
ROOT
ATOM      1  C   UNL     1      -3.286  11.121  16.636  0.00  0.00    +0.000 A 
ATOM      2  N   UNL     1      -2.427  11.540  17.579  0.00  0.00    +0.000 NA
ATOM      3  C   UNL     1      -2.918  11.928  18.773  0.00  0.00    +0.000 A 
ATOM      4  C   UNL     1      -4.295  11.891  19.030  0.00  0.00    +0.000 A 
ATOM      5  C   UNL     1      -5.151  12.217  20.145  0.00  0.00    +0.000 A 
ATOM      6  C   UNL     1      -6.481  11.940  19.886  0.00  0.00    +0.000 A 
ATOM      7  S   UNL     1      -6.728  11.361  18.310  0.00  0.00    +0.000 S 
ATOM      8  C   UNL     1      -5.060  11.427  17.968  0.00  0.00    +0.000 A 
ATOM      9  N   UNL     1      -4.615  11.040  16.763  0.00  0.00    +0.000 NA
ATOM     10  C   UNL     1      -7.617  12.169  20.830  0.00  0.00    +0.000 C 
ATOM     11  O   UNL     1      -7.110  12.468  22.144  0.00  0.00    +0.000 OA
ATOM     12  C   UNL     1      -6.000  13.389  22.195  0.00  0.00    +0.000 C 
ATOM     13  C   UNL     1      -6.377  14.757  21.606  0.00  0.00    +0.000 C 
ATOM     14  C   UNL     1      -5.663  13.579  23.680  0.00  0.00    +0.000 C 
ATOM     15  C   UNL     1      -4.770  12.770  21.485  0.00  0.00    +0.000 C 
ENDROOT
BRANCH   1  17
ATOM     16  C   UNL     1      -3.787  10.116  14.422  0.00  0.00    +0.000 C 
ATOM     17  C   UNL     1      -2.692  10.612  15.351  0.00  0.00    +0.000 C 
ENDBRANCH   1  17
BRANCH   3  18
ATOM     18  S   UNL     1      -1.744  12.443  19.980  0.00  0.00    +0.000 S 
ATOM     19  H   UNL     1      -2.057  11.474  20.851  0.00  0.00    +0.000 HD
ENDBRANCH   3  18
TORSDOF 2
ENDMDL
MODEL 8
REMARK VINA RESULT:      -5.3      5.434      7.627
REMARK  Name = 
REMARK  5 active torsions:
REMARK  status: ('A' for Active; 'I' for Inactive)
REMARK    1  A    between atoms: C_1  and  C_2
REMARK    2  A    between atoms: C_2  and  C_3
REMARK    3  A    between atoms: C_5  and  S_6
REMARK    4  A    between atoms: C_15  and  C_16
REMARK    5  A    between atoms: C_15  and  C_17
REMARK                            x       y       z     vdW  Elec       q    Type
REMARK                         _______ _______ _______ _____ _____    ______ ____
ROOT
ATOM      1  C   UNL     1      -5.341  12.171  17.685  0.00  0.00    +0.000 A 
ATOM      2  N   UNL     1      -4.785  11.430  16.713  0.00  0.00    +0.000 NA
ATOM      3  C   UNL     1      -3.539  10.950  16.902  0.00  0.00    +0.000 A 
ATOM      4  C   UNL     1      -2.839  11.211  18.087  0.00  0.00    +0.000 A 
ATOM      5  C   UNL     1      -1.540  10.877  18.618  0.00  0.00    +0.000 A 
ATOM      6  C   UNL     1      -1.356  11.360  19.901  0.00  0.00    +0.000 A 
ATOM      7  S   UNL     1      -2.685  12.262  20.451  0.00  0.00    +0.000 S 
ATOM      8  C   UNL     1      -3.542  11.981  19.005  0.00  0.00    +0.000 A 
ATOM      9  N   UNL     1      -4.775  12.486  18.855  0.00  0.00    +0.000 NA
ATOM     10  C   UNL     1      -0.122  11.191  20.727  0.00  0.00    +0.000 C 
ATOM     11  O   UNL     1       0.753  10.229  20.109  0.00  0.00    +0.000 OA
ATOM     12  C   UNL     1       0.913  10.352  18.680  0.00  0.00    +0.000 C 
ATOM     13  C   UNL     1       1.507  11.716  18.295  0.00  0.00    +0.000 C 
ATOM     14  C   UNL     1       1.904   9.258  18.260  0.00  0.00    +0.000 C 
ATOM     15  C   UNL     1      -0.441  10.088  17.974  0.00  0.00    +0.000 C 
ENDROOT
BRANCH   1  17
ATOM     16  C   UNL     1      -7.506  12.652  18.801  0.00  0.00    +0.000 C 
ATOM     17  C   UNL     1      -6.764  12.612  17.476  0.00  0.00    +0.000 C 
ENDBRANCH   1  17
BRANCH   3  18
ATOM     18  S   UNL     1      -2.870   9.963  15.605  0.00  0.00    +0.000 S 
ATOM     19  H   UNL     1      -3.732   8.955  15.785  0.00  0.00    +0.000 HD
ENDBRANCH   3  18
TORSDOF 2
ENDMDL
MODEL 9
REMARK VINA RESULT:      -5.1      4.371      5.415
REMARK  Name = 
REMARK  5 active torsions:
REMARK  status: ('A' for Active; 'I' for Inactive)
REMARK    1  A    between atoms: C_1  and  C_2
REMARK    2  A    between atoms: C_2  and  C_3
REMARK    3  A    between atoms: C_5  and  S_6
REMARK    4  A    between atoms: C_15  and  C_16
REMARK    5  A    between atoms: C_15  and  C_17
REMARK                            x       y       z     vdW  Elec       q    Type
REMARK                         _______ _______ _______ _____ _____    ______ ____
ROOT
ATOM      1  C   UNL     1       6.260   4.717  15.542  0.00  0.00    +0.000 A 
ATOM      2  N   UNL     1       6.693   5.112  16.751  0.00  0.00    +0.000 NA
ATOM      3  C   UNL     1       5.948   4.811  17.833  0.00  0.00    +0.000 A 
ATOM      4  C   UNL     1       4.749   4.097  17.705  0.00  0.00    +0.000 A 
ATOM      5  C   UNL     1       3.728   3.615  18.603  0.00  0.00    +0.000 A 
ATOM      6  C   UNL     1       2.744   2.899  17.946  0.00  0.00    +0.000 A 
ATOM      7  S   UNL     1       2.988   2.853  16.268  0.00  0.00    +0.000 S 
ATOM      8  C   UNL     1       4.433   3.746  16.399  0.00  0.00    +0.000 A 
ATOM      9  N   UNL     1       5.139   4.032  15.295  0.00  0.00    +0.000 NA
ATOM     10  C   UNL     1       1.548   2.274  18.588  0.00  0.00    +0.000 C 
ATOM     11  O   UNL     1       1.695   2.289  20.020  0.00  0.00    +0.000 OA
ATOM     12  C   UNL     1       2.194   3.519  20.587  0.00  0.00    +0.000 C 
ATOM     13  C   UNL     1       1.259   4.700  20.282  0.00  0.00    +0.000 C 
ATOM     14  C   UNL     1       2.230   3.312  22.107  0.00  0.00    +0.000 C 
ATOM     15  C   UNL     1       3.639   3.779  20.090  0.00  0.00    +0.000 C 
ENDROOT
BRANCH   1  17
ATOM     16  C   UNL     1       6.725   4.182  13.163  0.00  0.00    +0.000 C 
ATOM     17  C   UNL     1       7.164   4.992  14.372  0.00  0.00    +0.000 C 
ENDBRANCH   1  17
BRANCH   3  18
ATOM     18  S   UNL     1       6.577   5.332  19.394  0.00  0.00    +0.000 S 
ATOM     19  H   UNL     1       5.371   5.409  19.972  0.00  0.00    +0.000 HD
ENDBRANCH   3  18
TORSDOF 2
ENDMDL
