MODEL 1
REMARK VINA RESULT:      -9.1      0.000      0.000
REMARK  Name = 
REMARK  12 active torsions:
REMARK  status: ('A' for Active; 'I' for Inactive)
REMARK    1  A    between atoms: C_1  and  C_2
REMARK    2  A    between atoms: C_2  and  C_3
REMARK    3  A    between atoms: N_5  and  C_6
REMARK    4  A    between atoms: C_9  and  C_10
REMARK    5  A    between atoms: C_13  and  N_14
REMARK    6  A    between atoms: N_14  and  C_15
REMARK    7  A    between atoms: C_15  and  C_16
REMARK    8  A    between atoms: C_15  and  C_17
REMARK    9  A    between atoms: C_15  and  C_18
REMARK   10  A    between atoms: C_24  and  N_25
REMARK   11  A    between atoms: C_28  and  C_29
REMARK   12  A    between atoms: N_32  and  C_33
REMARK                            x       y       z     vdW  Elec       q    Type
REMARK                         _______ _______ _______ _____ _____    ______ ____
ROOT
ATOM      1  C   UNL     1       0.448   8.471  21.400  0.00  0.00    +0.000 A 
ATOM      2  C   UNL     1       0.962   7.190  21.445  0.00  0.00    +0.000 A 
ATOM      3  N   UNL     1       1.755   6.948  20.352  0.00  0.00    +0.000 N 
ATOM      4  C   UNL     1       1.774   8.088  19.560  0.00  0.00    +0.000 A 
ATOM      5  C   UNL     1       2.335   8.284  18.281  0.00  0.00    +0.000 A 
ATOM      6  C   UNL     1       2.166   9.499  17.633  0.00  0.00    +0.000 A 
ATOM      7  C   UNL     1       1.446  10.514  18.236  0.00  0.00    +0.000 A 
ATOM      8  C   UNL     1       0.879  10.341  19.516  0.00  0.00    +0.000 A 
ATOM      9  C   UNL     1       1.004   9.087  20.202  0.00  0.00    +0.000 A 
ENDROOT
BRANCH   3  10
ATOM     10  C   UNL     1       2.354   5.690  20.074  0.00  0.00    +0.000 A 
ATOM     11  C   UNL     1       1.645   4.502  20.197  0.00  0.00    +0.000 A 
ATOM     12  C   UNL     1       2.299   3.295  19.966  0.00  0.00    +0.000 A 
ATOM     13  C   UNL     1       3.654   3.257  19.570  0.00  0.00    +0.000 A 
ATOM     14  C   UNL     1       4.363   4.464  19.342  0.00  0.00    +0.000 A 
ATOM     15  C   UNL     1       3.696   5.658  19.658  0.00  0.00    +0.000 A 
BRANCH  13  16
ATOM     16  C   UNL     1       4.228   1.880  19.420  0.00  0.00    +0.000 C 
ATOM     17  N   UNL     1       3.822   1.129  18.357  0.00  0.00    +0.000 N 
ATOM     18  O   UNL     1       5.036   1.422  20.221  0.00  0.00    +0.000 OA
ATOM     19  H   UNL     1       3.060   1.459  17.774  0.00  0.00    +0.000 HD
ATOM     20  H   UNL     1       4.148   0.177  18.289  0.00  0.00    +0.000 HD
ENDBRANCH  13  16
BRANCH  14  21
ATOM     21  N   UNL     1       5.721   4.473  18.975  0.00  0.00    +0.000 N 
ATOM     22  H   UNL     1       6.239   4.955  19.717  0.00  0.00    +0.000 HD
BRANCH  21  23
ATOM     23  C   UNL     1       6.230   4.882  17.638  0.00  0.00    +0.000 C 
ATOM     24  C   UNL     1       6.191   6.411  17.483  0.00  0.00    +0.000 C 
ATOM     25  C   UNL     1       7.708   4.440  17.593  0.00  0.00    +0.000 C 
ATOM     26  C   UNL     1       5.529   4.178  16.463  0.00  0.00    +0.000 C 
ENDBRANCH  21  23
ENDBRANCH  14  21
ENDBRANCH   3  10
BRANCH   8  27
ATOM     27  N   UNL     1       0.195  11.450  20.062  0.00  0.00    +0.000 N 
ATOM     28  C   UNL     1      -1.040  11.944  19.695  0.00  0.00    +0.000 A 
ATOM     29  N   UNL     1      -1.440  12.921  20.483  0.00  0.00    +0.000 NA
ATOM     30  C   UNL     1      -0.389  13.131  21.332  0.00  0.00    +0.000 A 
ATOM     31  C   UNL     1       0.666  12.312  21.014  0.00  0.00    +0.000 A 
BRANCH  30  32
ATOM     32  C   UNL     1      -0.442  14.123  22.384  0.00  0.00    +0.000 A 
ATOM     33  C   UNL     1       0.353  15.277  22.482  0.00  0.00    +0.000 A 
ATOM     34  N   UNL     1       0.067  15.996  23.576  0.00  0.00    +0.000 NA
ATOM     35  N   UNL     1      -0.910  15.285  24.171  0.00  0.00    +0.000 N 
ATOM     36  C   UNL     1      -1.447  15.704  25.442  0.00  0.00    +0.000 C 
ATOM     37  C   UNL     1      -1.276  14.169  23.477  0.00  0.00    +0.000 A 
ENDBRANCH  30  32
ENDBRANCH   8  27
BRANCH   1  39
ATOM     38  C   UNL     1       0.068   9.563  23.695  0.00  0.00    +0.000 C 
ATOM     39  C   UNL     1      -0.538   9.014  22.405  0.00  0.00    +0.000 C 
ENDBRANCH   1  39
TORSDOF 7
ENDMDL
MODEL 2
REMARK VINA RESULT:      -9.0      0.527      1.068
REMARK  Name = 
REMARK  12 active torsions:
REMARK  status: ('A' for Active; 'I' for Inactive)
REMARK    1  A    between atoms: C_1  and  C_2
REMARK    2  A    between atoms: C_2  and  C_3
REMARK    3  A    between atoms: N_5  and  C_6
REMARK    4  A    between atoms: C_9  and  C_10
REMARK    5  A    between atoms: C_13  and  N_14
REMARK    6  A    between atoms: N_14  and  C_15
REMARK    7  A    between atoms: C_15  and  C_16
REMARK    8  A    between atoms: C_15  and  C_17
REMARK    9  A    between atoms: C_15  and  C_18
REMARK   10  A    between atoms: C_24  and  N_25
REMARK   11  A    between atoms: C_28  and  C_29
REMARK   12  A    between atoms: N_32  and  C_33
REMARK                            x       y       z     vdW  Elec       q    Type
REMARK                         _______ _______ _______ _____ _____    ______ ____
ROOT
ATOM      1  C   UNL     1       0.548   8.300  21.308  0.00  0.00    +0.000 A 
ATOM      2  C   UNL     1       1.072   7.026  21.401  0.00  0.00    +0.000 A 
ATOM      3  N   UNL     1       1.897   6.764  20.337  0.00  0.00    +0.000 N 
ATOM      4  C   UNL     1       1.927   7.883  19.516  0.00  0.00    +0.000 A 
ATOM      5  C   UNL     1       2.522   8.051  18.247  0.00  0.00    +0.000 A 
ATOM      6  C   UNL     1       2.359   9.246  17.563  0.00  0.00    +0.000 A 
ATOM      7  C   UNL     1       1.614  10.269  18.119  0.00  0.00    +0.000 A 
ATOM      8  C   UNL     1       1.014  10.125  19.388  0.00  0.00    +0.000 A 
ATOM      9  C   UNL     1       1.131   8.890  20.110  0.00  0.00    +0.000 A 
ENDROOT
BRANCH   3  10
ATOM     10  C   UNL     1       2.515   5.504  20.108  0.00  0.00    +0.000 A 
ATOM     11  C   UNL     1       1.868   4.311  20.406  0.00  0.00    +0.000 A 
ATOM     12  C   UNL     1       2.544   3.109  20.214  0.00  0.00    +0.000 A 
ATOM     13  C   UNL     1       3.853   3.077  19.686  0.00  0.00    +0.000 A 
ATOM     14  C   UNL     1       4.487   4.280  19.283  0.00  0.00    +0.000 A 
ATOM     15  C   UNL     1       3.809   5.476  19.562  0.00  0.00    +0.000 A 
BRANCH  13  16
ATOM     16  C   UNL     1       4.463   1.710  19.598  0.00  0.00    +0.000 C 
ATOM     17  N   UNL     1       4.156   0.941  18.515  0.00  0.00    +0.000 N 
ATOM     18  O   UNL     1       5.214   1.276  20.465  0.00  0.00    +0.000 OA
ATOM     19  H   UNL     1       3.437   1.249  17.870  0.00  0.00    +0.000 HD
ATOM     20  H   UNL     1       4.505  -0.006  18.484  0.00  0.00    +0.000 HD
ENDBRANCH  13  16
BRANCH  14  21
ATOM     21  N   UNL     1       5.802   4.297  18.780  0.00  0.00    +0.000 N 
ATOM     22  H   UNL     1       6.404   4.705  19.502  0.00  0.00    +0.000 HD
BRANCH  21  23
ATOM     23  C   UNL     1       6.182   4.811  17.437  0.00  0.00    +0.000 C 
ATOM     24  C   UNL     1       7.647   4.475  17.118  0.00  0.00    +0.000 C 
ATOM     25  C   UNL     1       5.292   4.055  16.427  0.00  0.00    +0.000 C 
ATOM     26  C   UNL     1       5.890   6.309  17.238  0.00  0.00    +0.000 C 
ENDBRANCH  21  23
ENDBRANCH  14  21
ENDBRANCH   3  10
BRANCH   8  27
ATOM     27  N   UNL     1       0.305  11.241  19.885  0.00  0.00    +0.000 N 
ATOM     28  C   UNL     1      -0.897  11.746  19.435  0.00  0.00    +0.000 A 
ATOM     29  N   UNL     1      -1.341  12.728  20.193  0.00  0.00    +0.000 NA
ATOM     30  C   UNL     1      -0.348  12.929  21.112  0.00  0.00    +0.000 A 
ATOM     31  C   UNL     1       0.718  12.100  20.866  0.00  0.00    +0.000 A 
BRANCH  30  32
ATOM     32  C   UNL     1      -0.463  13.923  22.157  0.00  0.00    +0.000 A 
ATOM     33  C   UNL     1      -1.118  13.764  23.390  0.00  0.00    +0.000 A 
ATOM     34  N   UNL     1      -1.051  14.871  24.143  0.00  0.00    +0.000 NA
ATOM     35  N   UNL     1      -0.355  15.730  23.375  0.00  0.00    +0.000 N 
ATOM     36  C   UNL     1      -0.130  17.085  23.816  0.00  0.00    +0.000 C 
ATOM     37  C   UNL     1       0.052  15.198  22.186  0.00  0.00    +0.000 A 
ENDBRANCH  30  32
ENDBRANCH   8  27
BRANCH   1  39
ATOM     38  C   UNL     1       0.099   9.575  23.494  0.00  0.00    +0.000 C 
ATOM     39  C   UNL     1      -0.471   8.860  22.270  0.00  0.00    +0.000 C 
ENDBRANCH   1  39
TORSDOF 7
ENDMDL
MODEL 3
REMARK VINA RESULT:      -8.8      1.528      2.240
REMARK  Name = 
REMARK  12 active torsions:
REMARK  status: ('A' for Active; 'I' for Inactive)
REMARK    1  A    between atoms: C_1  and  C_2
REMARK    2  A    between atoms: C_2  and  C_3
REMARK    3  A    between atoms: N_5  and  C_6
REMARK    4  A    between atoms: C_9  and  C_10
REMARK    5  A    between atoms: C_13  and  N_14
REMARK    6  A    between atoms: N_14  and  C_15
REMARK    7  A    between atoms: C_15  and  C_16
REMARK    8  A    between atoms: C_15  and  C_17
REMARK    9  A    between atoms: C_15  and  C_18
REMARK   10  A    between atoms: C_24  and  N_25
REMARK   11  A    between atoms: C_28  and  C_29
REMARK   12  A    between atoms: N_32  and  C_33
REMARK                            x       y       z     vdW  Elec       q    Type
REMARK                         _______ _______ _______ _____ _____    ______ ____
ROOT
ATOM      1  C   UNL     1       0.475   8.402  21.348  0.00  0.00    +0.000 A 
ATOM      2  C   UNL     1       1.015   7.134  21.434  0.00  0.00    +0.000 A 
ATOM      3  N   UNL     1       1.823   6.878  20.355  0.00  0.00    +0.000 N 
ATOM      4  C   UNL     1       1.825   7.996  19.531  0.00  0.00    +0.000 A 
ATOM      5  C   UNL     1       2.393   8.168  18.252  0.00  0.00    +0.000 A 
ATOM      6  C   UNL     1       2.205   9.360  17.568  0.00  0.00    +0.000 A 
ATOM      7  C   UNL     1       1.458  10.375  18.135  0.00  0.00    +0.000 A 
ATOM      8  C   UNL     1       0.884  10.227  19.415  0.00  0.00    +0.000 A 
ATOM      9  C   UNL     1       1.028   8.995  20.138  0.00  0.00    +0.000 A 
ENDROOT
BRANCH   3  10
ATOM     10  C   UNL     1       2.450   5.625  20.118  0.00  0.00    +0.000 A 
ATOM     11  C   UNL     1       1.784   4.426  20.330  0.00  0.00    +0.000 A 
ATOM     12  C   UNL     1       2.468   3.228  20.135  0.00  0.00    +0.000 A 
ATOM     13  C   UNL     1       3.807   3.210  19.687  0.00  0.00    +0.000 A 
ATOM     14  C   UNL     1       4.467   4.424  19.368  0.00  0.00    +0.000 A 
ATOM     15  C   UNL     1       3.775   5.612  19.650  0.00  0.00    +0.000 A 
BRANCH  13  16
ATOM     16  C   UNL     1       4.418   1.844  19.585  0.00  0.00    +0.000 C 
ATOM     17  N   UNL     1       4.029   1.044  18.552  0.00  0.00    +0.000 N 
ATOM     18  O   UNL     1       5.241   1.439  20.398  0.00  0.00    +0.000 OA
ATOM     19  H   UNL     1       3.256   1.331  17.961  0.00  0.00    +0.000 HD
ATOM     20  H   UNL     1       4.381   0.099  18.517  0.00  0.00    +0.000 HD
ENDBRANCH  13  16
BRANCH  14  21
ATOM     21  N   UNL     1       5.809   4.454  18.946  0.00  0.00    +0.000 N 
ATOM     22  H   UNL     1       6.343   4.976  19.649  0.00  0.00    +0.000 HD
BRANCH  21  23
ATOM     23  C   UNL     1       6.253   4.827  17.576  0.00  0.00    +0.000 C 
ATOM     24  C   UNL     1       5.311   4.232  16.516  0.00  0.00    +0.000 C 
ATOM     25  C   UNL     1       6.139   6.364  17.499  0.00  0.00    +0.000 C 
ATOM     26  C   UNL     1       7.723   4.483  17.281  0.00  0.00    +0.000 C 
ENDBRANCH  21  23
ENDBRANCH  14  21
ENDBRANCH   3  10
BRANCH   8  27
ATOM     27  N   UNL     1       0.172  11.336  19.924  0.00  0.00    +0.000 N 
ATOM     28  C   UNL     1       0.689  12.489  20.477  0.00  0.00    +0.000 A 
ATOM     29  N   UNL     1      -0.247  13.376  20.748  0.00  0.00    +0.000 NA
ATOM     30  C   UNL     1      -1.420  12.740  20.449  0.00  0.00    +0.000 A 
ATOM     31  C   UNL     1      -1.186  11.448  20.049  0.00  0.00    +0.000 A 
BRANCH  30  32
ATOM     32  C   UNL     1      -2.702  13.395  20.589  0.00  0.00    +0.000 A 
ATOM     33  C   UNL     1      -2.943  14.632  21.212  0.00  0.00    +0.000 A 
ATOM     34  N   UNL     1      -4.240  14.968  21.182  0.00  0.00    +0.000 NA
ATOM     35  N   UNL     1      -4.817  13.933  20.541  0.00  0.00    +0.000 N 
ATOM     36  C   UNL     1      -6.248  13.888  20.370  0.00  0.00    +0.000 C 
ATOM     37  C   UNL     1      -3.932  12.979  20.133  0.00  0.00    +0.000 A 
ENDBRANCH  30  32
ENDBRANCH   8  27
BRANCH   1  39
ATOM     38  C   UNL     1       0.051   9.570  23.597  0.00  0.00    +0.000 C 
ATOM     39  C   UNL     1      -0.532   8.952  22.328  0.00  0.00    +0.000 C 
ENDBRANCH   1  39
TORSDOF 7
ENDMDL
MODEL 4
REMARK VINA RESULT:      -8.6      0.917      1.075
REMARK  Name = 
REMARK  12 active torsions:
REMARK  status: ('A' for Active; 'I' for Inactive)
REMARK    1  A    between atoms: C_1  and  C_2
REMARK    2  A    between atoms: C_2  and  C_3
REMARK    3  A    between atoms: N_5  and  C_6
REMARK    4  A    between atoms: C_9  and  C_10
REMARK    5  A    between atoms: C_13  and  N_14
REMARK    6  A    between atoms: N_14  and  C_15
REMARK    7  A    between atoms: C_15  and  C_16
REMARK    8  A    between atoms: C_15  and  C_17
REMARK    9  A    between atoms: C_15  and  C_18
REMARK   10  A    between atoms: C_24  and  N_25
REMARK   11  A    between atoms: C_28  and  C_29
REMARK   12  A    between atoms: N_32  and  C_33
REMARK                            x       y       z     vdW  Elec       q    Type
REMARK                         _______ _______ _______ _____ _____    ______ ____
ROOT
ATOM      1  C   UNL     1       0.418   8.509  21.361  0.00  0.00    +0.000 A 
ATOM      2  C   UNL     1       0.884   7.210  21.392  0.00  0.00    +0.000 A 
ATOM      3  N   UNL     1       1.682   6.956  20.305  0.00  0.00    +0.000 N 
ATOM      4  C   UNL     1       1.753   8.107  19.532  0.00  0.00    +0.000 A 
ATOM      5  C   UNL     1       2.337   8.303  18.263  0.00  0.00    +0.000 A 
ATOM      6  C   UNL     1       2.221   9.534  17.634  0.00  0.00    +0.000 A 
ATOM      7  C   UNL     1       1.532  10.564  18.244  0.00  0.00    +0.000 A 
ATOM      8  C   UNL     1       0.942  10.392  19.514  0.00  0.00    +0.000 A 
ATOM      9  C   UNL     1       1.012   9.123  20.181  0.00  0.00    +0.000 A 
ENDROOT
BRANCH   3  10
ATOM     10  C   UNL     1       2.238   5.681  20.013  0.00  0.00    +0.000 A 
ATOM     11  C   UNL     1       2.205   4.644  20.936  0.00  0.00    +0.000 A 
ATOM     12  C   UNL     1       2.815   3.434  20.617  0.00  0.00    +0.000 A 
ATOM     13  C   UNL     1       3.428   3.228  19.362  0.00  0.00    +0.000 A 
ATOM     14  C   UNL     1       3.381   4.242  18.372  0.00  0.00    +0.000 A 
ATOM     15  C   UNL     1       2.827   5.473  18.755  0.00  0.00    +0.000 A 
BRANCH  13  16
ATOM     16  C   UNL     1       4.092   1.893  19.197  0.00  0.00    +0.000 C 
ATOM     17  N   UNL     1       5.115   1.578  20.040  0.00  0.00    +0.000 N 
ATOM     18  O   UNL     1       3.743   1.097  18.332  0.00  0.00    +0.000 OA
ATOM     19  H   UNL     1       5.485   2.286  20.664  0.00  0.00    +0.000 HD
ATOM     20  H   UNL     1       5.613   0.713  19.890  0.00  0.00    +0.000 HD
ENDBRANCH  13  16
BRANCH  14  21
ATOM     21  N   UNL     1       4.003   4.090  17.119  0.00  0.00    +0.000 N 
ATOM     22  H   UNL     1       4.042   3.087  16.912  0.00  0.00    +0.000 HD
BRANCH  21  23
ATOM     23  C   UNL     1       5.279   4.749  16.728  0.00  0.00    +0.000 C 
ATOM     24  C   UNL     1       6.293   4.704  17.882  0.00  0.00    +0.000 C 
ATOM     25  C   UNL     1       5.849   3.910  15.564  0.00  0.00    +0.000 C 
ATOM     26  C   UNL     1       5.102   6.179  16.188  0.00  0.00    +0.000 C 
ENDBRANCH  21  23
ENDBRANCH  14  21
ENDBRANCH   3  10
BRANCH   8  27
ATOM     27  N   UNL     1       0.292  11.517  20.070  0.00  0.00    +0.000 N 
ATOM     28  C   UNL     1      -1.007  11.930  19.859  0.00  0.00    +0.000 A 
ATOM     29  N   UNL     1      -1.334  12.955  20.620  0.00  0.00    +0.000 NA
ATOM     30  C   UNL     1      -0.180  13.276  21.279  0.00  0.00    +0.000 A 
ATOM     31  C   UNL     1       0.856  12.475  20.868  0.00  0.00    +0.000 A 
BRANCH  30  32
ATOM     32  C   UNL     1      -0.125  14.351  22.246  0.00  0.00    +0.000 A 
ATOM     33  C   UNL     1       0.878  15.330  22.348  0.00  0.00    +0.000 A 
ATOM     34  N   UNL     1       0.645  16.189  23.350  0.00  0.00    +0.000 NA
ATOM     35  N   UNL     1      -0.508  15.742  23.883  0.00  0.00    +0.000 N 
ATOM     36  C   UNL     1      -1.063  16.374  25.054  0.00  0.00    +0.000 C 
ATOM     37  C   UNL     1      -1.030  14.662  23.234  0.00  0.00    +0.000 A 
ENDBRANCH  30  32
ENDBRANCH   8  27
BRANCH   1  39
ATOM     38  C   UNL     1       0.052   9.613  23.653  0.00  0.00    +0.000 C 
ATOM     39  C   UNL     1      -0.561   9.072  22.363  0.00  0.00    +0.000 C 
ENDBRANCH   1  39
TORSDOF 7
ENDMDL
MODEL 5
REMARK VINA RESULT:      -8.6      1.490      2.090
REMARK  Name = 
REMARK  12 active torsions:
REMARK  status: ('A' for Active; 'I' for Inactive)
REMARK    1  A    between atoms: C_1  and  C_2
REMARK    2  A    between atoms: C_2  and  C_3
REMARK    3  A    between atoms: N_5  and  C_6
REMARK    4  A    between atoms: C_9  and  C_10
REMARK    5  A    between atoms: C_13  and  N_14
REMARK    6  A    between atoms: N_14  and  C_15
REMARK    7  A    between atoms: C_15  and  C_16
REMARK    8  A    between atoms: C_15  and  C_17
REMARK    9  A    between atoms: C_15  and  C_18
REMARK   10  A    between atoms: C_24  and  N_25
REMARK   11  A    between atoms: C_28  and  C_29
REMARK   12  A    between atoms: N_32  and  C_33
REMARK                            x       y       z     vdW  Elec       q    Type
REMARK                         _______ _______ _______ _____ _____    ______ ____
ROOT
ATOM      1  C   UNL     1       0.511   8.590  21.351  0.00  0.00    +0.000 A 
ATOM      2  C   UNL     1       1.007   7.303  21.413  0.00  0.00    +0.000 A 
ATOM      3  N   UNL     1       1.773   7.026  20.309  0.00  0.00    +0.000 N 
ATOM      4  C   UNL     1       1.793   8.148  19.492  0.00  0.00    +0.000 A 
ATOM      5  C   UNL     1       2.330   8.308  18.198  0.00  0.00    +0.000 A 
ATOM      6  C   UNL     1       2.165   9.512  17.528  0.00  0.00    +0.000 A 
ATOM      7  C   UNL     1       1.473  10.549  18.123  0.00  0.00    +0.000 A 
ATOM      8  C   UNL     1       0.931  10.413  19.418  0.00  0.00    +0.000 A 
ATOM      9  C   UNL     1       1.051   9.172  20.129  0.00  0.00    +0.000 A 
ENDROOT
BRANCH   3  10
ATOM     10  C   UNL     1       2.348   5.753  20.046  0.00  0.00    +0.000 A 
ATOM     11  C   UNL     1       1.604   4.584  20.146  0.00  0.00    +0.000 A 
ATOM     12  C   UNL     1       2.234   3.360  19.932  0.00  0.00    +0.000 A 
ATOM     13  C   UNL     1       3.598   3.288  19.575  0.00  0.00    +0.000 A 
ATOM     14  C   UNL     1       4.344   4.476  19.370  0.00  0.00    +0.000 A 
ATOM     15  C   UNL     1       3.700   5.686  19.669  0.00  0.00    +0.000 A 
BRANCH  13  16
ATOM     16  C   UNL     1       4.140   1.896  19.439  0.00  0.00    +0.000 C 
ATOM     17  N   UNL     1       3.697   1.135  18.400  0.00  0.00    +0.000 N 
ATOM     18  O   UNL     1       4.956   1.437  20.232  0.00  0.00    +0.000 OA
ATOM     19  H   UNL     1       2.929   1.469  17.827  0.00  0.00    +0.000 HD
ATOM     20  H   UNL     1       4.002   0.174  18.343  0.00  0.00    +0.000 HD
ENDBRANCH  13  16
BRANCH  14  21
ATOM     21  N   UNL     1       5.713   4.450  19.043  0.00  0.00    +0.000 N 
ATOM     22  H   UNL     1       6.226   4.870  19.825  0.00  0.00    +0.000 HD
BRANCH  21  23
ATOM     23  C   UNL     1       6.276   4.912  17.745  0.00  0.00    +0.000 C 
ATOM     24  C   UNL     1       7.730   4.439  17.583  0.00  0.00    +0.000 C 
ATOM     25  C   UNL     1       5.432   4.227  16.650  0.00  0.00    +0.000 C 
ATOM     26  C   UNL     1       6.146   6.427  17.513  0.00  0.00    +0.000 C 
ENDBRANCH  21  23
ENDBRANCH  14  21
ENDBRANCH   3  10
BRANCH   8  27
ATOM     27  N   UNL     1       0.275  11.544  19.954  0.00  0.00    +0.000 N 
ATOM     28  C   UNL     1       0.849  12.658  20.529  0.00  0.00    +0.000 A 
ATOM     29  N   UNL     1      -0.042  13.583  20.825  0.00  0.00    +0.000 NA
ATOM     30  C   UNL     1      -1.246  13.010  20.517  0.00  0.00    +0.000 A 
ATOM     31  C   UNL     1      -1.076  11.718  20.089  0.00  0.00    +0.000 A 
BRANCH  30  32
ATOM     32  C   UNL     1      -2.494  13.723  20.677  0.00  0.00    +0.000 A 
ATOM     33  C   UNL     1      -3.785  13.182  20.554  0.00  0.00    +0.000 A 
ATOM     34  N   UNL     1      -4.739  14.100  20.758  0.00  0.00    +0.000 NA
ATOM     35  N   UNL     1      -4.043  15.226  21.005  0.00  0.00    +0.000 N 
ATOM     36  C   UNL     1      -4.728  16.478  21.208  0.00  0.00    +0.000 C 
ATOM     37  C   UNL     1      -2.691  15.045  21.003  0.00  0.00    +0.000 A 
ENDBRANCH  30  32
ENDBRANCH   8  27
BRANCH   1  39
ATOM     38  C   UNL     1       0.156   9.499  23.728  0.00  0.00    +0.000 C 
ATOM     39  C   UNL     1      -0.446   9.170  22.364  0.00  0.00    +0.000 C 
ENDBRANCH   1  39
TORSDOF 7
ENDMDL
MODEL 6
REMARK VINA RESULT:      -8.4      1.023      1.488
REMARK  Name = 
REMARK  12 active torsions:
REMARK  status: ('A' for Active; 'I' for Inactive)
REMARK    1  A    between atoms: C_1  and  C_2
REMARK    2  A    between atoms: C_2  and  C_3
REMARK    3  A    between atoms: N_5  and  C_6
REMARK    4  A    between atoms: C_9  and  C_10
REMARK    5  A    between atoms: C_13  and  N_14
REMARK    6  A    between atoms: N_14  and  C_15
REMARK    7  A    between atoms: C_15  and  C_16
REMARK    8  A    between atoms: C_15  and  C_17
REMARK    9  A    between atoms: C_15  and  C_18
REMARK   10  A    between atoms: C_24  and  N_25
REMARK   11  A    between atoms: C_28  and  C_29
REMARK   12  A    between atoms: N_32  and  C_33
REMARK                            x       y       z     vdW  Elec       q    Type
REMARK                         _______ _______ _______ _____ _____    ______ ____
ROOT
ATOM      1  C   UNL     1       0.400   8.460  21.345  0.00  0.00    +0.000 A 
ATOM      2  C   UNL     1       0.859   7.158  21.343  0.00  0.00    +0.000 A 
ATOM      3  N   UNL     1       1.668   6.931  20.259  0.00  0.00    +0.000 N 
ATOM      4  C   UNL     1       1.754   8.104  19.520  0.00  0.00    +0.000 A 
ATOM      5  C   UNL     1       2.354   8.333  18.264  0.00  0.00    +0.000 A 
ATOM      6  C   UNL     1       2.252   9.581  17.669  0.00  0.00    +0.000 A 
ATOM      7  C   UNL     1       1.561  10.598  18.301  0.00  0.00    +0.000 A 
ATOM      8  C   UNL     1       0.956  10.393  19.559  0.00  0.00    +0.000 A 
ATOM      9  C   UNL     1       1.011   9.105  20.189  0.00  0.00    +0.000 A 
ENDROOT
BRANCH   3  10
ATOM     10  C   UNL     1       2.220   5.662  19.937  0.00  0.00    +0.000 A 
ATOM     11  C   UNL     1       2.209   4.611  20.845  0.00  0.00    +0.000 A 
ATOM     12  C   UNL     1       2.815   3.407  20.495  0.00  0.00    +0.000 A 
ATOM     13  C   UNL     1       3.403   3.222  19.225  0.00  0.00    +0.000 A 
ATOM     14  C   UNL     1       3.333   4.250  18.251  0.00  0.00    +0.000 A 
ATOM     15  C   UNL     1       2.784   5.474  18.663  0.00  0.00    +0.000 A 
BRANCH  13  16
ATOM     16  C   UNL     1       4.066   1.891  19.026  0.00  0.00    +0.000 C 
ATOM     17  N   UNL     1       5.083   1.551  19.867  0.00  0.00    +0.000 N 
ATOM     18  O   UNL     1       3.721   1.120  18.137  0.00  0.00    +0.000 OA
ATOM     19  H   UNL     1       5.450   2.241  20.513  0.00  0.00    +0.000 HD
ATOM     20  H   UNL     1       5.581   0.690  19.695  0.00  0.00    +0.000 HD
ENDBRANCH  13  16
BRANCH  14  21
ATOM     21  N   UNL     1       3.930   4.119  16.984  0.00  0.00    +0.000 N 
ATOM     22  H   UNL     1       3.804   3.147  16.681  0.00  0.00    +0.000 HD
BRANCH  21  23
ATOM     23  C   UNL     1       5.300   4.593  16.645  0.00  0.00    +0.000 C 
ATOM     24  C   UNL     1       5.893   3.769  15.491  0.00  0.00    +0.000 C 
ATOM     25  C   UNL     1       5.134   6.046  16.152  0.00  0.00    +0.000 C 
ATOM     26  C   UNL     1       6.255   4.648  17.849  0.00  0.00    +0.000 C 
ENDBRANCH  21  23
ENDBRANCH  14  21
ENDBRANCH   3  10
BRANCH   8  27
ATOM     27  N   UNL     1       0.305  11.504  20.140  0.00  0.00    +0.000 N 
ATOM     28  C   UNL     1      -1.034  11.827  20.072  0.00  0.00    +0.000 A 
ATOM     29  N   UNL     1      -1.334  12.870  20.820  0.00  0.00    +0.000 NA
ATOM     30  C   UNL     1      -0.132  13.294  21.317  0.00  0.00    +0.000 A 
ATOM     31  C   UNL     1       0.896  12.535  20.817  0.00  0.00    +0.000 A 
BRANCH  30  32
ATOM     32  C   UNL     1      -0.032  14.420  22.219  0.00  0.00    +0.000 A 
ATOM     33  C   UNL     1      -0.884  14.699  23.301  0.00  0.00    +0.000 A 
ATOM     34  N   UNL     1      -0.530  15.820  23.946  0.00  0.00    +0.000 NA
ATOM     35  N   UNL     1       0.547  16.249  23.260  0.00  0.00    +0.000 N 
ATOM     36  C   UNL     1       1.186  17.493  23.610  0.00  0.00    +0.000 C 
ATOM     37  C   UNL     1       0.908  15.425  22.235  0.00  0.00    +0.000 A 
ENDBRANCH  30  32
ENDBRANCH   8  27
BRANCH   1  39
ATOM     38  C   UNL     1       0.003   9.886  23.446  0.00  0.00    +0.000 C 
ATOM     39  C   UNL     1      -0.587   9.000  22.350  0.00  0.00    +0.000 C 
ENDBRANCH   1  39
TORSDOF 7
ENDMDL
MODEL 7
REMARK VINA RESULT:      -8.4      1.666      2.248
REMARK  Name = 
REMARK  12 active torsions:
REMARK  status: ('A' for Active; 'I' for Inactive)
REMARK    1  A    between atoms: C_1  and  C_2
REMARK    2  A    between atoms: C_2  and  C_3
REMARK    3  A    between atoms: N_5  and  C_6
REMARK    4  A    between atoms: C_9  and  C_10
REMARK    5  A    between atoms: C_13  and  N_14
REMARK    6  A    between atoms: N_14  and  C_15
REMARK    7  A    between atoms: C_15  and  C_16
REMARK    8  A    between atoms: C_15  and  C_17
REMARK    9  A    between atoms: C_15  and  C_18
REMARK   10  A    between atoms: C_24  and  N_25
REMARK   11  A    between atoms: C_28  and  C_29
REMARK   12  A    between atoms: N_32  and  C_33
REMARK                            x       y       z     vdW  Elec       q    Type
REMARK                         _______ _______ _______ _____ _____    ______ ____
ROOT
ATOM      1  C   UNL     1       0.370   8.443  21.385  0.00  0.00    +0.000 A 
ATOM      2  C   UNL     1       0.845   7.147  21.398  0.00  0.00    +0.000 A 
ATOM      3  N   UNL     1       1.652   6.917  20.312  0.00  0.00    +0.000 N 
ATOM      4  C   UNL     1       1.719   8.081  19.558  0.00  0.00    +0.000 A 
ATOM      5  C   UNL     1       2.310   8.301  18.296  0.00  0.00    +0.000 A 
ATOM      6  C   UNL     1       2.189   9.541  17.685  0.00  0.00    +0.000 A 
ATOM      7  C   UNL     1       1.488  10.556  18.308  0.00  0.00    +0.000 A 
ATOM      8  C   UNL     1       0.892  10.359  19.571  0.00  0.00    +0.000 A 
ATOM      9  C   UNL     1       0.966   9.080  20.218  0.00  0.00    +0.000 A 
ENDROOT
BRANCH   3  10
ATOM     10  C   UNL     1       2.219   5.650  20.003  0.00  0.00    +0.000 A 
ATOM     11  C   UNL     1       2.208   4.605  20.918  0.00  0.00    +0.000 A 
ATOM     12  C   UNL     1       2.829   3.405  20.581  0.00  0.00    +0.000 A 
ATOM     13  C   UNL     1       3.431   3.217  19.318  0.00  0.00    +0.000 A 
ATOM     14  C   UNL     1       3.361   4.238  18.337  0.00  0.00    +0.000 A 
ATOM     15  C   UNL     1       2.797   5.460  18.736  0.00  0.00    +0.000 A 
BRANCH  13  16
ATOM     16  C   UNL     1       4.108   1.891  19.135  0.00  0.00    +0.000 C 
ATOM     17  N   UNL     1       5.119   1.565  19.987  0.00  0.00    +0.000 N 
ATOM     18  O   UNL     1       3.779   1.111  18.247  0.00  0.00    +0.000 OA
ATOM     19  H   UNL     1       5.474   2.262  20.633  0.00  0.00    +0.000 HD
ATOM     20  H   UNL     1       5.627   0.708  19.826  0.00  0.00    +0.000 HD
ENDBRANCH  13  16
BRANCH  14  21
ATOM     21  N   UNL     1       3.972   4.104  17.076  0.00  0.00    +0.000 N 
ATOM     22  H   UNL     1       3.887   3.122  16.794  0.00  0.00    +0.000 HD
BRANCH  21  23
ATOM     23  C   UNL     1       5.323   4.627  16.736  0.00  0.00    +0.000 C 
ATOM     24  C   UNL     1       5.949   3.816  15.590  0.00  0.00    +0.000 C 
ATOM     25  C   UNL     1       5.104   6.069  16.231  0.00  0.00    +0.000 C 
ATOM     26  C   UNL     1       6.274   4.727  17.941  0.00  0.00    +0.000 C 
ENDBRANCH  21  23
ENDBRANCH  14  21
ENDBRANCH   3  10
BRANCH   8  27
ATOM     27  N   UNL     1       0.230  11.470  20.141  0.00  0.00    +0.000 N 
ATOM     28  C   UNL     1       0.793  12.527  20.825  0.00  0.00    +0.000 A 
ATOM     29  N   UNL     1      -0.093  13.455  21.127  0.00  0.00    +0.000 NA
ATOM     30  C   UNL     1      -1.288  12.938  20.706  0.00  0.00    +0.000 A 
ATOM     31  C   UNL     1      -1.122  11.673  20.202  0.00  0.00    +0.000 A 
BRANCH  30  32
ATOM     32  C   UNL     1      -2.527  13.674  20.837  0.00  0.00    +0.000 A 
ATOM     33  C   UNL     1      -3.810  13.212  20.497  0.00  0.00    +0.000 A 
ATOM     34  N   UNL     1      -4.756  14.132  20.732  0.00  0.00    +0.000 NA
ATOM     35  N   UNL     1      -4.061  15.179  21.217  0.00  0.00    +0.000 N 
ATOM     36  C   UNL     1      -4.731  16.417  21.529  0.00  0.00    +0.000 C 
ATOM     37  C   UNL     1      -2.722  14.942  21.332  0.00  0.00    +0.000 A 
ENDBRANCH  30  32
ENDBRANCH   8  27
BRANCH   1  39
ATOM     38  C   UNL     1      -0.029   9.857  23.493  0.00  0.00    +0.000 C 
ATOM     39  C   UNL     1      -0.619   8.983  22.389  0.00  0.00    +0.000 C 
ENDBRANCH   1  39
TORSDOF 7
ENDMDL
MODEL 8
REMARK VINA RESULT:      -8.3      2.761      4.664
REMARK  Name = 
REMARK  12 active torsions:
REMARK  status: ('A' for Active; 'I' for Inactive)
REMARK    1  A    between atoms: C_1  and  C_2
REMARK    2  A    between atoms: C_2  and  C_3
REMARK    3  A    between atoms: N_5  and  C_6
REMARK    4  A    between atoms: C_9  and  C_10
REMARK    5  A    between atoms: C_13  and  N_14
REMARK    6  A    between atoms: N_14  and  C_15
REMARK    7  A    between atoms: C_15  and  C_16
REMARK    8  A    between atoms: C_15  and  C_17
REMARK    9  A    between atoms: C_15  and  C_18
REMARK   10  A    between atoms: C_24  and  N_25
REMARK   11  A    between atoms: C_28  and  C_29
REMARK   12  A    between atoms: N_32  and  C_33
REMARK                            x       y       z     vdW  Elec       q    Type
REMARK                         _______ _______ _______ _____ _____    ______ ____
ROOT
ATOM      1  C   UNL     1      -0.222  10.939  18.908  0.00  0.00    +0.000 A 
ATOM      2  C   UNL     1       0.607  10.030  18.281  0.00  0.00    +0.000 A 
ATOM      3  N   UNL     1       1.124   9.140  19.190  0.00  0.00    +0.000 N 
ATOM      4  C   UNL     1       0.630   9.458  20.448  0.00  0.00    +0.000 A 
ATOM      5  C   UNL     1       0.969   8.923  21.708  0.00  0.00    +0.000 A 
ATOM      6  C   UNL     1       0.400   9.451  22.857  0.00  0.00    +0.000 A 
ATOM      7  C   UNL     1      -0.494  10.501  22.770  0.00  0.00    +0.000 A 
ATOM      8  C   UNL     1      -0.851  11.050  21.520  0.00  0.00    +0.000 A 
ATOM      9  C   UNL     1      -0.256  10.553  20.313  0.00  0.00    +0.000 A 
ENDROOT
BRANCH   3  10
ATOM     10  C   UNL     1       2.079   8.140  18.861  0.00  0.00    +0.000 A 
ATOM     11  C   UNL     1       2.961   8.297  17.800  0.00  0.00    +0.000 A 
ATOM     12  C   UNL     1       3.837   7.260  17.489  0.00  0.00    +0.000 A 
ATOM     13  C   UNL     1       3.873   6.074  18.254  0.00  0.00    +0.000 A 
ATOM     14  C   UNL     1       3.050   5.941  19.401  0.00  0.00    +0.000 A 
ATOM     15  C   UNL     1       2.127   6.971  19.639  0.00  0.00    +0.000 A 
BRANCH  13  16
ATOM     16  C   UNL     1       4.828   5.031  17.754  0.00  0.00    +0.000 C 
ATOM     17  N   UNL     1       4.807   4.728  16.425  0.00  0.00    +0.000 N 
ATOM     18  O   UNL     1       5.610   4.454  18.502  0.00  0.00    +0.000 OA
ATOM     19  H   UNL     1       4.075   5.110  15.837  0.00  0.00    +0.000 HD
ATOM     20  H   UNL     1       5.395   3.978  16.094  0.00  0.00    +0.000 HD
ENDBRANCH  13  16
BRANCH  14  21
ATOM     21  N   UNL     1       3.033   4.765  20.175  0.00  0.00    +0.000 N 
ATOM     22  H   UNL     1       4.007   4.511  20.373  0.00  0.00    +0.000 HD
BRANCH  21  23
ATOM     23  C   UNL     1       2.238   3.552  19.844  0.00  0.00    +0.000 C 
ATOM     24  C   UNL     1       3.142   2.311  19.767  0.00  0.00    +0.000 C 
ATOM     25  C   UNL     1       1.261   3.352  21.023  0.00  0.00    +0.000 C 
ATOM     26  C   UNL     1       1.372   3.699  18.581  0.00  0.00    +0.000 C 
ENDBRANCH  21  23
ENDBRANCH  14  21
ENDBRANCH   3  10
BRANCH   8  27
ATOM     27  N   UNL     1      -1.801  12.096  21.534  0.00  0.00    +0.000 N 
ATOM     28  C   UNL     1      -1.669  13.348  22.097  0.00  0.00    +0.000 A 
ATOM     29  N   UNL     1      -2.700  14.125  21.832  0.00  0.00    +0.000 NA
ATOM     30  C   UNL     1      -3.572  13.319  21.154  0.00  0.00    +0.000 A 
ATOM     31  C   UNL     1      -3.084  12.040  21.062  0.00  0.00    +0.000 A 
BRANCH  30  32
ATOM     32  C   UNL     1      -4.839  13.812  20.656  0.00  0.00    +0.000 A 
ATOM     33  C   UNL     1      -5.521  14.956  21.102  0.00  0.00    +0.000 A 
ATOM     34  N   UNL     1      -6.673  15.145  20.444  0.00  0.00    +0.000 NA
ATOM     35  N   UNL     1      -6.715  14.110  19.584  0.00  0.00    +0.000 N 
ATOM     36  C   UNL     1      -7.861  13.917  18.730  0.00  0.00    +0.000 C 
ATOM     37  C   UNL     1      -5.620  13.299  19.647  0.00  0.00    +0.000 A 
ENDBRANCH  30  32
ENDBRANCH   8  27
BRANCH   1  39
ATOM     38  C   UNL     1      -0.309  13.483  18.553  0.00  0.00    +0.000 C 
ATOM     39  C   UNL     1      -0.870  12.106  18.204  0.00  0.00    +0.000 C 
ENDBRANCH   1  39
TORSDOF 7
ENDMDL
MODEL 9
REMARK VINA RESULT:      -8.2      2.051      3.916
REMARK  Name = 
REMARK  12 active torsions:
REMARK  status: ('A' for Active; 'I' for Inactive)
REMARK    1  A    between atoms: C_1  and  C_2
REMARK    2  A    between atoms: C_2  and  C_3
REMARK    3  A    between atoms: N_5  and  C_6
REMARK    4  A    between atoms: C_9  and  C_10
REMARK    5  A    between atoms: C_13  and  N_14
REMARK    6  A    between atoms: N_14  and  C_15
REMARK    7  A    between atoms: C_15  and  C_16
REMARK    8  A    between atoms: C_15  and  C_17
REMARK    9  A    between atoms: C_15  and  C_18
REMARK   10  A    between atoms: C_24  and  N_25
REMARK   11  A    between atoms: C_28  and  C_29
REMARK   12  A    between atoms: N_32  and  C_33
REMARK                            x       y       z     vdW  Elec       q    Type
REMARK                         _______ _______ _______ _____ _____    ______ ____
ROOT
ATOM      1  C   UNL     1      -0.184  11.115  19.129  0.00  0.00    +0.000 A 
ATOM      2  C   UNL     1       0.633  10.213  18.475  0.00  0.00    +0.000 A 
ATOM      3  N   UNL     1       1.077   9.246  19.342  0.00  0.00    +0.000 N 
ATOM      4  C   UNL     1       0.548   9.505  20.599  0.00  0.00    +0.000 A 
ATOM      5  C   UNL     1       0.817   8.876  21.833  0.00  0.00    +0.000 A 
ATOM      6  C   UNL     1       0.225   9.354  22.993  0.00  0.00    +0.000 A 
ATOM      7  C   UNL     1      -0.622  10.445  22.942  0.00  0.00    +0.000 A 
ATOM      8  C   UNL     1      -0.908  11.087  21.718  0.00  0.00    +0.000 A 
ATOM      9  C   UNL     1      -0.287  10.643  20.503  0.00  0.00    +0.000 A 
ENDROOT
BRANCH   3  10
ATOM     10  C   UNL     1       2.003   8.230  18.983  0.00  0.00    +0.000 A 
ATOM     11  C   UNL     1       2.770   8.317  17.828  0.00  0.00    +0.000 A 
ATOM     12  C   UNL     1       3.619   7.264  17.498  0.00  0.00    +0.000 A 
ATOM     13  C   UNL     1       3.747   6.133  18.333  0.00  0.00    +0.000 A 
ATOM     14  C   UNL     1       3.049   6.076  19.566  0.00  0.00    +0.000 A 
ATOM     15  C   UNL     1       2.145   7.116  19.829  0.00  0.00    +0.000 A 
BRANCH  13  16
ATOM     16  C   UNL     1       4.656   5.062  17.808  0.00  0.00    +0.000 C 
ATOM     17  N   UNL     1       4.221   4.311  16.757  0.00  0.00    +0.000 N 
ATOM     18  O   UNL     1       5.760   4.849  18.298  0.00  0.00    +0.000 OA
ATOM     19  H   UNL     1       3.261   4.401  16.442  0.00  0.00    +0.000 HD
ATOM     20  H   UNL     1       4.796   3.543  16.445  0.00  0.00    +0.000 HD
ENDBRANCH  13  16
BRANCH  14  21
ATOM     21  N   UNL     1       3.124   4.955  20.415  0.00  0.00    +0.000 N 
ATOM     22  H   UNL     1       4.116   4.781  20.609  0.00  0.00    +0.000 HD
BRANCH  21  23
ATOM     23  C   UNL     1       2.409   3.672  20.180  0.00  0.00    +0.000 C 
ATOM     24  C   UNL     1       3.403   2.540  19.878  0.00  0.00    +0.000 C 
ATOM     25  C   UNL     1       1.698   3.335  21.509  0.00  0.00    +0.000 C 
ATOM     26  C   UNL     1       1.309   3.759  19.108  0.00  0.00    +0.000 C 
ENDBRANCH  21  23
ENDBRANCH  14  21
ENDBRANCH   3  10
BRANCH   8  27
ATOM     27  N   UNL     1      -1.816  12.169  21.765  0.00  0.00    +0.000 N 
ATOM     28  C   UNL     1      -3.029  12.280  21.118  0.00  0.00    +0.000 A 
ATOM     29  N   UNL     1      -3.681  13.371  21.467  0.00  0.00    +0.000 NA
ATOM     30  C   UNL     1      -2.821  14.036  22.296  0.00  0.00    +0.000 A 
ATOM     31  C   UNL     1      -1.628  13.366  22.399  0.00  0.00    +0.000 A 
BRANCH  30  32
ATOM     32  C   UNL     1      -3.179  15.291  22.922  0.00  0.00    +0.000 A 
ATOM     33  C   UNL     1      -2.629  16.552  22.635  0.00  0.00    +0.000 A 
ATOM     34  N   UNL     1      -3.168  17.520  23.388  0.00  0.00    +0.000 NA
ATOM     35  N   UNL     1      -4.057  16.862  24.155  0.00  0.00    +0.000 N 
ATOM     36  C   UNL     1      -4.805  17.563  25.169  0.00  0.00    +0.000 C 
ATOM     37  C   UNL     1      -4.127  15.526  23.890  0.00  0.00    +0.000 A 
ENDBRANCH  30  32
ENDBRANCH   8  27
BRANCH   1  39
ATOM     38  C   UNL     1      -0.119  13.673  18.897  0.00  0.00    +0.000 C 
ATOM     39  C   UNL     1      -0.757  12.350  18.479  0.00  0.00    +0.000 C 
ENDBRANCH   1  39
TORSDOF 7
ENDMDL
