MODEL 1
REMARK VINA RESULT:      -7.3      0.000      0.000
REMARK  Name = 
REMARK  8 active torsions:
REMARK  status: ('A' for Active; 'I' for Inactive)
REMARK    1  A    between atoms: C_1  and  C_2
REMARK    2  A    between atoms: C_2  and  C_3
REMARK    3  A    between atoms: C_7  and  C_8
REMARK    4  A    between atoms: C_8  and  S_9
REMARK    5  A    between atoms: S_9  and  O_12
REMARK    6  A    between atoms: O_12  and  C_13
REMARK    7  A    between atoms: C_21  and  N_22
REMARK    8  A    between atoms: C_25  and  N_26
REMARK                            x       y       z     vdW  Elec       q    Type
REMARK                         _______ _______ _______ _____ _____    ______ ____
ROOT
ATOM      1  C   UNL     1       1.610   8.510  19.947  0.00  0.00    +0.000 A 
ATOM      2  C   UNL     1       1.110   7.466  20.753  0.00  0.00    +0.000 A 
ATOM      3  C   UNL     1       0.150   7.707  21.724  0.00  0.00    +0.000 A 
ATOM      4  C   UNL     1      -0.342   8.991  21.885  0.00  0.00    +0.000 A 
ATOM      5  C   UNL     1       0.090  10.024  21.041  0.00  0.00    +0.000 A 
ATOM      6  C   UNL     1       1.041   9.795  20.051  0.00  0.00    +0.000 A 
ATOM      7  C   UNL     1       1.371  10.892  19.114  0.00  0.00    +0.000 C 
ATOM      8  O   UNL     1       1.937  10.618  18.059  0.00  0.00    +0.000 OA
ATOM      9  C   UNL     1       0.942  12.307  19.450  0.00  0.00    +0.000 C 
ATOM     10  C   UNL     1      -0.008  12.505  20.398  0.00  0.00    +0.000 C 
ATOM     11  C   UNL     1      -0.497  11.352  21.239  0.00  0.00    +0.000 C 
ATOM     12  O   UNL     1      -1.365  11.492  22.093  0.00  0.00    +0.000 OA
ENDROOT
BRANCH   9  13
ATOM     13  N   UNL     1       1.409  13.378  18.673  0.00  0.00    +0.000 N 
ATOM     14  C   UNL     1       2.467  14.210  19.243  0.00  0.00    +0.000 C 
ATOM     15  C   UNL     1       2.681  13.424  17.978  0.00  0.00    +0.000 C 
ENDBRANCH   9  13
BRANCH  10  16
ATOM     16  N   UNL     1      -0.566  13.735  20.774  0.00  0.00    +0.000 N 
ATOM     17  C   UNL     1      -1.022  14.706  19.790  0.00  0.00    +0.000 C 
ATOM     18  C   UNL     1      -2.012  13.887  20.570  0.00  0.00    +0.000 C 
ENDBRANCH  10  16
BRANCH   1  19
ATOM     19  O   UNL     1       2.674   8.306  19.087  0.00  0.00    +0.000 OA
BRANCH  19  20
ATOM     20  S   UNL     1       2.779   6.921  18.220  0.00  0.00    +0.000 S 
ATOM     21  O   UNL     1       3.850   7.084  17.264  0.00  0.00    +0.000 OA
ATOM     22  O   UNL     1       1.439   6.560  17.789  0.00  0.00    +0.000 OA
BRANCH  20  23
ATOM     23  C   UNL     1       3.242   5.788  19.537  0.00  0.00    +0.000 C 
BRANCH  23  30
ATOM     24  C   UNL     1       0.690   3.741  19.903  0.00  0.00    +0.000 C 
ATOM     25  C   UNL     1       2.193   3.410  19.985  0.00  0.00    +0.000 C 
ATOM     26  C   UNL     1       2.547   3.361  21.487  0.00  0.00    +0.000 C 
ATOM     27  C   UNL     1       2.578   2.128  19.188  0.00  0.00    +0.000 C 
ATOM     28  C   UNL     1       2.283   2.523  17.724  0.00  0.00    +0.000 C 
ATOM     29  C   UNL     1       2.678   4.015  17.682  0.00  0.00    +0.000 C 
ATOM     30  C   UNL     1       3.138   4.320  19.132  0.00  0.00    +0.000 C 
ATOM     31  C   UNL     1       4.427   3.511  19.316  0.00  0.00    +0.000 C 
ATOM     32  O   UNL     1       5.541   3.960  19.520  0.00  0.00    +0.000 OA
ATOM     33  C   UNL     1       4.111   2.033  19.325  0.00  0.00    +0.000 C 
ENDBRANCH  23  30
ENDBRANCH  20  23
ENDBRANCH  19  20
ENDBRANCH   1  19
TORSDOF 6
ENDMDL
MODEL 2
REMARK VINA RESULT:      -7.1      1.983      2.821
REMARK  Name = 
REMARK  8 active torsions:
REMARK  status: ('A' for Active; 'I' for Inactive)
REMARK    1  A    between atoms: C_1  and  C_2
REMARK    2  A    between atoms: C_2  and  C_3
REMARK    3  A    between atoms: C_7  and  C_8
REMARK    4  A    between atoms: C_8  and  S_9
REMARK    5  A    between atoms: S_9  and  O_12
REMARK    6  A    between atoms: O_12  and  C_13
REMARK    7  A    between atoms: C_21  and  N_22
REMARK    8  A    between atoms: C_25  and  N_26
REMARK                            x       y       z     vdW  Elec       q    Type
REMARK                         _______ _______ _______ _____ _____    ______ ____
ROOT
ATOM      1  C   UNL     1       1.271   8.844  19.976  0.00  0.00    +0.000 A 
ATOM      2  C   UNL     1       0.705   7.800  20.735  0.00  0.00    +0.000 A 
ATOM      3  C   UNL     1      -0.079   8.065  21.848  0.00  0.00    +0.000 A 
ATOM      4  C   UNL     1      -0.327   9.380  22.201  0.00  0.00    +0.000 A 
ATOM      5  C   UNL     1       0.167  10.430  21.413  0.00  0.00    +0.000 A 
ATOM      6  C   UNL     1       0.941  10.178  20.284  0.00  0.00    +0.000 A 
ATOM      7  C   UNL     1       1.335  11.317  19.424  0.00  0.00    +0.000 C 
ATOM      8  O   UNL     1       1.716  11.089  18.279  0.00  0.00    +0.000 OA
ATOM      9  C   UNL     1       1.191  12.730  19.954  0.00  0.00    +0.000 C 
ATOM     10  C   UNL     1       0.407  12.955  21.039  0.00  0.00    +0.000 C 
ATOM     11  C   UNL     1      -0.162  11.798  21.821  0.00  0.00    +0.000 C 
ATOM     12  O   UNL     1      -0.886  11.965  22.795  0.00  0.00    +0.000 OA
ENDROOT
BRANCH   9  13
ATOM     13  N   UNL     1       1.733  13.803  19.230  0.00  0.00    +0.000 N 
ATOM     14  C   UNL     1       3.023  14.330  19.675  0.00  0.00    +0.000 C 
ATOM     15  C   UNL     1       2.851  13.720  18.310  0.00  0.00    +0.000 C 
ENDBRANCH   9  13
BRANCH  10  16
ATOM     16  N   UNL     1       0.111  14.203  21.608  0.00  0.00    +0.000 N 
ATOM     17  C   UNL     1      -0.406  15.307  20.813  0.00  0.00    +0.000 C 
ATOM     18  C   UNL     1      -1.312  14.541  21.737  0.00  0.00    +0.000 C 
ENDBRANCH  10  16
BRANCH   1  19
ATOM     19  O   UNL     1       2.176   8.585  18.961  0.00  0.00    +0.000 OA
BRANCH  19  20
ATOM     20  S   UNL     1       2.602   7.043  18.611  0.00  0.00    +0.000 S 
ATOM     21  O   UNL     1       1.582   6.494  17.748  0.00  0.00    +0.000 OA
ATOM     22  O   UNL     1       2.963   6.386  19.855  0.00  0.00    +0.000 OA
BRANCH  20  23
ATOM     23  C   UNL     1       4.124   7.359  17.710  0.00  0.00    +0.000 C 
BRANCH  23  30
ATOM     24  C   UNL     1       6.062   5.215  19.288  0.00  0.00    +0.000 C 
ATOM     25  C   UNL     1       6.132   5.652  17.811  0.00  0.00    +0.000 C 
ATOM     26  C   UNL     1       7.249   6.714  17.724  0.00  0.00    +0.000 C 
ATOM     27  C   UNL     1       6.301   4.453  16.830  0.00  0.00    +0.000 C 
ATOM     28  C   UNL     1       4.983   3.667  17.005  0.00  0.00    +0.000 C 
ATOM     29  C   UNL     1       3.940   4.784  17.220  0.00  0.00    +0.000 C 
ATOM     30  C   UNL     1       4.776   6.091  17.165  0.00  0.00    +0.000 C 
ATOM     31  C   UNL     1       5.260   6.190  15.714  0.00  0.00    +0.000 C 
ATOM     32  O   UNL     1       4.974   7.063  14.913  0.00  0.00    +0.000 OA
ATOM     33  C   UNL     1       6.258   5.092  15.428  0.00  0.00    +0.000 C 
ENDBRANCH  23  30
ENDBRANCH  20  23
ENDBRANCH  19  20
ENDBRANCH   1  19
TORSDOF 6
ENDMDL
MODEL 3
REMARK VINA RESULT:      -7.0      3.309      8.746
REMARK  Name = 
REMARK  8 active torsions:
REMARK  status: ('A' for Active; 'I' for Inactive)
REMARK    1  A    between atoms: C_1  and  C_2
REMARK    2  A    between atoms: C_2  and  C_3
REMARK    3  A    between atoms: C_7  and  C_8
REMARK    4  A    between atoms: C_8  and  S_9
REMARK    5  A    between atoms: S_9  and  O_12
REMARK    6  A    between atoms: O_12  and  C_13
REMARK    7  A    between atoms: C_21  and  N_22
REMARK    8  A    between atoms: C_25  and  N_26
REMARK                            x       y       z     vdW  Elec       q    Type
REMARK                         _______ _______ _______ _____ _____    ______ ____
ROOT
ATOM      1  C   UNL     1       1.346   8.249  19.850  0.00  0.00    +0.000 A 
ATOM      2  C   UNL     1       1.160   9.442  19.121  0.00  0.00    +0.000 A 
ATOM      3  C   UNL     1       1.891   9.701  17.972  0.00  0.00    +0.000 A 
ATOM      4  C   UNL     1       2.801   8.759  17.523  0.00  0.00    +0.000 A 
ATOM      5  C   UNL     1       2.943   7.536  18.195  0.00  0.00    +0.000 A 
ATOM      6  C   UNL     1       2.203   7.255  19.340  0.00  0.00    +0.000 A 
ATOM      7  C   UNL     1       2.305   5.905  19.939  0.00  0.00    +0.000 C 
ATOM      8  O   UNL     1       1.434   5.539  20.723  0.00  0.00    +0.000 OA
ATOM      9  C   UNL     1       3.438   4.991  19.516  0.00  0.00    +0.000 C 
ATOM     10  C   UNL     1       4.126   5.269  18.379  0.00  0.00    +0.000 C 
ATOM     11  C   UNL     1       3.895   6.567  17.647  0.00  0.00    +0.000 C 
ATOM     12  O   UNL     1       4.486   6.843  16.610  0.00  0.00    +0.000 OA
ENDROOT
BRANCH   9  13
ATOM     13  N   UNL     1       3.659   3.790  20.207  0.00  0.00    +0.000 N 
ATOM     14  C   UNL     1       2.500   2.932  20.450  0.00  0.00    +0.000 C 
ATOM     15  C   UNL     1       3.662   2.466  19.616  0.00  0.00    +0.000 C 
ENDBRANCH   9  13
BRANCH  10  16
ATOM     16  N   UNL     1       5.147   4.492  17.812  0.00  0.00    +0.000 N 
ATOM     17  C   UNL     1       6.229   5.087  17.041  0.00  0.00    +0.000 C 
ATOM     18  C   UNL     1       6.470   4.592  18.440  0.00  0.00    +0.000 C 
ENDBRANCH  10  16
BRANCH   1  19
ATOM     19  O   UNL     1       0.734   8.055  21.076  0.00  0.00    +0.000 OA
BRANCH  19  20
ATOM     20  S   UNL     1       0.418   9.332  22.051  0.00  0.00    +0.000 S 
ATOM     21  O   UNL     1       1.681   9.823  22.549  0.00  0.00    +0.000 OA
ATOM     22  O   UNL     1      -0.648   8.947  22.961  0.00  0.00    +0.000 OA
BRANCH  20  23
ATOM     23  C   UNL     1      -0.291  10.454  20.839  0.00  0.00    +0.000 C 
BRANCH  23  30
ATOM     24  C   UNL     1      -2.985  12.336  20.640  0.00  0.00    +0.000 C 
ATOM     25  C   UNL     1      -1.509  12.782  20.606  0.00  0.00    +0.000 C 
ATOM     26  C   UNL     1      -1.155  12.998  19.119  0.00  0.00    +0.000 C 
ATOM     27  C   UNL     1      -1.223  14.007  21.524  0.00  0.00    +0.000 C 
ATOM     28  C   UNL     1      -1.493  13.455  22.941  0.00  0.00    +0.000 C 
ATOM     29  C   UNL     1      -0.990  11.999  22.847  0.00  0.00    +0.000 C 
ATOM     30  C   UNL     1      -0.504  11.867  21.379  0.00  0.00    +0.000 C 
ATOM     31  C   UNL     1       0.724  12.781  21.286  0.00  0.00    +0.000 C 
ATOM     32  O   UNL     1       1.868  12.435  21.053  0.00  0.00    +0.000 OA
ATOM     33  C   UNL     1       0.299  14.226  21.412  0.00  0.00    +0.000 C 
ENDBRANCH  23  30
ENDBRANCH  20  23
ENDBRANCH  19  20
ENDBRANCH   1  19
TORSDOF 6
ENDMDL
MODEL 4
REMARK VINA RESULT:      -6.9      5.754      8.896
REMARK  Name = 
REMARK  8 active torsions:
REMARK  status: ('A' for Active; 'I' for Inactive)
REMARK    1  A    between atoms: C_1  and  C_2
REMARK    2  A    between atoms: C_2  and  C_3
REMARK    3  A    between atoms: C_7  and  C_8
REMARK    4  A    between atoms: C_8  and  S_9
REMARK    5  A    between atoms: S_9  and  O_12
REMARK    6  A    between atoms: O_12  and  C_13
REMARK    7  A    between atoms: C_21  and  N_22
REMARK    8  A    between atoms: C_25  and  N_26
REMARK                            x       y       z     vdW  Elec       q    Type
REMARK                         _______ _______ _______ _____ _____    ______ ____
ROOT
ATOM      1  C   UNL     1      -1.576  11.436  19.859  0.00  0.00    +0.000 A 
ATOM      2  C   UNL     1      -0.649  10.772  19.031  0.00  0.00    +0.000 A 
ATOM      3  C   UNL     1      -1.005  10.328  17.766  0.00  0.00    +0.000 A 
ATOM      4  C   UNL     1      -2.288  10.565  17.304  0.00  0.00    +0.000 A 
ATOM      5  C   UNL     1      -3.199  11.290  18.086  0.00  0.00    +0.000 A 
ATOM      6  C   UNL     1      -2.850  11.757  19.351  0.00  0.00    +0.000 A 
ATOM      7  C   UNL     1      -3.808  12.617  20.081  0.00  0.00    +0.000 C 
ATOM      8  O   UNL     1      -3.398  13.295  21.018  0.00  0.00    +0.000 OA
ATOM      9  C   UNL     1      -5.247  12.689  19.608  0.00  0.00    +0.000 C 
ATOM     10  C   UNL     1      -5.559  12.256  18.360  0.00  0.00    +0.000 C 
ATOM     11  C   UNL     1      -4.529  11.540  17.523  0.00  0.00    +0.000 C 
ATOM     12  O   UNL     1      -4.771  11.149  16.388  0.00  0.00    +0.000 OA
ENDROOT
BRANCH   9  13
ATOM     13  N   UNL     1      -6.205  13.345  20.396  0.00  0.00    +0.000 N 
ATOM     14  C   UNL     1      -6.952  12.536  21.359  0.00  0.00    +0.000 C 
ATOM     15  C   UNL     1      -6.063  13.666  21.803  0.00  0.00    +0.000 C 
ENDBRANCH   9  13
BRANCH  10  16
ATOM     16  N   UNL     1      -6.819  12.320  17.747  0.00  0.00    +0.000 N 
ATOM     17  C   UNL     1      -7.771  13.377  18.054  0.00  0.00    +0.000 C 
ATOM     18  C   UNL     1      -7.010  13.387  16.758  0.00  0.00    +0.000 C 
ENDBRANCH  10  16
BRANCH   1  19
ATOM     19  O   UNL     1      -1.273  11.743  21.174  0.00  0.00    +0.000 OA
BRANCH  19  20
ATOM     20  S   UNL     1       0.038  12.658  21.526  0.00  0.00    +0.000 S 
ATOM     21  O   UNL     1       1.212  11.882  21.202  0.00  0.00    +0.000 OA
ATOM     22  O   UNL     1      -0.148  13.214  22.855  0.00  0.00    +0.000 OA
BRANCH  20  23
ATOM     23  C   UNL     1      -0.214  13.992  20.347  0.00  0.00    +0.000 C 
BRANCH  23  30
ATOM     24  C   UNL     1       0.332  17.211  20.767  0.00  0.00    +0.000 C 
ATOM     25  C   UNL     1       0.886  16.289  19.662  0.00  0.00    +0.000 C 
ATOM     26  C   UNL     1       0.004  16.523  18.417  0.00  0.00    +0.000 C 
ATOM     27  C   UNL     1       2.413  16.481  19.419  0.00  0.00    +0.000 C 
ATOM     28  C   UNL     1       3.042  16.017  20.750  0.00  0.00    +0.000 C 
ATOM     29  C   UNL     1       2.127  14.850  21.178  0.00  0.00    +0.000 C 
ATOM     30  C   UNL     1       1.058  14.784  20.054  0.00  0.00    +0.000 C 
ATOM     31  C   UNL     1       1.824  14.330  18.806  0.00  0.00    +0.000 C 
ATOM     32  O   UNL     1       1.653  13.294  18.188  0.00  0.00    +0.000 OA
ATOM     33  C   UNL     1       2.772  15.420  18.360  0.00  0.00    +0.000 C 
ENDBRANCH  23  30
ENDBRANCH  20  23
ENDBRANCH  19  20
ENDBRANCH   1  19
TORSDOF 6
ENDMDL
MODEL 5
REMARK VINA RESULT:      -6.8      3.276      8.985
REMARK  Name = 
REMARK  8 active torsions:
REMARK  status: ('A' for Active; 'I' for Inactive)
REMARK    1  A    between atoms: C_1  and  C_2
REMARK    2  A    between atoms: C_2  and  C_3
REMARK    3  A    between atoms: C_7  and  C_8
REMARK    4  A    between atoms: C_8  and  S_9
REMARK    5  A    between atoms: S_9  and  O_12
REMARK    6  A    between atoms: O_12  and  C_13
REMARK    7  A    between atoms: C_21  and  N_22
REMARK    8  A    between atoms: C_25  and  N_26
REMARK                            x       y       z     vdW  Elec       q    Type
REMARK                         _______ _______ _______ _____ _____    ______ ____
ROOT
ATOM      1  C   UNL     1       1.078   8.927  19.885  0.00  0.00    +0.000 A 
ATOM      2  C   UNL     1       1.036  10.015  18.989  0.00  0.00    +0.000 A 
ATOM      3  C   UNL     1       1.818  10.031  17.844  0.00  0.00    +0.000 A 
ATOM      4  C   UNL     1       2.634   8.947  17.568  0.00  0.00    +0.000 A 
ATOM      5  C   UNL     1       2.630   7.826  18.410  0.00  0.00    +0.000 A 
ATOM      6  C   UNL     1       1.838   7.789  19.554  0.00  0.00    +0.000 A 
ATOM      7  C   UNL     1       1.783   6.536  20.341  0.00  0.00    +0.000 C 
ATOM      8  O   UNL     1       0.859   6.376  21.134  0.00  0.00    +0.000 OA
ATOM      9  C   UNL     1       2.823   5.461  20.095  0.00  0.00    +0.000 C 
ATOM     10  C   UNL     1       3.564   5.502  18.958  0.00  0.00    +0.000 C 
ATOM     11  C   UNL     1       3.488   6.697  18.042  0.00  0.00    +0.000 C 
ATOM     12  O   UNL     1       4.130   6.760  17.000  0.00  0.00    +0.000 OA
ENDROOT
BRANCH   9  13
ATOM     13  N   UNL     1       2.900   4.357  20.957  0.00  0.00    +0.000 N 
ATOM     14  C   UNL     1       1.670   3.600  21.190  0.00  0.00    +0.000 C 
ATOM     15  C   UNL     1       2.874   2.966  20.548  0.00  0.00    +0.000 C 
ENDBRANCH   9  13
BRANCH  10  16
ATOM     16  N   UNL     1       4.511   4.552  18.546  0.00  0.00    +0.000 N 
ATOM     17  C   UNL     1       5.626   4.903  17.679  0.00  0.00    +0.000 C 
ATOM     18  C   UNL     1       5.846   4.658  19.147  0.00  0.00    +0.000 C 
ENDBRANCH  10  16
BRANCH   1  19
ATOM     19  O   UNL     1       0.419   8.974  21.102  0.00  0.00    +0.000 OA
BRANCH  19  20
ATOM     20  S   UNL     1       0.346  10.376  21.946  0.00  0.00    +0.000 S 
ATOM     21  O   UNL     1       1.456  11.197  21.523  0.00  0.00    +0.000 OA
ATOM     22  O   UNL     1       0.150  10.044  23.346  0.00  0.00    +0.000 OA
BRANCH  20  23
ATOM     23  C   UNL     1      -1.215  11.010  21.321  0.00  0.00    +0.000 C 
BRANCH  23  30
ATOM     24  C   UNL     1      -3.620  12.508  22.999  0.00  0.00    +0.000 C 
ATOM     25  C   UNL     1      -2.872  13.017  21.750  0.00  0.00    +0.000 C 
ATOM     26  C   UNL     1      -3.791  12.725  20.544  0.00  0.00    +0.000 C 
ATOM     27  C   UNL     1      -2.421  14.503  21.876  0.00  0.00    +0.000 C 
ATOM     28  C   UNL     1      -1.395  14.462  23.029  0.00  0.00    +0.000 C 
ATOM     29  C   UNL     1      -0.691  13.104  22.819  0.00  0.00    +0.000 C 
ATOM     30  C   UNL     1      -1.404  12.503  21.579  0.00  0.00    +0.000 C 
ATOM     31  C   UNL     1      -1.001  13.412  20.412  0.00  0.00    +0.000 C 
ATOM     32  O   UNL     1      -0.351  13.089  19.433  0.00  0.00    +0.000 OA
ATOM     33  C   UNL     1      -1.629  14.776  20.581  0.00  0.00    +0.000 C 
ENDBRANCH  23  30
ENDBRANCH  20  23
ENDBRANCH  19  20
ENDBRANCH   1  19
TORSDOF 6
ENDMDL
MODEL 6
REMARK VINA RESULT:      -6.5      2.660      3.531
REMARK  Name = 
REMARK  8 active torsions:
REMARK  status: ('A' for Active; 'I' for Inactive)
REMARK    1  A    between atoms: C_1  and  C_2
REMARK    2  A    between atoms: C_2  and  C_3
REMARK    3  A    between atoms: C_7  and  C_8
REMARK    4  A    between atoms: C_8  and  S_9
REMARK    5  A    between atoms: S_9  and  O_12
REMARK    6  A    between atoms: O_12  and  C_13
REMARK    7  A    between atoms: C_21  and  N_22
REMARK    8  A    between atoms: C_25  and  N_26
REMARK                            x       y       z     vdW  Elec       q    Type
REMARK                         _______ _______ _______ _____ _____    ______ ____
ROOT
ATOM      1  C   UNL     1       1.271   8.934  19.860  0.00  0.00    +0.000 A 
ATOM      2  C   UNL     1       1.808   8.530  21.100  0.00  0.00    +0.000 A 
ATOM      3  C   UNL     1       1.351   9.074  22.290  0.00  0.00    +0.000 A 
ATOM      4  C   UNL     1       0.333  10.012  22.258  0.00  0.00    +0.000 A 
ATOM      5  C   UNL     1      -0.262  10.368  21.039  0.00  0.00    +0.000 A 
ATOM      6  C   UNL     1       0.175   9.817  19.837  0.00  0.00    +0.000 A 
ATOM      7  C   UNL     1      -0.567  10.138  18.597  0.00  0.00    +0.000 C 
ATOM      8  O   UNL     1      -0.412   9.420  17.613  0.00  0.00    +0.000 OA
ATOM      9  C   UNL     1      -1.545  11.296  18.598  0.00  0.00    +0.000 C 
ATOM     10  C   UNL     1      -1.980  11.797  19.782  0.00  0.00    +0.000 C 
ATOM     11  C   UNL     1      -1.360  11.337  21.077  0.00  0.00    +0.000 C 
ATOM     12  O   UNL     1      -1.739  11.756  22.165  0.00  0.00    +0.000 OA
ENDROOT
BRANCH   9  13
ATOM     13  N   UNL     1      -2.110  11.730  17.389  0.00  0.00    +0.000 N 
ATOM     14  C   UNL     1      -2.272  10.736  16.328  0.00  0.00    +0.000 C 
ATOM     15  C   UNL     1      -3.456  11.438  16.936  0.00  0.00    +0.000 C 
ENDBRANCH   9  13
BRANCH  10  16
ATOM     16  N   UNL     1      -2.933  12.811  19.958  0.00  0.00    +0.000 N 
ATOM     17  C   UNL     1      -4.362  12.547  19.871  0.00  0.00    +0.000 C 
ATOM     18  C   UNL     1      -3.706  12.772  21.205  0.00  0.00    +0.000 C 
ENDBRANCH  10  16
BRANCH   1  19
ATOM     19  O   UNL     1       1.827   8.510  18.665  0.00  0.00    +0.000 OA
BRANCH  19  20
ATOM     20  S   UNL     1       2.422   6.991  18.526  0.00  0.00    +0.000 S 
ATOM     21  O   UNL     1       1.522   6.247  17.675  0.00  0.00    +0.000 OA
ATOM     22  O   UNL     1       2.756   6.518  19.858  0.00  0.00    +0.000 OA
BRANCH  20  23
ATOM     23  C   UNL     1       3.966   7.359  17.684  0.00  0.00    +0.000 C 
BRANCH  23  30
ATOM     24  C   UNL     1       5.909   5.267  19.324  0.00  0.00    +0.000 C 
ATOM     25  C   UNL     1       6.021   5.714  17.853  0.00  0.00    +0.000 C 
ATOM     26  C   UNL     1       7.107   6.811  17.813  0.00  0.00    +0.000 C 
ATOM     27  C   UNL     1       6.264   4.527  16.874  0.00  0.00    +0.000 C 
ATOM     28  C   UNL     1       4.966   3.700  16.996  0.00  0.00    +0.000 C 
ATOM     29  C   UNL     1       3.881   4.783  17.175  0.00  0.00    +0.000 C 
ATOM     30  C   UNL     1       4.678   6.114  17.159  0.00  0.00    +0.000 C 
ATOM     31  C   UNL     1       5.212   6.237  15.727  0.00  0.00    +0.000 C 
ATOM     32  O   UNL     1       4.930   7.105  14.920  0.00  0.00    +0.000 OA
ATOM     33  C   UNL     1       6.255   5.172  15.474  0.00  0.00    +0.000 C 
ENDBRANCH  23  30
ENDBRANCH  20  23
ENDBRANCH  19  20
ENDBRANCH   1  19
TORSDOF 6
ENDMDL
MODEL 7
REMARK VINA RESULT:      -6.5      0.894      1.174
REMARK  Name = 
REMARK  8 active torsions:
REMARK  status: ('A' for Active; 'I' for Inactive)
REMARK    1  A    between atoms: C_1  and  C_2
REMARK    2  A    between atoms: C_2  and  C_3
REMARK    3  A    between atoms: C_7  and  C_8
REMARK    4  A    between atoms: C_8  and  S_9
REMARK    5  A    between atoms: S_9  and  O_12
REMARK    6  A    between atoms: O_12  and  C_13
REMARK    7  A    between atoms: C_21  and  N_22
REMARK    8  A    between atoms: C_25  and  N_26
REMARK                            x       y       z     vdW  Elec       q    Type
REMARK                         _______ _______ _______ _____ _____    ______ ____
ROOT
ATOM      1  C   UNL     1       1.807   8.228  19.888  0.00  0.00    +0.000 A 
ATOM      2  C   UNL     1       1.298   7.209  20.720  0.00  0.00    +0.000 A 
ATOM      3  C   UNL     1       0.270   7.461  21.616  0.00  0.00    +0.000 A 
ATOM      4  C   UNL     1      -0.280   8.731  21.673  0.00  0.00    +0.000 A 
ATOM      5  C   UNL     1       0.164   9.734  20.800  0.00  0.00    +0.000 A 
ATOM      6  C   UNL     1       1.184   9.491  19.883  0.00  0.00    +0.000 A 
ATOM      7  C   UNL     1       1.530  10.548  18.907  0.00  0.00    +0.000 C 
ATOM      8  O   UNL     1       2.170  10.241  17.906  0.00  0.00    +0.000 OA
ATOM      9  C   UNL     1       1.026  11.960  19.135  0.00  0.00    +0.000 C 
ATOM     10  C   UNL     1       0.011  12.169  20.011  0.00  0.00    +0.000 C 
ATOM     11  C   UNL     1      -0.485  11.045  20.886  0.00  0.00    +0.000 C 
ATOM     12  O   UNL     1      -1.409  11.194  21.676  0.00  0.00    +0.000 OA
ENDROOT
BRANCH   9  13
ATOM     13  N   UNL     1       1.499  13.006  18.328  0.00  0.00    +0.000 N 
ATOM     14  C   UNL     1       2.393  13.982  18.949  0.00  0.00    +0.000 C 
ATOM     15  C   UNL     1       2.845  13.121  17.801  0.00  0.00    +0.000 C 
ENDBRANCH   9  13
BRANCH  10  16
ATOM     16  N   UNL     1      -0.617  13.394  20.282  0.00  0.00    +0.000 N 
ATOM     17  C   UNL     1      -1.373  13.618  21.506  0.00  0.00    +0.000 C 
ATOM     18  C   UNL     1      -0.008  14.223  21.329  0.00  0.00    +0.000 C 
ENDBRANCH  10  16
BRANCH   1  19
ATOM     19  O   UNL     1       2.930   8.021  19.107  0.00  0.00    +0.000 OA
BRANCH  19  20
ATOM     20  S   UNL     1       2.993   6.755  18.070  0.00  0.00    +0.000 S 
ATOM     21  O   UNL     1       4.041   7.025  17.114  0.00  0.00    +0.000 OA
ATOM     22  O   UNL     1       1.637   6.467  17.634  0.00  0.00    +0.000 OA
BRANCH  20  23
ATOM     23  C   UNL     1       3.471   5.461  19.222  0.00  0.00    +0.000 C 
BRANCH  23  30
ATOM     24  C   UNL     1       2.239   3.285  21.363  0.00  0.00    +0.000 C 
ATOM     25  C   UNL     1       2.941   3.004  20.020  0.00  0.00    +0.000 C 
ATOM     26  C   UNL     1       4.399   2.629  20.361  0.00  0.00    +0.000 C 
ATOM     27  C   UNL     1       2.189   1.952  19.149  0.00  0.00    +0.000 C 
ATOM     28  C   UNL     1       0.855   2.657  18.821  0.00  0.00    +0.000 C 
ATOM     29  C   UNL     1       1.274   4.134  18.658  0.00  0.00    +0.000 C 
ATOM     30  C   UNL     1       2.802   4.119  18.932  0.00  0.00    +0.000 C 
ATOM     31  C   UNL     1       3.407   3.341  17.757  0.00  0.00    +0.000 C 
ATOM     32  O   UNL     1       4.179   3.776  16.921  0.00  0.00    +0.000 OA
ATOM     33  C   UNL     1       2.997   1.889  17.837  0.00  0.00    +0.000 C 
ENDBRANCH  23  30
ENDBRANCH  20  23
ENDBRANCH  19  20
ENDBRANCH   1  19
TORSDOF 6
ENDMDL
MODEL 8
REMARK VINA RESULT:      -6.5      3.261      8.924
REMARK  Name = 
REMARK  8 active torsions:
REMARK  status: ('A' for Active; 'I' for Inactive)
REMARK    1  A    between atoms: C_1  and  C_2
REMARK    2  A    between atoms: C_2  and  C_3
REMARK    3  A    between atoms: C_7  and  C_8
REMARK    4  A    between atoms: C_8  and  S_9
REMARK    5  A    between atoms: S_9  and  O_12
REMARK    6  A    between atoms: O_12  and  C_13
REMARK    7  A    between atoms: C_21  and  N_22
REMARK    8  A    between atoms: C_25  and  N_26
REMARK                            x       y       z     vdW  Elec       q    Type
REMARK                         _______ _______ _______ _____ _____    ______ ____
ROOT
ATOM      1  C   UNL     1       1.788   7.980  19.731  0.00  0.00    +0.000 A 
ATOM      2  C   UNL     1       1.942   9.063  18.841  0.00  0.00    +0.000 A 
ATOM      3  C   UNL     1       2.673   8.930  17.670  0.00  0.00    +0.000 A 
ATOM      4  C   UNL     1       3.238   7.705  17.361  0.00  0.00    +0.000 A 
ATOM      5  C   UNL     1       3.030   6.599  18.198  0.00  0.00    +0.000 A 
ATOM      6  C   UNL     1       2.284   6.713  19.369  0.00  0.00    +0.000 A 
ATOM      7  C   UNL     1       1.998   5.490  20.151  0.00  0.00    +0.000 C 
ATOM      8  O   UNL     1       1.087   5.515  20.975  0.00  0.00    +0.000 OA
ATOM      9  C   UNL     1       2.785   4.226  19.865  0.00  0.00    +0.000 C 
ATOM     10  C   UNL     1       3.480   4.126  18.703  0.00  0.00    +0.000 C 
ATOM     11  C   UNL     1       3.623   5.321  17.795  0.00  0.00    +0.000 C 
ATOM     12  O   UNL     1       4.230   5.262  16.733  0.00  0.00    +0.000 OA
ENDROOT
BRANCH   9  13
ATOM     13  N   UNL     1       2.659   3.120  20.718  0.00  0.00    +0.000 N 
ATOM     14  C   UNL     1       2.196   3.373  22.082  0.00  0.00    +0.000 C 
ATOM     15  C   UNL     1       1.409   2.512  21.132  0.00  0.00    +0.000 C 
ENDBRANCH   9  13
BRANCH  10  16
ATOM     16  N   UNL     1       4.196   3.006  18.255  0.00  0.00    +0.000 N 
ATOM     17  C   UNL     1       3.984   1.681  18.820  0.00  0.00    +0.000 C 
ATOM     18  C   UNL     1       3.445   2.026  17.460  0.00  0.00    +0.000 C 
ENDBRANCH  10  16
BRANCH   1  19
ATOM     19  O   UNL     1       1.193   8.148  20.969  0.00  0.00    +0.000 OA
BRANCH  19  20
ATOM     20  S   UNL     1       0.064   9.314  21.190  0.00  0.00    +0.000 S 
ATOM     21  O   UNL     1      -0.493   9.137  22.511  0.00  0.00    +0.000 OA
ATOM     22  O   UNL     1      -0.789   9.338  20.014  0.00  0.00    +0.000 OA
BRANCH  20  23
ATOM     23  C   UNL     1       1.124  10.763  21.114  0.00  0.00    +0.000 C 
BRANCH  23  30
ATOM     24  C   UNL     1       1.958  12.849  18.707  0.00  0.00    +0.000 C 
ATOM     25  C   UNL     1       1.262  13.170  20.045  0.00  0.00    +0.000 C 
ATOM     26  C   UNL     1       2.361  13.702  20.990  0.00  0.00    +0.000 C 
ATOM     27  C   UNL     1       0.036  14.118  19.880  0.00  0.00    +0.000 C 
ATOM     28  C   UNL     1      -0.953  13.271  19.050  0.00  0.00    +0.000 C 
ATOM     29  C   UNL     1      -0.722  11.842  19.587  0.00  0.00    +0.000 C 
ATOM     30  C   UNL     1       0.392  12.021  20.653  0.00  0.00    +0.000 C 
ATOM     31  C   UNL     1      -0.264  12.830  21.778  0.00  0.00    +0.000 C 
ATOM     32  O   UNL     1      -0.453  12.458  22.923  0.00  0.00    +0.000 OA
ATOM     33  C   UNL     1      -0.555  14.234  21.300  0.00  0.00    +0.000 C 
ENDBRANCH  23  30
ENDBRANCH  20  23
ENDBRANCH  19  20
ENDBRANCH   1  19
TORSDOF 6
ENDMDL
MODEL 9
REMARK VINA RESULT:      -6.5      7.508     10.511
REMARK  Name = 
REMARK  8 active torsions:
REMARK  status: ('A' for Active; 'I' for Inactive)
REMARK    1  A    between atoms: C_1  and  C_2
REMARK    2  A    between atoms: C_2  and  C_3
REMARK    3  A    between atoms: C_7  and  C_8
REMARK    4  A    between atoms: C_8  and  S_9
REMARK    5  A    between atoms: S_9  and  O_12
REMARK    6  A    between atoms: O_12  and  C_13
REMARK    7  A    between atoms: C_21  and  N_22
REMARK    8  A    between atoms: C_25  and  N_26
REMARK                            x       y       z     vdW  Elec       q    Type
REMARK                         _______ _______ _______ _____ _____    ______ ____
ROOT
ATOM      1  C   UNL     1       6.800  13.990  22.695  0.00  0.00    +0.000 A 
ATOM      2  C   UNL     1       6.750  13.178  23.846  0.00  0.00    +0.000 A 
ATOM      3  C   UNL     1       7.470  11.995  23.921  0.00  0.00    +0.000 A 
ATOM      4  C   UNL     1       8.267  11.620  22.853  0.00  0.00    +0.000 A 
ATOM      5  C   UNL     1       8.385  12.455  21.731  0.00  0.00    +0.000 A 
ATOM      6  C   UNL     1       7.682  13.654  21.650  0.00  0.00    +0.000 A 
ATOM      7  C   UNL     1       7.935  14.549  20.499  0.00  0.00    +0.000 C 
ATOM      8  O   UNL     1       7.591  15.725  20.579  0.00  0.00    +0.000 OA
ATOM      9  C   UNL     1       8.672  14.010  19.289  0.00  0.00    +0.000 C 
ATOM     10  C   UNL     1       9.375  12.854  19.400  0.00  0.00    +0.000 C 
ATOM     11  C   UNL     1       9.274  12.019  20.652  0.00  0.00    +0.000 C 
ATOM     12  O   UNL     1       9.907  10.979  20.793  0.00  0.00    +0.000 OA
ENDROOT
BRANCH   9  13
ATOM     13  N   UNL     1       8.752  14.784  18.121  0.00  0.00    +0.000 N 
ATOM     14  C   UNL     1       7.540  15.479  17.691  0.00  0.00    +0.000 C 
ATOM     15  C   UNL     1       8.784  16.233  18.072  0.00  0.00    +0.000 C 
ENDBRANCH   9  13
BRANCH  10  16
ATOM     16  N   UNL     1      10.165  12.261  18.405  0.00  0.00    +0.000 N 
ATOM     17  C   UNL     1      10.749  13.038  17.321  0.00  0.00    +0.000 C 
ATOM     18  C   UNL     1      11.604  12.547  18.456  0.00  0.00    +0.000 C 
ENDBRANCH  10  16
BRANCH   1  19
ATOM     19  O   UNL     1       5.968  15.088  22.555  0.00  0.00    +0.000 OA
BRANCH  19  20
ATOM     20  S   UNL     1       4.375  14.879  22.237  0.00  0.00    +0.000 S 
ATOM     21  O   UNL     1       3.635  15.729  23.141  0.00  0.00    +0.000 OA
ATOM     22  O   UNL     1       4.116  13.451  22.170  0.00  0.00    +0.000 OA
BRANCH  20  23
ATOM     23  C   UNL     1       4.328  15.512  20.556  0.00  0.00    +0.000 C 
BRANCH  23  30
ATOM     24  C   UNL     1       2.613  13.720  18.391  0.00  0.00    +0.000 C 
ATOM     25  C   UNL     1       2.585  15.248  18.595  0.00  0.00    +0.000 C 
ATOM     26  C   UNL     1       3.488  15.850  17.497  0.00  0.00    +0.000 C 
ATOM     27  C   UNL     1       1.139  15.829  18.635  0.00  0.00    +0.000 C 
ATOM     28  C   UNL     1       0.541  15.194  19.909  0.00  0.00    +0.000 C 
ATOM     29  C   UNL     1       1.745  15.152  20.874  0.00  0.00    +0.000 C 
ATOM     30  C   UNL     1       2.911  15.748  20.041  0.00  0.00    +0.000 C 
ATOM     31  C   UNL     1       2.538  17.222  19.839  0.00  0.00    +0.000 C 
ATOM     32  O   UNL     1       3.153  18.188  20.257  0.00  0.00    +0.000 OA
ATOM     33  C   UNL     1       1.335  17.329  18.932  0.00  0.00    +0.000 C 
ENDBRANCH  23  30
ENDBRANCH  20  23
ENDBRANCH  19  20
ENDBRANCH   1  19
TORSDOF 6
ENDMDL
