MODEL 1
REMARK VINA RESULT:      -9.1      0.000      0.000
REMARK  Name = 
REMARK  8 active torsions:
REMARK  status: ('A' for Active; 'I' for Inactive)
REMARK    1  A    between atoms: C_1  and  O_2
REMARK    2  A    between atoms: O_2  and  C_3
REMARK    3  A    between atoms: C_6  and  C_7
REMARK    4  A    between atoms: C_7  and  C_9
REMARK    5  A    between atoms: C_10  and  O_11
REMARK    6  A    between atoms: N_14  and  C_15
REMARK    7  A    between atoms: C_18  and  C_19
REMARK    8  A    between atoms: C_26  and  C_27
REMARK                            x       y       z     vdW  Elec       q    Type
REMARK                         _______ _______ _______ _____ _____    ______ ____
ROOT
ATOM      1  C   UNL     1       4.245   6.157  18.297  0.00  0.00    +0.000 C 
ATOM      2  C   UNL     1       4.100   7.143  17.393  0.00  0.00    +0.000 C 
ATOM      3  C   UNL     1       2.952   7.975  17.793  0.00  0.00    +0.000 C 
ATOM      4  O   UNL     1       2.609   8.990  17.206  0.00  0.00    +0.000 OA
ATOM      5  N   UNL     1       2.450   7.421  18.979  0.00  0.00    +0.000 N 
ATOM      6  C   UNL     1       3.128   6.171  19.315  0.00  0.00    +0.000 C 
ENDROOT
BRANCH   5   7
ATOM      7  C   UNL     1       1.621   8.184  19.849  0.00  0.00    +0.000 A 
ATOM      8  C   UNL     1       0.657   9.059  19.321  0.00  0.00    +0.000 A 
ATOM      9  C   UNL     1      -0.106   9.893  20.148  0.00  0.00    +0.000 A 
ATOM     10  C   UNL     1       0.102   9.903  21.529  0.00  0.00    +0.000 A 
ATOM     11  C   UNL     1       1.007   8.978  22.066  0.00  0.00    +0.000 A 
ATOM     12  C   UNL     1       1.747   8.118  21.239  0.00  0.00    +0.000 A 
BRANCH  10  13
ATOM     13  C   UNL     1      -0.548  10.917  22.359  0.00  0.00    +0.000 A 
ATOM     14  N   UNL     1      -1.563  10.794  23.195  0.00  0.00    +0.000 NA
ATOM     15  C   UNL     1      -1.857  12.086  23.554  0.00  0.00    +0.000 A 
ATOM     16  C   UNL     1      -0.989  12.949  22.937  0.00  0.00    +0.000 A 
ATOM     17  O   UNL     1      -0.137  12.214  22.173  0.00  0.00    +0.000 OA
ENDBRANCH  10  13
ENDBRANCH   5   7
BRANCH   6  18
ATOM     18  C   UNL     1       2.222   4.891  19.217  0.00  0.00    +0.000 C 
ATOM     19  C   UNL     1       2.937   3.581  18.820  0.00  0.00    +0.000 C 
ATOM     20  C   UNL     1       3.500   2.732  19.964  0.00  0.00    +0.000 C 
ATOM     21  C   UNL     1       2.598   2.624  21.186  0.00  0.00    +0.000 C 
ATOM     22  C   UNL     1       1.977   3.948  21.595  0.00  0.00    +0.000 C 
ATOM     23  C   UNL     1       1.289   4.624  20.418  0.00  0.00    +0.000 C 
ENDBRANCH   6  18
BRANCH   1  24
ATOM     24  C   UNL     1       5.327   5.169  18.062  0.00  0.00    +0.000 C 
ATOM     25  O   UNL     1       5.894   4.670  19.040  0.00  0.00    +0.000 OA
BRANCH  24  29
ATOM     26  C   UNL     1       6.438   4.023  14.068  0.00  0.00    +0.000 A 
ATOM     27  C   UNL     1       7.354   4.721  14.866  0.00  0.00    +0.000 A 
ATOM     28  C   UNL     1       7.046   5.079  16.190  0.00  0.00    +0.000 A 
ATOM     29  C   UNL     1       5.804   4.740  16.725  0.00  0.00    +0.000 A 
ATOM     30  C   UNL     1       4.874   4.074  15.905  0.00  0.00    +0.000 A 
ATOM     31  C   UNL     1       5.187   3.714  14.590  0.00  0.00    +0.000 A 
BRANCH  26  33
ATOM     32  C   UNL     1       6.038   2.850  12.044  0.00  0.00    +0.000 C 
ATOM     33  O   UNL     1       6.848   3.756  12.790  0.00  0.00    +0.000 OA
ENDBRANCH  26  33
ENDBRANCH  24  29
ENDBRANCH   1  24
BRANCH   2  34
ATOM     34  O   UNL     1       4.850   7.403  16.279  0.00  0.00    +0.000 OA
ATOM     35  H   UNL     1       5.220   8.308  16.380  0.00  0.00    +0.000 HD
ENDBRANCH   2  34
TORSDOF 7
ENDMDL
MODEL 2
REMARK VINA RESULT:      -8.8      3.341     10.910
REMARK  Name = 
REMARK  8 active torsions:
REMARK  status: ('A' for Active; 'I' for Inactive)
REMARK    1  A    between atoms: C_1  and  O_2
REMARK    2  A    between atoms: O_2  and  C_3
REMARK    3  A    between atoms: C_6  and  C_7
REMARK    4  A    between atoms: C_7  and  C_9
REMARK    5  A    between atoms: C_10  and  O_11
REMARK    6  A    between atoms: N_14  and  C_15
REMARK    7  A    between atoms: C_18  and  C_19
REMARK    8  A    between atoms: C_26  and  C_27
REMARK                            x       y       z     vdW  Elec       q    Type
REMARK                         _______ _______ _______ _____ _____    ______ ____
ROOT
ATOM      1  C   UNL     1      -2.810  12.191  19.775  0.00  0.00    +0.000 C 
ATOM      2  C   UNL     1      -3.089  11.738  18.538  0.00  0.00    +0.000 C 
ATOM      3  C   UNL     1      -1.925  10.984  18.044  0.00  0.00    +0.000 C 
ATOM      4  O   UNL     1      -1.899  10.394  16.976  0.00  0.00    +0.000 OA
ATOM      5  N   UNL     1      -0.964  11.018  19.064  0.00  0.00    +0.000 N 
ATOM      6  C   UNL     1      -1.383  11.882  20.166  0.00  0.00    +0.000 C 
ENDROOT
BRANCH   5   7
ATOM      7  C   UNL     1       0.099  10.072  19.101  0.00  0.00    +0.000 A 
ATOM      8  C   UNL     1       0.818   9.772  17.932  0.00  0.00    +0.000 A 
ATOM      9  C   UNL     1       1.803   8.777  17.914  0.00  0.00    +0.000 A 
ATOM     10  C   UNL     1       2.071   8.024  19.060  0.00  0.00    +0.000 A 
ATOM     11  C   UNL     1       1.411   8.373  20.246  0.00  0.00    +0.000 A 
ATOM     12  C   UNL     1       0.447   9.394  20.271  0.00  0.00    +0.000 A 
BRANCH  10  13
ATOM     13  C   UNL     1       2.949   6.857  18.980  0.00  0.00    +0.000 A 
ATOM     14  N   UNL     1       3.792   6.504  18.027  0.00  0.00    +0.000 NA
ATOM     15  C   UNL     1       4.207   5.249  18.398  0.00  0.00    +0.000 A 
ATOM     16  C   UNL     1       3.614   4.894  19.581  0.00  0.00    +0.000 A 
ATOM     17  O   UNL     1       2.810   5.919  19.974  0.00  0.00    +0.000 OA
ENDBRANCH  10  13
ENDBRANCH   5   7
BRANCH   6  18
ATOM     18  C   UNL     1      -0.521  13.185  20.337  0.00  0.00    +0.000 C 
ATOM     19  C   UNL     1       0.749  13.050  21.206  0.00  0.00    +0.000 C 
ATOM     20  C   UNL     1       2.038  12.650  20.483  0.00  0.00    +0.000 C 
ATOM     21  C   UNL     1       2.254  13.324  19.135  0.00  0.00    +0.000 C 
ATOM     22  C   UNL     1       1.002  13.364  18.275  0.00  0.00    +0.000 C 
ATOM     23  C   UNL     1      -0.177  13.948  19.040  0.00  0.00    +0.000 C 
ENDBRANCH   6  18
BRANCH   1  24
ATOM     24  C   UNL     1      -3.840  13.019  20.448  0.00  0.00    +0.000 C 
ATOM     25  O   UNL     1      -4.888  13.265  19.841  0.00  0.00    +0.000 OA
BRANCH  24  29
ATOM     26  C   UNL     1      -3.275  14.454  24.463  0.00  0.00    +0.000 A 
ATOM     27  C   UNL     1      -3.089  15.329  23.385  0.00  0.00    +0.000 A 
ATOM     28  C   UNL     1      -3.303  14.911  22.059  0.00  0.00    +0.000 A 
ATOM     29  C   UNL     1      -3.703  13.601  21.805  0.00  0.00    +0.000 A 
ATOM     30  C   UNL     1      -3.850  12.716  22.890  0.00  0.00    +0.000 A 
ATOM     31  C   UNL     1      -3.643  13.138  24.208  0.00  0.00    +0.000 A 
BRANCH  26  33
ATOM     32  C   UNL     1      -1.717  15.544  25.882  0.00  0.00    +0.000 C 
ATOM     33  O   UNL     1      -3.011  14.975  25.701  0.00  0.00    +0.000 OA
ENDBRANCH  26  33
ENDBRANCH  24  29
ENDBRANCH   1  24
BRANCH   2  34
ATOM     34  O   UNL     1      -4.233  11.898  17.805  0.00  0.00    +0.000 OA
ATOM     35  H   UNL     1      -4.991  11.686  18.394  0.00  0.00    +0.000 HD
ENDBRANCH   2  34
TORSDOF 7
ENDMDL
MODEL 3
REMARK VINA RESULT:      -8.4      3.678      7.222
REMARK  Name = 
REMARK  8 active torsions:
REMARK  status: ('A' for Active; 'I' for Inactive)
REMARK    1  A    between atoms: C_1  and  O_2
REMARK    2  A    between atoms: O_2  and  C_3
REMARK    3  A    between atoms: C_6  and  C_7
REMARK    4  A    between atoms: C_7  and  C_9
REMARK    5  A    between atoms: C_10  and  O_11
REMARK    6  A    between atoms: N_14  and  C_15
REMARK    7  A    between atoms: C_18  and  C_19
REMARK    8  A    between atoms: C_26  and  C_27
REMARK                            x       y       z     vdW  Elec       q    Type
REMARK                         _______ _______ _______ _____ _____    ______ ____
ROOT
ATOM      1  C   UNL     1       0.751  11.432  19.226  0.00  0.00    +0.000 C 
ATOM      2  C   UNL     1       1.336  12.555  19.681  0.00  0.00    +0.000 C 
ATOM      3  C   UNL     1       0.308  13.387  20.329  0.00  0.00    +0.000 C 
ATOM      4  O   UNL     1       0.542  14.441  20.898  0.00  0.00    +0.000 OA
ATOM      5  N   UNL     1      -0.899  12.679  20.229  0.00  0.00    +0.000 N 
ATOM      6  C   UNL     1      -0.747  11.472  19.421  0.00  0.00    +0.000 C 
ENDROOT
BRANCH   5   7
ATOM      7  C   UNL     1      -1.996  12.981  21.084  0.00  0.00    +0.000 A 
ATOM      8  C   UNL     1      -2.308  12.134  22.161  0.00  0.00    +0.000 A 
ATOM      9  C   UNL     1      -3.437  12.351  22.960  0.00  0.00    +0.000 A 
ATOM     10  C   UNL     1      -4.312  13.404  22.680  0.00  0.00    +0.000 A 
ATOM     11  C   UNL     1      -3.964  14.294  21.655  0.00  0.00    +0.000 A 
ATOM     12  C   UNL     1      -2.813  14.096  20.876  0.00  0.00    +0.000 A 
BRANCH  10  13
ATOM     13  C   UNL     1      -5.589  13.500  23.385  0.00  0.00    +0.000 A 
ATOM     14  N   UNL     1      -6.337  12.543  23.905  0.00  0.00    +0.000 NA
ATOM     15  C   UNL     1      -7.490  13.188  24.279  0.00  0.00    +0.000 A 
ATOM     16  C   UNL     1      -7.390  14.524  23.991  0.00  0.00    +0.000 A 
ATOM     17  O   UNL     1      -6.173  14.743  23.426  0.00  0.00    +0.000 OA
ENDBRANCH  10  13
ENDBRANCH   5   7
BRANCH   6  18
ATOM     18  C   UNL     1      -1.521  11.501  18.054  0.00  0.00    +0.000 C 
ATOM     19  C   UNL     1      -1.738  10.135  17.366  0.00  0.00    +0.000 C 
ATOM     20  C   UNL     1      -3.016   9.376  17.733  0.00  0.00    +0.000 C 
ATOM     21  C   UNL     1      -4.265  10.240  17.847  0.00  0.00    +0.000 C 
ATOM     22  C   UNL     1      -4.032  11.538  18.601  0.00  0.00    +0.000 C 
ATOM     23  C   UNL     1      -2.842  12.300  18.036  0.00  0.00    +0.000 C 
ENDBRANCH   6  18
BRANCH   1  24
ATOM     24  C   UNL     1       1.607  10.464  18.497  0.00  0.00    +0.000 C 
ATOM     25  O   UNL     1       2.212  10.851  17.491  0.00  0.00    +0.000 OA
BRANCH  24  29
ATOM     26  C   UNL     1       2.409   6.352  19.472  0.00  0.00    +0.000 A 
ATOM     27  C   UNL     1       1.795   7.179  20.421  0.00  0.00    +0.000 A 
ATOM     28  C   UNL     1       1.479   8.518  20.129  0.00  0.00    +0.000 A 
ATOM     29  C   UNL     1       1.783   9.040  18.873  0.00  0.00    +0.000 A 
ATOM     30  C   UNL     1       2.436   8.215  17.938  0.00  0.00    +0.000 A 
ATOM     31  C   UNL     1       2.742   6.882  18.231  0.00  0.00    +0.000 A 
BRANCH  26  33
ATOM     32  C   UNL     1       1.881   4.570  20.948  0.00  0.00    +0.000 C 
ATOM     33  O   UNL     1       2.687   5.078  19.887  0.00  0.00    +0.000 OA
ENDBRANCH  26  33
ENDBRANCH  24  29
ENDBRANCH   1  24
BRANCH   2  34
ATOM     34  O   UNL     1       2.650  12.929  19.606  0.00  0.00    +0.000 OA
ATOM     35  H   UNL     1       3.136  12.204  19.154  0.00  0.00    +0.000 HD
ENDBRANCH   2  34
TORSDOF 7
ENDMDL
MODEL 4
REMARK VINA RESULT:      -8.3      3.353     11.016
REMARK  Name = 
REMARK  8 active torsions:
REMARK  status: ('A' for Active; 'I' for Inactive)
REMARK    1  A    between atoms: C_1  and  O_2
REMARK    2  A    between atoms: O_2  and  C_3
REMARK    3  A    between atoms: C_6  and  C_7
REMARK    4  A    between atoms: C_7  and  C_9
REMARK    5  A    between atoms: C_10  and  O_11
REMARK    6  A    between atoms: N_14  and  C_15
REMARK    7  A    between atoms: C_18  and  C_19
REMARK    8  A    between atoms: C_26  and  C_27
REMARK                            x       y       z     vdW  Elec       q    Type
REMARK                         _______ _______ _______ _____ _____    ______ ____
ROOT
ATOM      1  C   UNL     1      -2.743  12.228  19.873  0.00  0.00    +0.000 C 
ATOM      2  C   UNL     1      -3.026  11.797  18.630  0.00  0.00    +0.000 C 
ATOM      3  C   UNL     1      -1.873  11.032  18.128  0.00  0.00    +0.000 C 
ATOM      4  O   UNL     1      -1.853  10.457  17.051  0.00  0.00    +0.000 OA
ATOM      5  N   UNL     1      -0.913  11.039  19.150  0.00  0.00    +0.000 N 
ATOM      6  C   UNL     1      -1.321  11.892  20.263  0.00  0.00    +0.000 C 
ENDROOT
BRANCH   5   7
ATOM      7  C   UNL     1       0.136  10.077  19.175  0.00  0.00    +0.000 A 
ATOM      8  C   UNL     1       0.883   9.815  18.014  0.00  0.00    +0.000 A 
ATOM      9  C   UNL     1       1.855   8.807  17.981  0.00  0.00    +0.000 A 
ATOM     10  C   UNL     1       2.081   8.003  19.101  0.00  0.00    +0.000 A 
ATOM     11  C   UNL     1       1.392   8.311  20.282  0.00  0.00    +0.000 A 
ATOM     12  C   UNL     1       0.442   9.344  20.325  0.00  0.00    +0.000 A 
BRANCH  10  13
ATOM     13  C   UNL     1       2.944   6.828  18.995  0.00  0.00    +0.000 A 
ATOM     14  N   UNL     1       3.083   5.810  19.825  0.00  0.00    +0.000 NA
ATOM     15  C   UNL     1       4.144   5.104  19.312  0.00  0.00    +0.000 A 
ATOM     16  C   UNL     1       4.598   5.713  18.171  0.00  0.00    +0.000 A 
ATOM     17  O   UNL     1       3.833   6.815  17.948  0.00  0.00    +0.000 OA
ENDBRANCH  10  13
ENDBRANCH   5   7
BRANCH   6  18
ATOM     18  C   UNL     1      -0.441  13.180  20.454  0.00  0.00    +0.000 C 
ATOM     19  C   UNL     1       0.880  12.990  21.231  0.00  0.00    +0.000 C 
ATOM     20  C   UNL     1       2.118  12.628  20.405  0.00  0.00    +0.000 C 
ATOM     21  C   UNL     1       2.253  13.379  19.088  0.00  0.00    +0.000 C 
ATOM     22  C   UNL     1       0.950  13.474  18.312  0.00  0.00    +0.000 C 
ATOM     23  C   UNL     1      -0.174  14.016  19.184  0.00  0.00    +0.000 C 
ENDBRANCH   6  18
BRANCH   1  24
ATOM     24  C   UNL     1      -3.762  13.062  20.556  0.00  0.00    +0.000 C 
ATOM     25  O   UNL     1      -4.957  12.817  20.354  0.00  0.00    +0.000 OA
BRANCH  24  29
ATOM     26  C   UNL     1      -2.660  16.174  23.313  0.00  0.00    +0.000 A 
ATOM     27  C   UNL     1      -2.844  16.484  21.960  0.00  0.00    +0.000 A 
ATOM     28  C   UNL     1      -3.244  15.505  21.033  0.00  0.00    +0.000 A 
ATOM     29  C   UNL     1      -3.458  14.197  21.461  0.00  0.00    +0.000 A 
ATOM     30  C   UNL     1      -3.233  13.883  22.815  0.00  0.00    +0.000 A 
ATOM     31  C   UNL     1      -2.842  14.862  23.735  0.00  0.00    +0.000 A 
BRANCH  26  33
ATOM     32  C   UNL     1      -3.062  17.498  25.241  0.00  0.00    +0.000 C 
ATOM     33  O   UNL     1      -2.246  17.209  24.108  0.00  0.00    +0.000 OA
ENDBRANCH  26  33
ENDBRANCH  24  29
ENDBRANCH   1  24
BRANCH   2  34
ATOM     34  O   UNL     1      -4.166  11.984  17.897  0.00  0.00    +0.000 OA
ATOM     35  H   UNL     1      -4.394  11.122  17.484  0.00  0.00    +0.000 HD
ENDBRANCH   2  34
TORSDOF 7
ENDMDL
MODEL 5
REMARK VINA RESULT:      -8.3      3.747      7.138
REMARK  Name = 
REMARK  8 active torsions:
REMARK  status: ('A' for Active; 'I' for Inactive)
REMARK    1  A    between atoms: C_1  and  O_2
REMARK    2  A    between atoms: O_2  and  C_3
REMARK    3  A    between atoms: C_6  and  C_7
REMARK    4  A    between atoms: C_7  and  C_9
REMARK    5  A    between atoms: C_10  and  O_11
REMARK    6  A    between atoms: N_14  and  C_15
REMARK    7  A    between atoms: C_18  and  C_19
REMARK    8  A    between atoms: C_26  and  C_27
REMARK                            x       y       z     vdW  Elec       q    Type
REMARK                         _______ _______ _______ _____ _____    ______ ____
ROOT
ATOM      1  C   UNL     1       0.406  10.859  18.675  0.00  0.00    +0.000 C 
ATOM      2  C   UNL     1       0.661  12.163  18.458  0.00  0.00    +0.000 C 
ATOM      3  C   UNL     1      -0.507  12.945  18.895  0.00  0.00    +0.000 C 
ATOM      4  O   UNL     1      -0.553  14.165  18.885  0.00  0.00    +0.000 OA
ATOM      5  N   UNL     1      -1.446  12.024  19.382  0.00  0.00    +0.000 N 
ATOM      6  C   UNL     1      -1.009  10.647  19.163  0.00  0.00    +0.000 C 
ENDROOT
BRANCH   5   7
ATOM      7  C   UNL     1      -2.499  12.440  20.244  0.00  0.00    +0.000 A 
ATOM      8  C   UNL     1      -2.388  12.263  21.634  0.00  0.00    +0.000 A 
ATOM      9  C   UNL     1      -3.445  12.573  22.498  0.00  0.00    +0.000 A 
ATOM     10  C   UNL     1      -4.663  13.034  21.991  0.00  0.00    +0.000 A 
ATOM     11  C   UNL     1      -4.751  13.284  20.615  0.00  0.00    +0.000 A 
ATOM     12  C   UNL     1      -3.679  13.006  19.753  0.00  0.00    +0.000 A 
BRANCH  10  13
ATOM     13  C   UNL     1      -5.822  13.159  22.874  0.00  0.00    +0.000 A 
ATOM     14  N   UNL     1      -6.414  12.241  23.618  0.00  0.00    +0.000 NA
ATOM     15  C   UNL     1      -7.539  12.871  24.090  0.00  0.00    +0.000 A 
ATOM     16  C   UNL     1      -7.577  14.162  23.630  0.00  0.00    +0.000 A 
ATOM     17  O   UNL     1      -6.477  14.366  22.856  0.00  0.00    +0.000 OA
ENDBRANCH  10  13
ENDBRANCH   5   7
BRANCH   6  18
ATOM     18  C   UNL     1      -1.877   9.846  18.128  0.00  0.00    +0.000 C 
ATOM     19  C   UNL     1      -3.360   9.634  18.504  0.00  0.00    +0.000 C 
ATOM     20  C   UNL     1      -4.346  10.712  18.047  0.00  0.00    +0.000 C 
ATOM     21  C   UNL     1      -4.113  11.239  16.637  0.00  0.00    +0.000 C 
ATOM     22  C   UNL     1      -2.650  11.514  16.331  0.00  0.00    +0.000 C 
ATOM     23  C   UNL     1      -1.781  10.307  16.657  0.00  0.00    +0.000 C 
ENDBRANCH   6  18
BRANCH   1  24
ATOM     24  C   UNL     1       1.445   9.883  18.265  0.00  0.00    +0.000 C 
ATOM     25  O   UNL     1       2.198  10.179  17.331  0.00  0.00    +0.000 OA
BRANCH  24  29
ATOM     26  C   UNL     1       2.303   6.006  19.920  0.00  0.00    +0.000 A 
ATOM     27  C   UNL     1       1.760   7.003  20.741  0.00  0.00    +0.000 A 
ATOM     28  C   UNL     1       1.427   8.270  20.231  0.00  0.00    +0.000 A 
ATOM     29  C   UNL     1       1.643   8.549  18.883  0.00  0.00    +0.000 A 
ATOM     30  C   UNL     1       2.226   7.557  18.072  0.00  0.00    +0.000 A 
ATOM     31  C   UNL     1       2.549   6.295  18.582  0.00  0.00    +0.000 A 
BRANCH  26  33
ATOM     32  C   UNL     1       3.515   3.967  19.856  0.00  0.00    +0.000 C 
ATOM     33  O   UNL     1       2.606   4.826  20.541  0.00  0.00    +0.000 OA
ENDBRANCH  26  33
ENDBRANCH  24  29
ENDBRANCH   1  24
BRANCH   2  34
ATOM     34  O   UNL     1       1.787  12.741  17.938  0.00  0.00    +0.000 OA
ATOM     35  H   UNL     1       2.561  12.301  18.353  0.00  0.00    +0.000 HD
ENDBRANCH   2  34
TORSDOF 7
ENDMDL
MODEL 6
REMARK VINA RESULT:      -8.2      0.771      1.110
REMARK  Name = 
REMARK  8 active torsions:
REMARK  status: ('A' for Active; 'I' for Inactive)
REMARK    1  A    between atoms: C_1  and  O_2
REMARK    2  A    between atoms: O_2  and  C_3
REMARK    3  A    between atoms: C_6  and  C_7
REMARK    4  A    between atoms: C_7  and  C_9
REMARK    5  A    between atoms: C_10  and  O_11
REMARK    6  A    between atoms: N_14  and  C_15
REMARK    7  A    between atoms: C_18  and  C_19
REMARK    8  A    between atoms: C_26  and  C_27
REMARK                            x       y       z     vdW  Elec       q    Type
REMARK                         _______ _______ _______ _____ _____    ______ ____
ROOT
ATOM      1  C   UNL     1       3.856   6.258  18.492  0.00  0.00    +0.000 C 
ATOM      2  C   UNL     1       3.857   7.192  17.524  0.00  0.00    +0.000 C 
ATOM      3  C   UNL     1       2.817   8.187  17.836  0.00  0.00    +0.000 C 
ATOM      4  O   UNL     1       2.619   9.195  17.176  0.00  0.00    +0.000 OA
ATOM      5  N   UNL     1       2.222   7.780  19.039  0.00  0.00    +0.000 N 
ATOM      6  C   UNL     1       2.728   6.480  19.474  0.00  0.00    +0.000 C 
ENDROOT
BRANCH   5   7
ATOM      7  C   UNL     1       1.479   8.697  19.834  0.00  0.00    +0.000 A 
ATOM      8  C   UNL     1       1.078   8.343  21.134  0.00  0.00    +0.000 A 
ATOM      9  C   UNL     1       0.266   9.184  21.904  0.00  0.00    +0.000 A 
ATOM     10  C   UNL     1      -0.204  10.391  21.380  0.00  0.00    +0.000 A 
ATOM     11  C   UNL     1       0.256  10.782  20.115  0.00  0.00    +0.000 A 
ATOM     12  C   UNL     1       1.099   9.954  19.357  0.00  0.00    +0.000 A 
BRANCH  10  13
ATOM     13  C   UNL     1      -1.212  11.161  22.107  0.00  0.00    +0.000 A 
ATOM     14  N   UNL     1      -1.618  11.043  23.358  0.00  0.00    +0.000 NA
ATOM     15  C   UNL     1      -2.690  11.896  23.442  0.00  0.00    +0.000 A 
ATOM     16  C   UNL     1      -2.884  12.520  22.236  0.00  0.00    +0.000 A 
ATOM     17  O   UNL     1      -1.937  12.066  21.371  0.00  0.00    +0.000 OA
ENDBRANCH  10  13
ENDBRANCH   5   7
BRANCH   6  18
ATOM     18  C   UNL     1       1.668   5.321  19.429  0.00  0.00    +0.000 C 
ATOM     19  C   UNL     1       1.934   4.197  18.403  0.00  0.00    +0.000 C 
ATOM     20  C   UNL     1       2.773   3.010  18.885  0.00  0.00    +0.000 C 
ATOM     21  C   UNL     1       2.453   2.528  20.294  0.00  0.00    +0.000 C 
ATOM     22  C   UNL     1       2.280   3.660  21.293  0.00  0.00    +0.000 C 
ATOM     23  C   UNL     1       1.286   4.696  20.788  0.00  0.00    +0.000 C 
ENDBRANCH   6  18
BRANCH   1  24
ATOM     24  C   UNL     1       4.808   5.129  18.352  0.00  0.00    +0.000 C 
ATOM     25  O   UNL     1       5.129   4.498  19.365  0.00  0.00    +0.000 OA
BRANCH  24  29
ATOM     26  C   UNL     1       6.361   4.002  14.503  0.00  0.00    +0.000 A 
ATOM     27  C   UNL     1       7.200   4.641  15.425  0.00  0.00    +0.000 A 
ATOM     28  C   UNL     1       6.743   4.990  16.708  0.00  0.00    +0.000 A 
ATOM     29  C   UNL     1       5.430   4.700  17.076  0.00  0.00    +0.000 A 
ATOM     30  C   UNL     1       4.582   4.094  16.130  0.00  0.00    +0.000 A 
ATOM     31  C   UNL     1       5.042   3.743  14.857  0.00  0.00    +0.000 A 
BRANCH  26  33
ATOM     32  C   UNL     1       6.015   3.343  12.249  0.00  0.00    +0.000 C 
ATOM     33  O   UNL     1       6.917   3.738  13.280  0.00  0.00    +0.000 OA
ENDBRANCH  26  33
ENDBRANCH  24  29
ENDBRANCH   1  24
BRANCH   2  34
ATOM     34  O   UNL     1       4.658   7.281  16.419  0.00  0.00    +0.000 OA
ATOM     35  H   UNL     1       4.193   7.848  15.764  0.00  0.00    +0.000 HD
ENDBRANCH   2  34
TORSDOF 7
ENDMDL
MODEL 7
REMARK VINA RESULT:      -8.2      3.763     10.028
REMARK  Name = 
REMARK  8 active torsions:
REMARK  status: ('A' for Active; 'I' for Inactive)
REMARK    1  A    between atoms: C_1  and  O_2
REMARK    2  A    between atoms: O_2  and  C_3
REMARK    3  A    between atoms: C_6  and  C_7
REMARK    4  A    between atoms: C_7  and  C_9
REMARK    5  A    between atoms: C_10  and  O_11
REMARK    6  A    between atoms: N_14  and  C_15
REMARK    7  A    between atoms: C_18  and  C_19
REMARK    8  A    between atoms: C_26  and  C_27
REMARK                            x       y       z     vdW  Elec       q    Type
REMARK                         _______ _______ _______ _____ _____    ______ ____
ROOT
ATOM      1  C   UNL     1      -0.486  12.673  20.328  0.00  0.00    +0.000 C 
ATOM      2  C   UNL     1       0.042  12.301  21.508  0.00  0.00    +0.000 C 
ATOM      3  C   UNL     1       0.583  10.939  21.368  0.00  0.00    +0.000 C 
ATOM      4  O   UNL     1       1.186  10.351  22.252  0.00  0.00    +0.000 OA
ATOM      5  N   UNL     1       0.347  10.549  20.042  0.00  0.00    +0.000 N 
ATOM      6  C   UNL     1      -0.453  11.541  19.327  0.00  0.00    +0.000 C 
ENDROOT
BRANCH   5   7
ATOM      7  C   UNL     1       1.081   9.483  19.451  0.00  0.00    +0.000 A 
ATOM      8  C   UNL     1       1.339   8.311  20.182  0.00  0.00    +0.000 A 
ATOM      9  C   UNL     1       2.139   7.286  19.663  0.00  0.00    +0.000 A 
ATOM     10  C   UNL     1       2.739   7.421  18.409  0.00  0.00    +0.000 A 
ATOM     11  C   UNL     1       2.423   8.554  17.646  0.00  0.00    +0.000 A 
ATOM     12  C   UNL     1       1.592   9.566  18.153  0.00  0.00    +0.000 A 
BRANCH  10  13
ATOM     13  C   UNL     1       3.733   6.444  17.964  0.00  0.00    +0.000 A 
ATOM     14  N   UNL     1       4.670   6.560  17.041  0.00  0.00    +0.000 NA
ATOM     15  C   UNL     1       5.182   5.291  16.926  0.00  0.00    +0.000 A 
ATOM     16  C   UNL     1       4.548   4.452  17.806  0.00  0.00    +0.000 A 
ATOM     17  O   UNL     1       3.621   5.178  18.486  0.00  0.00    +0.000 OA
ENDBRANCH  10  13
ENDBRANCH   5   7
BRANCH   6  18
ATOM     18  C   UNL     1      -1.896  11.056  18.937  0.00  0.00    +0.000 C 
ATOM     19  C   UNL     1      -2.697  11.989  18.002  0.00  0.00    +0.000 C 
ATOM     20  C   UNL     1      -2.535  11.760  16.497  0.00  0.00    +0.000 C 
ATOM     21  C   UNL     1      -2.506  10.298  16.070  0.00  0.00    +0.000 C 
ATOM     22  C   UNL     1      -1.642   9.426  16.964  0.00  0.00    +0.000 C 
ATOM     23  C   UNL     1      -2.010   9.601  18.431  0.00  0.00    +0.000 C 
ENDBRANCH   6  18
BRANCH   1  24
ATOM     24  C   UNL     1      -1.128  14.008  20.258  0.00  0.00    +0.000 C 
ATOM     25  O   UNL     1      -2.268  14.140  20.718  0.00  0.00    +0.000 OA
BRANCH  24  29
ATOM     26  C   UNL     1       0.785  17.316  18.284  0.00  0.00    +0.000 A 
ATOM     27  C   UNL     1      -0.554  17.430  18.680  0.00  0.00    +0.000 A 
ATOM     28  C   UNL     1      -1.205  16.388  19.363  0.00  0.00    +0.000 A 
ATOM     29  C   UNL     1      -0.511  15.214  19.652  0.00  0.00    +0.000 A 
ATOM     30  C   UNL     1       0.821  15.091  19.216  0.00  0.00    +0.000 A 
ATOM     31  C   UNL     1       1.467  16.133  18.542  0.00  0.00    +0.000 A 
BRANCH  26  33
ATOM     32  C   UNL     1       0.778  18.611  16.295  0.00  0.00    +0.000 C 
ATOM     33  O   UNL     1       1.295  18.389  17.604  0.00  0.00    +0.000 OA
ENDBRANCH  26  33
ENDBRANCH  24  29
ENDBRANCH   1  24
BRANCH   2  34
ATOM     34  O   UNL     1       0.113  13.009  22.677  0.00  0.00    +0.000 OA
ATOM     35  H   UNL     1       0.239  13.955  22.440  0.00  0.00    +0.000 HD
ENDBRANCH   2  34
TORSDOF 7
ENDMDL
MODEL 8
REMARK VINA RESULT:      -8.1      3.800      7.272
REMARK  Name = 
REMARK  8 active torsions:
REMARK  status: ('A' for Active; 'I' for Inactive)
REMARK    1  A    between atoms: C_1  and  O_2
REMARK    2  A    between atoms: O_2  and  C_3
REMARK    3  A    between atoms: C_6  and  C_7
REMARK    4  A    between atoms: C_7  and  C_9
REMARK    5  A    between atoms: C_10  and  O_11
REMARK    6  A    between atoms: N_14  and  C_15
REMARK    7  A    between atoms: C_18  and  C_19
REMARK    8  A    between atoms: C_26  and  C_27
REMARK                            x       y       z     vdW  Elec       q    Type
REMARK                         _______ _______ _______ _____ _____    ______ ____
ROOT
ATOM      1  C   UNL     1       0.263  10.889  18.718  0.00  0.00    +0.000 C 
ATOM      2  C   UNL     1       0.477  12.205  18.540  0.00  0.00    +0.000 C 
ATOM      3  C   UNL     1      -0.739  12.933  18.942  0.00  0.00    +0.000 C 
ATOM      4  O   UNL     1      -0.830  14.150  18.956  0.00  0.00    +0.000 OA
ATOM      5  N   UNL     1      -1.661  11.966  19.367  0.00  0.00    +0.000 N 
ATOM      6  C   UNL     1      -1.163  10.612  19.138  0.00  0.00    +0.000 C 
ENDROOT
BRANCH   5   7
ATOM      7  C   UNL     1      -2.766  12.322  20.190  0.00  0.00    +0.000 A 
ATOM      8  C   UNL     1      -3.927  12.871  19.618  0.00  0.00    +0.000 A 
ATOM      9  C   UNL     1      -4.991  13.320  20.410  0.00  0.00    +0.000 A 
ATOM     10  C   UNL     1      -4.909  13.269  21.803  0.00  0.00    +0.000 A 
ATOM     11  C   UNL     1      -3.787  12.653  22.375  0.00  0.00    +0.000 A 
ATOM     12  C   UNL     1      -2.735  12.172  21.579  0.00  0.00    +0.000 A 
BRANCH  10  13
ATOM     13  C   UNL     1      -5.930  13.924  22.620  0.00  0.00    +0.000 A 
ATOM     14  N   UNL     1      -6.100  15.207  22.882  0.00  0.00    +0.000 NA
ATOM     15  C   UNL     1      -7.092  15.224  23.831  0.00  0.00    +0.000 A 
ATOM     16  C   UNL     1      -7.505  13.944  24.096  0.00  0.00    +0.000 A 
ATOM     17  O   UNL     1      -6.775  13.098  23.320  0.00  0.00    +0.000 OA
ENDBRANCH  10  13
ENDBRANCH   5   7
BRANCH   6  18
ATOM     18  C   UNL     1      -1.954   9.803  18.048  0.00  0.00    +0.000 C 
ATOM     19  C   UNL     1      -3.437   9.508  18.364  0.00  0.00    +0.000 C 
ATOM     20  C   UNL     1      -4.459  10.552  17.904  0.00  0.00    +0.000 C 
ATOM     21  C   UNL     1      -4.203  11.134  16.520  0.00  0.00    +0.000 C 
ATOM     22  C   UNL     1      -2.746  11.488  16.276  0.00  0.00    +0.000 C 
ATOM     23  C   UNL     1      -1.830  10.315  16.597  0.00  0.00    +0.000 C 
ENDBRANCH   6  18
BRANCH   1  24
ATOM     24  C   UNL     1       1.355   9.961  18.333  0.00  0.00    +0.000 C 
ATOM     25  O   UNL     1       2.126  10.300  17.428  0.00  0.00    +0.000 OA
BRANCH  24  29
ATOM     26  C   UNL     1       2.315   6.099  19.965  0.00  0.00    +0.000 A 
ATOM     27  C   UNL     1       1.742   7.075  20.791  0.00  0.00    +0.000 A 
ATOM     28  C   UNL     1       1.376   8.336  20.288  0.00  0.00    +0.000 A 
ATOM     29  C   UNL     1       1.588   8.629  18.942  0.00  0.00    +0.000 A 
ATOM     30  C   UNL     1       2.201   7.659  18.127  0.00  0.00    +0.000 A 
ATOM     31  C   UNL     1       2.557   6.403  18.630  0.00  0.00    +0.000 A 
BRANCH  26  33
ATOM     32  C   UNL     1       1.618   3.942  20.666  0.00  0.00    +0.000 C 
ATOM     33  O   UNL     1       2.649   4.923  20.580  0.00  0.00    +0.000 OA
ENDBRANCH  26  33
ENDBRANCH  24  29
ENDBRANCH   1  24
BRANCH   2  34
ATOM     34  O   UNL     1       1.601  12.837  18.083  0.00  0.00    +0.000 OA
ATOM     35  H   UNL     1       1.325  13.434  17.352  0.00  0.00    +0.000 HD
ENDBRANCH   2  34
TORSDOF 7
ENDMDL
MODEL 9
REMARK VINA RESULT:      -8.0      3.904      7.322
REMARK  Name = 
REMARK  8 active torsions:
REMARK  status: ('A' for Active; 'I' for Inactive)
REMARK    1  A    between atoms: C_1  and  O_2
REMARK    2  A    between atoms: O_2  and  C_3
REMARK    3  A    between atoms: C_6  and  C_7
REMARK    4  A    between atoms: C_7  and  C_9
REMARK    5  A    between atoms: C_10  and  O_11
REMARK    6  A    between atoms: N_14  and  C_15
REMARK    7  A    between atoms: C_18  and  C_19
REMARK    8  A    between atoms: C_26  and  C_27
REMARK                            x       y       z     vdW  Elec       q    Type
REMARK                         _______ _______ _______ _____ _____    ______ ____
ROOT
ATOM      1  C   UNL     1       0.669  11.329  19.237  0.00  0.00    +0.000 C 
ATOM      2  C   UNL     1       1.238  12.461  19.690  0.00  0.00    +0.000 C 
ATOM      3  C   UNL     1       0.185  13.312  20.270  0.00  0.00    +0.000 C 
ATOM      4  O   UNL     1       0.399  14.380  20.823  0.00  0.00    +0.000 OA
ATOM      5  N   UNL     1      -1.019  12.607  20.134  0.00  0.00    +0.000 N 
ATOM      6  C   UNL     1      -0.837  11.379  19.363  0.00  0.00    +0.000 C 
ENDROOT
BRANCH   5   7
ATOM      7  C   UNL     1      -2.152  12.934  20.930  0.00  0.00    +0.000 A 
ATOM      8  C   UNL     1      -2.433  12.201  22.096  0.00  0.00    +0.000 A 
ATOM      9  C   UNL     1      -3.591  12.435  22.847  0.00  0.00    +0.000 A 
ATOM     10  C   UNL     1      -4.526  13.387  22.430  0.00  0.00    +0.000 A 
ATOM     11  C   UNL     1      -4.213  14.171  21.312  0.00  0.00    +0.000 A 
ATOM     12  C   UNL     1      -3.034  13.959  20.579  0.00  0.00    +0.000 A 
BRANCH  10  13
ATOM     13  C   UNL     1      -5.822  13.481  23.101  0.00  0.00    +0.000 A 
ATOM     14  N   UNL     1      -6.303  14.443  23.867  0.00  0.00    +0.000 NA
ATOM     15  C   UNL     1      -7.476  13.923  24.357  0.00  0.00    +0.000 A 
ATOM     16  C   UNL     1      -7.674  12.665  23.850  0.00  0.00    +0.000 A 
ATOM     17  O   UNL     1      -6.627  12.370  23.034  0.00  0.00    +0.000 OA
ENDBRANCH  10  13
ENDBRANCH   5   7
BRANCH   6  18
ATOM     18  C   UNL     1      -1.548  11.377  17.962  0.00  0.00    +0.000 C 
ATOM     19  C   UNL     1      -1.763   9.993  17.311  0.00  0.00    +0.000 C 
ATOM     20  C   UNL     1      -3.072   9.272  17.645  0.00  0.00    +0.000 C 
ATOM     21  C   UNL     1      -4.306  10.164  17.674  0.00  0.00    +0.000 C 
ATOM     22  C   UNL     1      -4.079  11.482  18.394  0.00  0.00    +0.000 C 
ATOM     23  C   UNL     1      -2.849  12.201  17.859  0.00  0.00    +0.000 C 
ENDBRANCH   6  18
BRANCH   1  24
ATOM     24  C   UNL     1       1.552  10.340  18.572  0.00  0.00    +0.000 C 
ATOM     25  O   UNL     1       2.089  10.653  17.503  0.00  0.00    +0.000 OA
BRANCH  24  29
ATOM     26  C   UNL     1       2.065   6.373  20.152  0.00  0.00    +0.000 A 
ATOM     27  C   UNL     1       2.563   6.678  18.879  0.00  0.00    +0.000 A 
ATOM     28  C   UNL     1       2.452   7.973  18.342  0.00  0.00    +0.000 A 
ATOM     29  C   UNL     1       1.832   8.977  19.084  0.00  0.00    +0.000 A 
ATOM     30  C   UNL     1       1.298   8.653  20.345  0.00  0.00    +0.000 A 
ATOM     31  C   UNL     1       1.417   7.365  20.878  0.00  0.00    +0.000 A 
BRANCH  26  33
ATOM     32  C   UNL     1       1.060   4.242  20.434  0.00  0.00    +0.000 C 
ATOM     33  O   UNL     1       2.213   5.072  20.550  0.00  0.00    +0.000 OA
ENDBRANCH  26  33
ENDBRANCH  24  29
ENDBRANCH   1  24
BRANCH   2  34
ATOM     34  O   UNL     1       2.555  12.828  19.665  0.00  0.00    +0.000 OA
ATOM     35  H   UNL     1       2.690  13.489  20.381  0.00  0.00    +0.000 HD
ENDBRANCH   2  34
TORSDOF 7
ENDMDL
