MODEL 1
REMARK VINA RESULT:      -7.6      0.000      0.000
REMARK  Name = 
REMARK  5 active torsions:
REMARK  status: ('A' for Active; 'I' for Inactive)
REMARK    1  A    between atoms: C_1  and  O_2
REMARK    2  A    between atoms: O_2  and  C_3
REMARK    3  A    between atoms: N_6  and  C_7
REMARK    4  A    between atoms: C_7  and  C_8
REMARK    5  A    between atoms: C_18  and  C_19
REMARK                            x       y       z     vdW  Elec       q    Type
REMARK                         _______ _______ _______ _____ _____    ______ ____
ROOT
ATOM      1  C   UNL     1       6.690   5.184  16.064  0.00  0.00    +0.000 A 
ATOM      2  N   UNL     1       7.353   6.246  16.530  0.00  0.00    +0.000 NA
ATOM      3  C   UNL     1       6.662   6.962  17.400  0.00  0.00    +0.000 A 
ATOM      4  N   UNL     1       7.228   8.058  18.002  0.00  0.00    +0.000 N 
ATOM      5  N   UNL     1       5.426   6.694  17.764  0.00  0.00    +0.000 NA
ATOM      6  C   UNL     1       4.847   5.607  17.244  0.00  0.00    +0.000 A 
ATOM      7  N   UNL     1       3.583   5.254  17.636  0.00  0.00    +0.000 N 
ATOM      8  C   UNL     1       2.864   6.088  18.576  0.00  0.00    +0.000 C 
ATOM      9  C   UNL     1       2.448   5.255  19.784  0.00  0.00    +0.000 C 
ATOM     10  C   UNL     1       1.700   3.979  19.363  0.00  0.00    +0.000 C 
ATOM     11  C   UNL     1       1.367   3.133  20.593  0.00  0.00    +0.000 C 
ATOM     12  C   UNL     1       2.531   3.180  18.345  0.00  0.00    +0.000 C 
ATOM     13  C   UNL     1       2.954   4.042  17.150  0.00  0.00    +0.000 C 
ATOM     14  N   UNL     1       5.475   4.825  16.394  0.00  0.00    +0.000 NA
ATOM     15  H   UNL     1       7.016   8.188  18.981  0.00  0.00    +0.000 HD
ENDROOT
BRANCH   1  17
ATOM     16  C   UNL     1       6.363   3.984  14.109  0.00  0.00    +0.000 C 
ATOM     17  O   UNL     1       7.314   4.477  15.054  0.00  0.00    +0.000 OA
ENDBRANCH   1  17
BRANCH   4  18
ATOM     18  C   UNL     1       8.264   8.830  17.374  0.00  0.00    +0.000 C 
BRANCH  18  19
ATOM     19  C   UNL     1       8.749   9.961  18.228  0.00  0.00    +0.000 A 
ATOM     20  C   UNL     1       8.978  11.299  17.983  0.00  0.00    +0.000 A 
ATOM     21  C   UNL     1       9.493  11.848  19.182  0.00  0.00    +0.000 A 
ATOM     22  C   UNL     1       9.515  10.819  20.095  0.00  0.00    +0.000 A 
ATOM     23  O   UNL     1       9.057   9.672  19.529  0.00  0.00    +0.000 OA
ENDBRANCH  18  19
ENDBRANCH   4  18
TORSDOF 3
ENDMDL
MODEL 2
REMARK VINA RESULT:      -7.6      0.949      1.044
REMARK  Name = 
REMARK  5 active torsions:
REMARK  status: ('A' for Active; 'I' for Inactive)
REMARK    1  A    between atoms: C_1  and  O_2
REMARK    2  A    between atoms: O_2  and  C_3
REMARK    3  A    between atoms: N_6  and  C_7
REMARK    4  A    between atoms: C_7  and  C_8
REMARK    5  A    between atoms: C_18  and  C_19
REMARK                            x       y       z     vdW  Elec       q    Type
REMARK                         _______ _______ _______ _____ _____    ______ ____
ROOT
ATOM      1  C   UNL     1       5.764   4.467  16.243  0.00  0.00    +0.000 A 
ATOM      2  N   UNL     1       6.572   5.473  16.592  0.00  0.00    +0.000 NA
ATOM      3  C   UNL     1       6.102   6.212  17.581  0.00  0.00    +0.000 A 
ATOM      4  N   UNL     1       6.843   7.254  18.082  0.00  0.00    +0.000 N 
ATOM      5  N   UNL     1       4.938   6.018  18.162  0.00  0.00    +0.000 NA
ATOM      6  C   UNL     1       4.200   4.984  17.745  0.00  0.00    +0.000 A 
ATOM      7  N   UNL     1       3.007   4.707  18.357  0.00  0.00    +0.000 N 
ATOM      8  C   UNL     1       2.529   5.564  19.421  0.00  0.00    +0.000 C 
ATOM      9  C   UNL     1       2.283   4.733  20.676  0.00  0.00    +0.000 C 
ATOM     10  C   UNL     1       1.385   3.520  20.385  0.00  0.00    +0.000 C 
ATOM     11  C   UNL     1       1.223   2.669  21.646  0.00  0.00    +0.000 C 
ATOM     12  C   UNL     1       1.960   2.691  19.224  0.00  0.00    +0.000 C 
ATOM     13  C   UNL     1       2.217   3.551  17.981  0.00  0.00    +0.000 C 
ATOM     14  N   UNL     1       4.607   4.182  16.786  0.00  0.00    +0.000 NA
ATOM     15  H   UNL     1       6.822   7.375  19.084  0.00  0.00    +0.000 HD
ENDROOT
BRANCH   1  17
ATOM     16  C   UNL     1       6.743   4.592  14.147  0.00  0.00    +0.000 C 
ATOM     17  O   UNL     1       6.144   3.745  15.128  0.00  0.00    +0.000 OA
ENDBRANCH   1  17
BRANCH   4  18
ATOM     18  C   UNL     1       7.799   7.970  17.282  0.00  0.00    +0.000 C 
BRANCH  18  19
ATOM     19  C   UNL     1       8.326   9.196  17.963  0.00  0.00    +0.000 A 
ATOM     20  C   UNL     1       8.282  10.540  17.655  0.00  0.00    +0.000 A 
ATOM     21  C   UNL     1       9.017  11.210  18.663  0.00  0.00    +0.000 A 
ATOM     22  C   UNL     1       9.435  10.238  19.541  0.00  0.00    +0.000 A 
ATOM     23  O   UNL     1       9.015   9.013  19.131  0.00  0.00    +0.000 OA
ENDBRANCH  18  19
ENDBRANCH   4  18
TORSDOF 3
ENDMDL
MODEL 3
REMARK VINA RESULT:      -7.5      2.537      6.465
REMARK  Name = 
REMARK  5 active torsions:
REMARK  status: ('A' for Active; 'I' for Inactive)
REMARK    1  A    between atoms: C_1  and  O_2
REMARK    2  A    between atoms: O_2  and  C_3
REMARK    3  A    between atoms: N_6  and  C_7
REMARK    4  A    between atoms: C_7  and  C_8
REMARK    5  A    between atoms: C_18  and  C_19
REMARK                            x       y       z     vdW  Elec       q    Type
REMARK                         _______ _______ _______ _____ _____    ______ ____
ROOT
ATOM      1  C   UNL     1       6.706   5.914  16.553  0.00  0.00    +0.000 A 
ATOM      2  N   UNL     1       6.597   5.552  15.271  0.00  0.00    +0.000 NA
ATOM      3  C   UNL     1       5.721   4.584  15.066  0.00  0.00    +0.000 A 
ATOM      4  N   UNL     1       5.465   4.138  13.794  0.00  0.00    +0.000 N 
ATOM      5  N   UNL     1       5.033   3.994  16.020  0.00  0.00    +0.000 NA
ATOM      6  C   UNL     1       5.209   4.427  17.272  0.00  0.00    +0.000 A 
ATOM      7  N   UNL     1       4.475   3.883  18.291  0.00  0.00    +0.000 N 
ATOM      8  C   UNL     1       3.545   2.809  18.013  0.00  0.00    +0.000 C 
ATOM      9  C   UNL     1       2.150   3.204  18.486  0.00  0.00    +0.000 C 
ATOM     10  C   UNL     1       2.160   3.674  19.950  0.00  0.00    +0.000 C 
ATOM     11  C   UNL     1       0.761   4.134  20.365  0.00  0.00    +0.000 C 
ATOM     12  C   UNL     1       3.196   4.792  20.149  0.00  0.00    +0.000 C 
ATOM     13  C   UNL     1       4.585   4.379  19.649  0.00  0.00    +0.000 C 
ATOM     14  N   UNL     1       6.041   5.405  17.558  0.00  0.00    +0.000 NA
ATOM     15  H   UNL     1       4.500   3.929  13.580  0.00  0.00    +0.000 HD
ENDROOT
BRANCH   1  17
ATOM     16  C   UNL     1       7.877   6.969  18.251  0.00  0.00    +0.000 C 
ATOM     17  O   UNL     1       7.702   6.828  16.841  0.00  0.00    +0.000 OA
ENDBRANCH   1  17
BRANCH   4  18
ATOM     18  C   UNL     1       6.443   4.209  12.743  0.00  0.00    +0.000 C 
BRANCH  18  19
ATOM     19  C   UNL     1       6.542   2.940  11.952  0.00  0.00    +0.000 A 
ATOM     20  C   UNL     1       7.576   2.329  11.274  0.00  0.00    +0.000 A 
ATOM     21  C   UNL     1       7.032   1.170  10.668  0.00  0.00    +0.000 A 
ATOM     22  C   UNL     1       5.710   1.129  11.041  0.00  0.00    +0.000 A 
ATOM     23  O   UNL     1       5.403   2.193  11.827  0.00  0.00    +0.000 OA
ENDBRANCH  18  19
ENDBRANCH   4  18
TORSDOF 3
ENDMDL
MODEL 4
REMARK VINA RESULT:      -7.4      4.200      6.672
REMARK  Name = 
REMARK  5 active torsions:
REMARK  status: ('A' for Active; 'I' for Inactive)
REMARK    1  A    between atoms: C_1  and  O_2
REMARK    2  A    between atoms: O_2  and  C_3
REMARK    3  A    between atoms: N_6  and  C_7
REMARK    4  A    between atoms: C_7  and  C_8
REMARK    5  A    between atoms: C_18  and  C_19
REMARK                            x       y       z     vdW  Elec       q    Type
REMARK                         _______ _______ _______ _____ _____    ______ ____
ROOT
ATOM      1  C   UNL     1       2.413   4.897  20.640  0.00  0.00    +0.000 A 
ATOM      2  N   UNL     1       1.748   6.048  20.770  0.00  0.00    +0.000 NA
ATOM      3  C   UNL     1       2.175   7.002  19.962  0.00  0.00    +0.000 A 
ATOM      4  N   UNL     1       1.558   8.228  19.946  0.00  0.00    +0.000 N 
ATOM      5  N   UNL     1       3.180   6.867  19.123  0.00  0.00    +0.000 NA
ATOM      6  C   UNL     1       3.784   5.675  19.063  0.00  0.00    +0.000 A 
ATOM      7  N   UNL     1       4.797   5.468  18.166  0.00  0.00    +0.000 N 
ATOM      8  C   UNL     1       5.241   6.556  17.320  0.00  0.00    +0.000 C 
ATOM      9  C   UNL     1       5.135   6.141  15.856  0.00  0.00    +0.000 C 
ATOM     10  C   UNL     1       5.843   4.802  15.594  0.00  0.00    +0.000 C 
ATOM     11  C   UNL     1       5.651   4.381  14.136  0.00  0.00    +0.000 C 
ATOM     12  C   UNL     1       5.325   3.722  16.559  0.00  0.00    +0.000 C 
ATOM     13  C   UNL     1       5.423   4.168  18.022  0.00  0.00    +0.000 C 
ATOM     14  N   UNL     1       3.401   4.665  19.813  0.00  0.00    +0.000 NA
ATOM     15  H   UNL     1       1.439   8.656  19.040  0.00  0.00    +0.000 HD
ENDROOT
BRANCH   1  17
ATOM     16  C   UNL     1       1.250   2.919  20.963  0.00  0.00    +0.000 C 
ATOM     17  O   UNL     1       2.096   3.908  21.552  0.00  0.00    +0.000 OA
ENDBRANCH   1  17
BRANCH   4  18
ATOM     18  C   UNL     1       0.881   8.761  21.097  0.00  0.00    +0.000 C 
BRANCH  18  19
ATOM     19  C   UNL     1       0.320  10.130  20.860  0.00  0.00    +0.000 A 
ATOM     20  C   UNL     1      -0.637  10.622  19.996  0.00  0.00    +0.000 A 
ATOM     21  C   UNL     1      -0.687  12.022  20.204  0.00  0.00    +0.000 A 
ATOM     22  C   UNL     1       0.217  12.292  21.205  0.00  0.00    +0.000 A 
ATOM     23  O   UNL     1       0.827  11.151  21.616  0.00  0.00    +0.000 OA
ENDBRANCH  18  19
ENDBRANCH   4  18
TORSDOF 3
ENDMDL
MODEL 5
REMARK VINA RESULT:      -7.3      4.216      6.960
REMARK  Name = 
REMARK  5 active torsions:
REMARK  status: ('A' for Active; 'I' for Inactive)
REMARK    1  A    between atoms: C_1  and  O_2
REMARK    2  A    between atoms: O_2  and  C_3
REMARK    3  A    between atoms: N_6  and  C_7
REMARK    4  A    between atoms: C_7  and  C_8
REMARK    5  A    between atoms: C_18  and  C_19
REMARK                            x       y       z     vdW  Elec       q    Type
REMARK                         _______ _______ _______ _____ _____    ______ ____
ROOT
ATOM      1  C   UNL     1       2.513   5.799  19.835  0.00  0.00    +0.000 A 
ATOM      2  N   UNL     1       1.874   6.962  19.680  0.00  0.00    +0.000 NA
ATOM      3  C   UNL     1       2.362   7.709  18.705  0.00  0.00    +0.000 A 
ATOM      4  N   UNL     1       1.780   8.913  18.395  0.00  0.00    +0.000 N 
ATOM      5  N   UNL     1       3.398   7.377  17.966  0.00  0.00    +0.000 NA
ATOM      6  C   UNL     1       3.971   6.191  18.195  0.00  0.00    +0.000 A 
ATOM      7  N   UNL     1       5.016   5.776  17.414  0.00  0.00    +0.000 N 
ATOM      8  C   UNL     1       5.525   6.645  16.374  0.00  0.00    +0.000 C 
ATOM      9  C   UNL     1       5.471   5.922  15.032  0.00  0.00    +0.000 C 
ATOM     10  C   UNL     1       6.153   4.546  15.101  0.00  0.00    +0.000 C 
ATOM     11  C   UNL     1       6.012   3.820  13.762  0.00  0.00    +0.000 C 
ATOM     12  C   UNL     1       5.564   3.712  16.251  0.00  0.00    +0.000 C 
ATOM     13  C   UNL     1       5.612   4.465  17.585  0.00  0.00    +0.000 C 
ATOM     14  N   UNL     1       3.529   5.375  19.127  0.00  0.00    +0.000 NA
ATOM     15  H   UNL     1       1.712   9.135  17.412  0.00  0.00    +0.000 HD
ENDROOT
BRANCH   1  17
ATOM     16  C   UNL     1       1.107   4.109  20.566  0.00  0.00    +0.000 C 
ATOM     17  O   UNL     1       2.130   5.039  20.924  0.00  0.00    +0.000 OA
ENDBRANCH   1  17
BRANCH   4  18
ATOM     18  C   UNL     1       1.069   9.696  19.368  0.00  0.00    +0.000 C 
BRANCH  18  19
ATOM     19  C   UNL     1      -0.245  10.204  18.860  0.00  0.00    +0.000 A 
ATOM     20  C   UNL     1      -1.203  11.044  19.392  0.00  0.00    +0.000 A 
ATOM     21  C   UNL     1      -2.260  11.097  18.451  0.00  0.00    +0.000 A 
ATOM     22  C   UNL     1      -1.869  10.314  17.391  0.00  0.00    +0.000 A 
ATOM     23  O   UNL     1      -0.645   9.774  17.624  0.00  0.00    +0.000 OA
ENDBRANCH  18  19
ENDBRANCH   4  18
TORSDOF 3
ENDMDL
MODEL 6
REMARK VINA RESULT:      -7.2      3.701      5.750
REMARK  Name = 
REMARK  5 active torsions:
REMARK  status: ('A' for Active; 'I' for Inactive)
REMARK    1  A    between atoms: C_1  and  O_2
REMARK    2  A    between atoms: O_2  and  C_3
REMARK    3  A    between atoms: N_6  and  C_7
REMARK    4  A    between atoms: C_7  and  C_8
REMARK    5  A    between atoms: C_18  and  C_19
REMARK                            x       y       z     vdW  Elec       q    Type
REMARK                         _______ _______ _______ _____ _____    ______ ____
ROOT
ATOM      1  C   UNL     1       5.161   4.613  19.030  0.00  0.00    +0.000 A 
ATOM      2  N   UNL     1       5.991   4.811  18.003  0.00  0.00    +0.000 NA
ATOM      3  C   UNL     1       5.597   5.766  17.179  0.00  0.00    +0.000 A 
ATOM      4  N   UNL     1       6.372   6.117  16.101  0.00  0.00    +0.000 N 
ATOM      5  N   UNL     1       4.482   6.450  17.317  0.00  0.00    +0.000 NA
ATOM      6  C   UNL     1       3.716   6.181  18.380  0.00  0.00    +0.000 A 
ATOM      7  N   UNL     1       2.574   6.905  18.597  0.00  0.00    +0.000 N 
ATOM      8  C   UNL     1       2.178   7.925  17.650  0.00  0.00    +0.000 C 
ATOM      9  C   UNL     1       2.031   9.262  18.370  0.00  0.00    +0.000 C 
ATOM     10  C   UNL     1       1.116   9.146  19.599  0.00  0.00    +0.000 C 
ATOM     11  C   UNL     1       1.053  10.484  20.338  0.00  0.00    +0.000 C 
ATOM     12  C   UNL     1       1.601   8.019  20.527  0.00  0.00    +0.000 C 
ATOM     13  C   UNL     1       1.760   6.691  19.778  0.00  0.00    +0.000 C 
ATOM     14  N   UNL     1       4.050   5.266  19.263  0.00  0.00    +0.000 NA
ATOM     15  H   UNL     1       6.428   7.104  15.895  0.00  0.00    +0.000 HD
ENDROOT
BRANCH   1  17
ATOM     16  C   UNL     1       4.400   2.576  19.830  0.00  0.00    +0.000 C 
ATOM     17  O   UNL     1       5.455   3.539  19.848  0.00  0.00    +0.000 OA
ENDBRANCH   1  17
BRANCH   4  18
ATOM     18  C   UNL     1       7.262   5.188  15.461  0.00  0.00    +0.000 C 
BRANCH  18  19
ATOM     19  C   UNL     1       6.678   4.580  14.222  0.00  0.00    +0.000 A 
ATOM     20  C   UNL     1       5.501   3.908  13.965  0.00  0.00    +0.000 A 
ATOM     21  C   UNL     1       5.545   3.523  12.603  0.00  0.00    +0.000 A 
ATOM     22  C   UNL     1       6.729   4.014  12.105  0.00  0.00    +0.000 A 
ATOM     23  O   UNL     1       7.421   4.665  13.076  0.00  0.00    +0.000 OA
ENDBRANCH  18  19
ENDBRANCH   4  18
TORSDOF 3
ENDMDL
MODEL 7
REMARK VINA RESULT:      -7.2      3.297      6.260
REMARK  Name = 
REMARK  5 active torsions:
REMARK  status: ('A' for Active; 'I' for Inactive)
REMARK    1  A    between atoms: C_1  and  O_2
REMARK    2  A    between atoms: O_2  and  C_3
REMARK    3  A    between atoms: N_6  and  C_7
REMARK    4  A    between atoms: C_7  and  C_8
REMARK    5  A    between atoms: C_18  and  C_19
REMARK                            x       y       z     vdW  Elec       q    Type
REMARK                         _______ _______ _______ _____ _____    ______ ____
ROOT
ATOM      1  C   UNL     1       6.993   4.483  17.457  0.00  0.00    +0.000 A 
ATOM      2  N   UNL     1       6.936   4.643  16.132  0.00  0.00    +0.000 NA
ATOM      3  C   UNL     1       5.773   4.300  15.606  0.00  0.00    +0.000 A 
ATOM      4  N   UNL     1       5.547   4.453  14.261  0.00  0.00    +0.000 N 
ATOM      5  N   UNL     1       4.764   3.813  16.295  0.00  0.00    +0.000 NA
ATOM      6  C   UNL     1       4.916   3.691  17.618  0.00  0.00    +0.000 A 
ATOM      7  N   UNL     1       3.874   3.243  18.385  0.00  0.00    +0.000 N 
ATOM      8  C   UNL     1       2.629   2.859  17.753  0.00  0.00    +0.000 C 
ATOM      9  C   UNL     1       1.482   3.667  18.351  0.00  0.00    +0.000 C 
ATOM     10  C   UNL     1       1.469   3.582  19.886  0.00  0.00    +0.000 C 
ATOM     11  C   UNL     1       0.355   4.464  20.453  0.00  0.00    +0.000 C 
ATOM     12  C   UNL     1       2.840   3.980  20.458  0.00  0.00    +0.000 C 
ATOM     13  C   UNL     1       3.978   3.169  19.829  0.00  0.00    +0.000 C 
ATOM     14  N   UNL     1       6.030   4.037  18.223  0.00  0.00    +0.000 NA
ATOM     15  H   UNL     1       4.630   4.784  13.997  0.00  0.00    +0.000 HD
ENDROOT
BRANCH   1  17
ATOM     16  C   UNL     1       8.109   5.530  19.196  0.00  0.00    +0.000 C 
ATOM     17  O   UNL     1       8.227   4.700  18.040  0.00  0.00    +0.000 OA
ENDBRANCH   1  17
BRANCH   4  18
ATOM     18  C   UNL     1       6.609   4.408  13.293  0.00  0.00    +0.000 C 
BRANCH  18  19
ATOM     19  C   UNL     1       6.472   3.268  12.331  0.00  0.00    +0.000 A 
ATOM     20  C   UNL     1       5.396   2.518  11.902  0.00  0.00    +0.000 A 
ATOM     21  C   UNL     1       5.913   1.535  11.023  0.00  0.00    +0.000 A 
ATOM     22  C   UNL     1       7.266   1.767  10.944  0.00  0.00    +0.000 A 
ATOM     23  O   UNL     1       7.615   2.821  11.727  0.00  0.00    +0.000 OA
ENDBRANCH  18  19
ENDBRANCH   4  18
TORSDOF 3
ENDMDL
MODEL 8
REMARK VINA RESULT:      -7.0      4.127      6.162
REMARK  Name = 
REMARK  5 active torsions:
REMARK  status: ('A' for Active; 'I' for Inactive)
REMARK    1  A    between atoms: C_1  and  O_2
REMARK    2  A    between atoms: O_2  and  C_3
REMARK    3  A    between atoms: N_6  and  C_7
REMARK    4  A    between atoms: C_7  and  C_8
REMARK    5  A    between atoms: C_18  and  C_19
REMARK                            x       y       z     vdW  Elec       q    Type
REMARK                         _______ _______ _______ _____ _____    ______ ____
ROOT
ATOM      1  C   UNL     1       2.431   5.583  20.117  0.00  0.00    +0.000 A 
ATOM      2  N   UNL     1       1.785   6.751  20.044  0.00  0.00    +0.000 NA
ATOM      3  C   UNL     1       2.258   7.560  19.113  0.00  0.00    +0.000 A 
ATOM      4  N   UNL     1       1.666   8.778  18.886  0.00  0.00    +0.000 N 
ATOM      5  N   UNL     1       3.286   7.281  18.341  0.00  0.00    +0.000 NA
ATOM      6  C   UNL     1       3.867   6.086  18.488  0.00  0.00    +0.000 A 
ATOM      7  N   UNL     1       4.904   5.727  17.670  0.00  0.00    +0.000 N 
ATOM      8  C   UNL     1       5.397   6.662  16.682  0.00  0.00    +0.000 C 
ATOM      9  C   UNL     1       5.330   6.026  15.297  0.00  0.00    +0.000 C 
ATOM     10  C   UNL     1       6.019   4.652  15.271  0.00  0.00    +0.000 C 
ATOM     11  C   UNL     1       5.866   4.012  13.890  0.00  0.00    +0.000 C 
ATOM     12  C   UNL     1       5.448   3.744  16.373  0.00  0.00    +0.000 C 
ATOM     13  C   UNL     1       5.508   4.411  17.751  0.00  0.00    +0.000 C 
ATOM     14  N   UNL     1       3.440   5.210  19.371  0.00  0.00    +0.000 NA
ATOM     15  H   UNL     1       1.585   9.062  17.920  0.00  0.00    +0.000 HD
ENDROOT
BRANCH   1  17
ATOM     16  C   UNL     1       1.227   3.692  20.701  0.00  0.00    +0.000 C 
ATOM     17  O   UNL     1       2.064   4.754  21.160  0.00  0.00    +0.000 OA
ENDBRANCH   1  17
BRANCH   4  18
ATOM     18  C   UNL     1       0.963   9.494  19.915  0.00  0.00    +0.000 C 
BRANCH  18  19
ATOM     19  C   UNL     1       1.172  10.976  19.841  0.00  0.00    +0.000 A 
ATOM     20  C   UNL     1       1.397  11.846  18.794  0.00  0.00    +0.000 A 
ATOM     21  C   UNL     1       1.577  13.129  19.367  0.00  0.00    +0.000 A 
ATOM     22  C   UNL     1       1.417  12.968  20.723  0.00  0.00    +0.000 A 
ATOM     23  O   UNL     1       1.163  11.667  21.021  0.00  0.00    +0.000 OA
ENDBRANCH  18  19
ENDBRANCH   4  18
TORSDOF 3
ENDMDL
MODEL 9
REMARK VINA RESULT:      -6.8      3.906      6.458
REMARK  Name = 
REMARK  5 active torsions:
REMARK  status: ('A' for Active; 'I' for Inactive)
REMARK    1  A    between atoms: C_1  and  O_2
REMARK    2  A    between atoms: O_2  and  C_3
REMARK    3  A    between atoms: N_6  and  C_7
REMARK    4  A    between atoms: C_7  and  C_8
REMARK    5  A    between atoms: C_18  and  C_19
REMARK                            x       y       z     vdW  Elec       q    Type
REMARK                         _______ _______ _______ _____ _____    ______ ____
ROOT
ATOM      1  C   UNL     1       1.966   4.053  18.000  0.00  0.00    +0.000 A 
ATOM      2  N   UNL     1       1.718   5.079  18.819  0.00  0.00    +0.000 NA
ATOM      3  C   UNL     1       2.759   5.871  19.008  0.00  0.00    +0.000 A 
ATOM      4  N   UNL     1       2.644   6.995  19.787  0.00  0.00    +0.000 N 
ATOM      5  N   UNL     1       3.947   5.671  18.479  0.00  0.00    +0.000 NA
ATOM      6  C   UNL     1       4.097   4.617  17.670  0.00  0.00    +0.000 A 
ATOM      7  N   UNL     1       5.299   4.400  17.051  0.00  0.00    +0.000 N 
ATOM      8  C   UNL     1       6.413   5.286  17.312  0.00  0.00    +0.000 C 
ATOM      9  C   UNL     1       6.917   5.874  15.998  0.00  0.00    +0.000 C 
ATOM     10  C   UNL     1       7.207   4.778  14.960  0.00  0.00    +0.000 C 
ATOM     11  C   UNL     1       7.636   5.407  13.634  0.00  0.00    +0.000 C 
ATOM     12  C   UNL     1       5.976   3.874  14.776  0.00  0.00    +0.000 C 
ATOM     13  C   UNL     1       5.476   3.310  16.110  0.00  0.00    +0.000 C 
ATOM     14  N   UNL     1       3.104   3.797  17.407  0.00  0.00    +0.000 NA
ATOM     15  H   UNL     1       3.125   7.819  19.456  0.00  0.00    +0.000 HD
ENDROOT
BRANCH   1  17
ATOM     16  C   UNL     1       0.777   2.386  19.084  0.00  0.00    +0.000 C 
ATOM     17  O   UNL     1       0.953   3.122  17.873  0.00  0.00    +0.000 OA
ENDBRANCH   1  17
BRANCH   4  18
ATOM     18  C   UNL     1       1.693   7.091  20.861  0.00  0.00    +0.000 C 
BRANCH  18  19
ATOM     19  C   UNL     1       1.157   8.478  21.042  0.00  0.00    +0.000 A 
ATOM     20  C   UNL     1       0.732   9.190  22.145  0.00  0.00    +0.000 A 
ATOM     21  C   UNL     1       0.275  10.442  21.667  0.00  0.00    +0.000 A 
ATOM     22  C   UNL     1       0.480  10.430  20.307  0.00  0.00    +0.000 A 
ATOM     23  O   UNL     1       1.022   9.246  19.918  0.00  0.00    +0.000 OA
ENDBRANCH  18  19
ENDBRANCH   4  18
TORSDOF 3
ENDMDL
