MODEL 1
REMARK VINA RESULT:      -7.8      0.000      0.000
REMARK  Name = 
REMARK  7 active torsions:
REMARK  status: ('A' for Active; 'I' for Inactive)
REMARK    1  A    between atoms: C_1  and  C_2
REMARK    2  A    between atoms: C_2  and  O_3
REMARK    3  A    between atoms: O_3  and  C_4
REMARK    4  A    between atoms: C_4  and  C_6
REMARK    5  A    between atoms: C_14  and  C_15
REMARK    6  A    between atoms: C_15  and  C_16
REMARK    7  A    between atoms: C_15  and  C_17
REMARK                            x       y       z     vdW  Elec       q    Type
REMARK                         _______ _______ _______ _____ _____    ______ ____
ROOT
ATOM      1  C   UNL     1       2.733   4.353  18.722  0.00  0.00    +0.000 A 
ATOM      2  C   UNL     1       3.367   5.149  19.598  0.00  0.00    +0.000 A 
ATOM      3  N   UNL     1       4.578   5.736  19.343  0.00  0.00    +0.000 N 
ATOM      4  C   UNL     1       5.239   5.551  18.148  0.00  0.00    +0.000 A 
ATOM      5  C   UNL     1       6.520   6.228  17.960  0.00  0.00    +0.000 A 
ATOM      6  C   UNL     1       7.187   6.071  16.805  0.00  0.00    +0.000 A 
ATOM      7  N   UNL     1       6.647   5.260  15.812  0.00  0.00    +0.000 N 
ATOM      8  C   UNL     1       7.149   4.963  14.571  0.00  0.00    +0.000 A 
ATOM      9  C   UNL     1       6.236   4.111  13.989  0.00  0.00    +0.000 A 
ATOM     10  N   UNL     1       5.183   3.894  14.844  0.00  0.00    +0.000 NA
ATOM     11  C   UNL     1       5.438   4.586  15.938  0.00  0.00    +0.000 A 
ATOM     12  C   UNL     1       4.730   4.762  17.166  0.00  0.00    +0.000 A 
ATOM     13  C   UNL     1       3.422   4.067  17.424  0.00  0.00    +0.000 A 
ATOM     14  O   UNL     1       2.957   3.256  16.629  0.00  0.00    +0.000 OA
ATOM     15  H   UNL     1       5.007   6.305  20.067  0.00  0.00    +0.000 HD
ENDROOT
BRANCH   9  16
ATOM     16  C   UNL     1       6.275   3.465  12.638  0.00  0.00    +0.000 C 
ATOM     17  C   UNL     1       4.887   3.418  11.997  0.00  0.00    +0.000 C 
ATOM     18  C   UNL     1       7.266   4.170  11.710  0.00  0.00    +0.000 C 
ENDBRANCH   9  16
BRANCH   1  19
ATOM     19  C   UNL     1       1.457   3.735  19.130  0.00  0.00    +0.000 C 
ATOM     20  O   UNL     1       0.726   3.120  18.366  0.00  0.00    +0.000 OA
BRANCH  19  21
ATOM     21  O   UNL     1       1.202   3.989  20.433  0.00  0.00    +0.000 OA
BRANCH  21  23
ATOM     22  C   UNL     1       2.563   2.465  21.683  0.00  0.00    +0.000 C 
ATOM     23  C   UNL     1       1.145   2.849  21.295  0.00  0.00    +0.000 C 
ENDBRANCH  21  23
ENDBRANCH  19  21
ENDBRANCH   1  19
TORSDOF 4
ENDMDL
MODEL 2
REMARK VINA RESULT:      -7.8      3.285      6.852
REMARK  Name = 
REMARK  7 active torsions:
REMARK  status: ('A' for Active; 'I' for Inactive)
REMARK    1  A    between atoms: C_1  and  C_2
REMARK    2  A    between atoms: C_2  and  O_3
REMARK    3  A    between atoms: O_3  and  C_4
REMARK    4  A    between atoms: C_4  and  C_6
REMARK    5  A    between atoms: C_14  and  C_15
REMARK    6  A    between atoms: C_15  and  C_16
REMARK    7  A    between atoms: C_15  and  C_17
REMARK                            x       y       z     vdW  Elec       q    Type
REMARK                         _______ _______ _______ _____ _____    ______ ____
ROOT
ATOM      1  C   UNL     1       6.051   4.908  15.583  0.00  0.00    +0.000 A 
ATOM      2  C   UNL     1       6.270   3.929  16.475  0.00  0.00    +0.000 A 
ATOM      3  N   UNL     1       5.661   3.877  17.701  0.00  0.00    +0.000 N 
ATOM      4  C   UNL     1       4.764   4.838  18.109  0.00  0.00    +0.000 A 
ATOM      5  C   UNL     1       4.153   4.693  19.429  0.00  0.00    +0.000 A 
ATOM      6  C   UNL     1       3.272   5.613  19.855  0.00  0.00    +0.000 A 
ATOM      7  N   UNL     1       2.961   6.689  19.031  0.00  0.00    +0.000 N 
ATOM      8  C   UNL     1       2.098   7.731  19.260  0.00  0.00    +0.000 A 
ATOM      9  C   UNL     1       2.165   8.529  18.137  0.00  0.00    +0.000 A 
ATOM     10  N   UNL     1       3.039   7.987  17.226  0.00  0.00    +0.000 NA
ATOM     11  C   UNL     1       3.515   6.884  17.771  0.00  0.00    +0.000 A 
ATOM     12  C   UNL     1       4.448   5.900  17.321  0.00  0.00    +0.000 A 
ATOM     13  C   UNL     1       5.126   6.015  15.985  0.00  0.00    +0.000 A 
ATOM     14  O   UNL     1       4.973   6.999  15.268  0.00  0.00    +0.000 OA
ATOM     15  H   UNL     1       5.899   3.117  18.333  0.00  0.00    +0.000 HD
ENDROOT
BRANCH   9  16
ATOM     16  C   UNL     1       1.438   9.804  17.841  0.00  0.00    +0.000 C 
ATOM     17  C   UNL     1       0.208   9.971  18.734  0.00  0.00    +0.000 C 
ATOM     18  C   UNL     1       2.362  11.017  17.974  0.00  0.00    +0.000 C 
ENDBRANCH   9  16
BRANCH   1  19
ATOM     19  C   UNL     1       6.804   4.885  14.316  0.00  0.00    +0.000 C 
ATOM     20  O   UNL     1       7.831   5.523  14.124  0.00  0.00    +0.000 OA
BRANCH  19  21
ATOM     21  O   UNL     1       6.176   4.110  13.403  0.00  0.00    +0.000 OA
BRANCH  21  23
ATOM     22  C   UNL     1       6.448   2.498  11.652  0.00  0.00    +0.000 C 
ATOM     23  C   UNL     1       6.905   3.839  12.202  0.00  0.00    +0.000 C 
ENDBRANCH  21  23
ENDBRANCH  19  21
ENDBRANCH   1  19
TORSDOF 4
ENDMDL
MODEL 3
REMARK VINA RESULT:      -7.6      3.029      7.032
REMARK  Name = 
REMARK  7 active torsions:
REMARK  status: ('A' for Active; 'I' for Inactive)
REMARK    1  A    between atoms: C_1  and  C_2
REMARK    2  A    between atoms: C_2  and  O_3
REMARK    3  A    between atoms: O_3  and  C_4
REMARK    4  A    between atoms: C_4  and  C_6
REMARK    5  A    between atoms: C_14  and  C_15
REMARK    6  A    between atoms: C_15  and  C_16
REMARK    7  A    between atoms: C_15  and  C_17
REMARK                            x       y       z     vdW  Elec       q    Type
REMARK                         _______ _______ _______ _____ _____    ______ ____
ROOT
ATOM      1  C   UNL     1       5.258   4.785  16.529  0.00  0.00    +0.000 A 
ATOM      2  C   UNL     1       5.310   3.600  17.159  0.00  0.00    +0.000 A 
ATOM      3  N   UNL     1       4.623   3.329  18.312  0.00  0.00    +0.000 N 
ATOM      4  C   UNL     1       3.814   4.267  18.914  0.00  0.00    +0.000 A 
ATOM      5  C   UNL     1       3.108   3.883  20.136  0.00  0.00    +0.000 A 
ATOM      6  C   UNL     1       2.309   4.774  20.745  0.00  0.00    +0.000 A 
ATOM      7  N   UNL     1       2.172   6.047  20.203  0.00  0.00    +0.000 N 
ATOM      8  C   UNL     1       1.417   7.101  20.651  0.00  0.00    +0.000 A 
ATOM      9  C   UNL     1       1.642   8.131  19.764  0.00  0.00    +0.000 A 
ATOM     10  N   UNL     1       2.507   7.722  18.777  0.00  0.00    +0.000 NA
ATOM     11  C   UNL     1       2.822   6.470  19.049  0.00  0.00    +0.000 A 
ATOM     12  C   UNL     1       3.668   5.517  18.403  0.00  0.00    +0.000 A 
ATOM     13  C   UNL     1       4.437   5.867  17.160  0.00  0.00    +0.000 A 
ATOM     14  O   UNL     1       4.440   7.006  16.704  0.00  0.00    +0.000 OA
ATOM     15  H   UNL     1       4.735   2.416  18.745  0.00  0.00    +0.000 HD
ENDROOT
BRANCH   9  16
ATOM     16  C   UNL     1       1.081   9.520  19.767  0.00  0.00    +0.000 C 
ATOM     17  C   UNL     1       0.726   9.986  18.355  0.00  0.00    +0.000 C 
ATOM     18  C   UNL     1      -0.137   9.628  20.687  0.00  0.00    +0.000 C 
ENDBRANCH   9  16
BRANCH   1  19
ATOM     19  C   UNL     1       6.083   4.976  15.322  0.00  0.00    +0.000 C 
ATOM     20  O   UNL     1       7.147   5.581  15.315  0.00  0.00    +0.000 OA
BRANCH  19  21
ATOM     21  O   UNL     1       5.476   4.437  14.241  0.00  0.00    +0.000 OA
BRANCH  21  23
ATOM     22  C   UNL     1       5.488   3.259  12.156  0.00  0.00    +0.000 C 
ATOM     23  C   UNL     1       6.342   3.894  13.240  0.00  0.00    +0.000 C 
ENDBRANCH  21  23
ENDBRANCH  19  21
ENDBRANCH   1  19
TORSDOF 4
ENDMDL
MODEL 4
REMARK VINA RESULT:      -7.3      2.155      6.512
REMARK  Name = 
REMARK  7 active torsions:
REMARK  status: ('A' for Active; 'I' for Inactive)
REMARK    1  A    between atoms: C_1  and  C_2
REMARK    2  A    between atoms: C_2  and  O_3
REMARK    3  A    between atoms: O_3  and  C_4
REMARK    4  A    between atoms: C_4  and  C_6
REMARK    5  A    between atoms: C_14  and  C_15
REMARK    6  A    between atoms: C_15  and  C_16
REMARK    7  A    between atoms: C_15  and  C_17
REMARK                            x       y       z     vdW  Elec       q    Type
REMARK                         _______ _______ _______ _____ _____    ______ ____
ROOT
ATOM      1  C   UNL     1       6.190   4.117  13.826  0.00  0.00    +0.000 A 
ATOM      2  C   UNL     1       7.295   4.871  13.936  0.00  0.00    +0.000 A 
ATOM      3  N   UNL     1       7.646   5.531  15.084  0.00  0.00    +0.000 N 
ATOM      4  C   UNL     1       6.879   5.462  16.226  0.00  0.00    +0.000 A 
ATOM      5  C   UNL     1       7.339   6.187  17.408  0.00  0.00    +0.000 A 
ATOM      6  C   UNL     1       6.615   6.137  18.538  0.00  0.00    +0.000 A 
ATOM      7  N   UNL     1       5.437   5.398  18.559  0.00  0.00    +0.000 N 
ATOM      8  C   UNL     1       4.554   5.209  19.591  0.00  0.00    +0.000 A 
ATOM      9  C   UNL     1       3.552   4.407  19.088  0.00  0.00    +0.000 A 
ATOM     10  N   UNL     1       3.814   4.094  17.776  0.00  0.00    +0.000 NA
ATOM     11  C   UNL     1       4.947   4.694  17.465  0.00  0.00    +0.000 A 
ATOM     12  C   UNL     1       5.724   4.748  16.267  0.00  0.00    +0.000 A 
ATOM     13  C   UNL     1       5.283   4.043  15.015  0.00  0.00    +0.000 A 
ATOM     14  O   UNL     1       4.200   3.470  14.946  0.00  0.00    +0.000 OA
ATOM     15  H   UNL     1       8.485   6.104  15.081  0.00  0.00    +0.000 HD
ENDROOT
BRANCH   9  16
ATOM     16  C   UNL     1       2.325   3.889  19.772  0.00  0.00    +0.000 C 
ATOM     17  C   UNL     1       1.630   4.981  20.585  0.00  0.00    +0.000 C 
ATOM     18  C   UNL     1       1.349   3.265  18.772  0.00  0.00    +0.000 C 
ENDBRANCH   9  16
BRANCH   1  19
ATOM     19  C   UNL     1       5.889   3.498  12.522  0.00  0.00    +0.000 C 
ATOM     20  O   UNL     1       6.689   2.823  11.889  0.00  0.00    +0.000 OA
BRANCH  19  21
ATOM     21  O   UNL     1       4.640   3.823  12.119  0.00  0.00    +0.000 OA
BRANCH  21  23
ATOM     22  C   UNL     1       3.285   3.812  10.143  0.00  0.00    +0.000 C 
ATOM     23  C   UNL     1       4.051   2.959  11.141  0.00  0.00    +0.000 C 
ENDBRANCH  21  23
ENDBRANCH  19  21
ENDBRANCH   1  19
TORSDOF 4
ENDMDL
MODEL 5
REMARK VINA RESULT:      -7.2      3.958      5.130
REMARK  Name = 
REMARK  7 active torsions:
REMARK  status: ('A' for Active; 'I' for Inactive)
REMARK    1  A    between atoms: C_1  and  C_2
REMARK    2  A    between atoms: C_2  and  O_3
REMARK    3  A    between atoms: O_3  and  C_4
REMARK    4  A    between atoms: C_4  and  C_6
REMARK    5  A    between atoms: C_14  and  C_15
REMARK    6  A    between atoms: C_15  and  C_16
REMARK    7  A    between atoms: C_15  and  C_17
REMARK                            x       y       z     vdW  Elec       q    Type
REMARK                         _______ _______ _______ _____ _____    ______ ____
ROOT
ATOM      1  C   UNL     1       1.490   8.857  19.377  0.00  0.00    +0.000 A 
ATOM      2  C   UNL     1       1.157   8.190  20.494  0.00  0.00    +0.000 A 
ATOM      3  N   UNL     1       1.612   6.932  20.784  0.00  0.00    +0.000 N 
ATOM      4  C   UNL     1       2.461   6.252  19.939  0.00  0.00    +0.000 A 
ATOM      5  C   UNL     1       2.906   4.918  20.338  0.00  0.00    +0.000 A 
ATOM      6  C   UNL     1       3.736   4.231  19.536  0.00  0.00    +0.000 A 
ATOM      7  N   UNL     1       4.151   4.801  18.338  0.00  0.00    +0.000 N 
ATOM      8  C   UNL     1       4.988   4.286  17.380  0.00  0.00    +0.000 A 
ATOM      9  C   UNL     1       5.064   5.244  16.392  0.00  0.00    +0.000 A 
ATOM     10  N   UNL     1       4.302   6.335  16.734  0.00  0.00    +0.000 NA
ATOM     11  C   UNL     1       3.756   6.061  17.903  0.00  0.00    +0.000 A 
ATOM     12  C   UNL     1       2.877   6.789  18.762  0.00  0.00    +0.000 A 
ATOM     13  C   UNL     1       2.367   8.153  18.388  0.00  0.00    +0.000 A 
ATOM     14  O   UNL     1       2.613   8.655  17.296  0.00  0.00    +0.000 OA
ATOM     15  H   UNL     1       1.294   6.482  21.638  0.00  0.00    +0.000 HD
ENDROOT
BRANCH   9  16
ATOM     16  C   UNL     1       5.830   5.214  15.105  0.00  0.00    +0.000 C 
ATOM     17  C   UNL     1       7.322   4.981  15.345  0.00  0.00    +0.000 C 
ATOM     18  C   UNL     1       5.273   4.159  14.147  0.00  0.00    +0.000 C 
ENDBRANCH   9  16
BRANCH   1  19
ATOM     19  C   UNL     1       0.895  10.186  19.148  0.00  0.00    +0.000 C 
ATOM     20  O   UNL     1       1.551  11.204  18.977  0.00  0.00    +0.000 OA
BRANCH  19  21
ATOM     21  O   UNL     1      -0.454  10.119  19.205  0.00  0.00    +0.000 OA
BRANCH  21  23
ATOM     22  C   UNL     1      -1.791   9.929  17.227  0.00  0.00    +0.000 C 
ATOM     23  C   UNL     1      -1.163  10.885  18.226  0.00  0.00    +0.000 C 
ENDBRANCH  21  23
ENDBRANCH  19  21
ENDBRANCH   1  19
TORSDOF 4
ENDMDL
MODEL 6
REMARK VINA RESULT:      -7.2      2.945      6.914
REMARK  Name = 
REMARK  7 active torsions:
REMARK  status: ('A' for Active; 'I' for Inactive)
REMARK    1  A    between atoms: C_1  and  C_2
REMARK    2  A    between atoms: C_2  and  O_3
REMARK    3  A    between atoms: O_3  and  C_4
REMARK    4  A    between atoms: C_4  and  C_6
REMARK    5  A    between atoms: C_14  and  C_15
REMARK    6  A    between atoms: C_15  and  C_16
REMARK    7  A    between atoms: C_15  and  C_17
REMARK                            x       y       z     vdW  Elec       q    Type
REMARK                         _______ _______ _______ _____ _____    ______ ____
ROOT
ATOM      1  C   UNL     1       5.847   4.650  15.323  0.00  0.00    +0.000 A 
ATOM      2  C   UNL     1       5.914   3.434  15.887  0.00  0.00    +0.000 A 
ATOM      3  N   UNL     1       5.265   3.105  17.047  0.00  0.00    +0.000 N 
ATOM      4  C   UNL     1       4.481   4.012  17.725  0.00  0.00    +0.000 A 
ATOM      5  C   UNL     1       3.814   3.567  18.947  0.00  0.00    +0.000 A 
ATOM      6  C   UNL     1       3.040   4.427  19.629  0.00  0.00    +0.000 A 
ATOM      7  N   UNL     1       2.892   5.727  19.160  0.00  0.00    +0.000 N 
ATOM      8  C   UNL     1       2.158   6.759  19.689  0.00  0.00    +0.000 A 
ATOM      9  C   UNL     1       2.359   7.833  18.850  0.00  0.00    +0.000 A 
ATOM     10  N   UNL     1       3.189   7.474  17.815  0.00  0.00    +0.000 NA
ATOM     11  C   UNL     1       3.506   6.208  18.009  0.00  0.00    +0.000 A 
ATOM     12  C   UNL     1       4.324   5.288  17.285  0.00  0.00    +0.000 A 
ATOM     13  C   UNL     1       5.054   5.701  16.038  0.00  0.00    +0.000 A 
ATOM     14  O   UNL     1       5.047   6.862  15.642  0.00  0.00    +0.000 OA
ATOM     15  H   UNL     1       5.386   2.170  17.427  0.00  0.00    +0.000 HD
ENDROOT
BRANCH   9  16
ATOM     16  C   UNL     1       1.806   9.222  18.946  0.00  0.00    +0.000 C 
ATOM     17  C   UNL     1       1.056   9.617  17.673  0.00  0.00    +0.000 C 
ATOM     18  C   UNL     1       0.901   9.380  20.169  0.00  0.00    +0.000 C 
ENDBRANCH   9  16
BRANCH   1  19
ATOM     19  C   UNL     1       6.632   4.903  14.101  0.00  0.00    +0.000 C 
ATOM     20  O   UNL     1       7.695   5.509  14.089  0.00  0.00    +0.000 OA
BRANCH  19  21
ATOM     21  O   UNL     1       5.990   4.417  13.015  0.00  0.00    +0.000 OA
BRANCH  21  23
ATOM     22  C   UNL     1       6.274   2.410  11.738  0.00  0.00    +0.000 C 
ATOM     23  C   UNL     1       6.815   3.801  12.021  0.00  0.00    +0.000 C 
ENDBRANCH  21  23
ENDBRANCH  19  21
ENDBRANCH   1  19
TORSDOF 4
ENDMDL
MODEL 7
REMARK VINA RESULT:      -7.2      3.153      7.078
REMARK  Name = 
REMARK  7 active torsions:
REMARK  status: ('A' for Active; 'I' for Inactive)
REMARK    1  A    between atoms: C_1  and  C_2
REMARK    2  A    between atoms: C_2  and  O_3
REMARK    3  A    between atoms: O_3  and  C_4
REMARK    4  A    between atoms: C_4  and  C_6
REMARK    5  A    between atoms: C_14  and  C_15
REMARK    6  A    between atoms: C_15  and  C_16
REMARK    7  A    between atoms: C_15  and  C_17
REMARK                            x       y       z     vdW  Elec       q    Type
REMARK                         _______ _______ _______ _____ _____    ______ ____
ROOT
ATOM      1  C   UNL     1       4.757   5.003  16.730  0.00  0.00    +0.000 A 
ATOM      2  C   UNL     1       4.769   3.763  17.245  0.00  0.00    +0.000 A 
ATOM      3  N   UNL     1       4.098   3.414  18.386  0.00  0.00    +0.000 N 
ATOM      4  C   UNL     1       3.347   4.325  19.096  0.00  0.00    +0.000 A 
ATOM      5  C   UNL     1       2.654   3.860  20.295  0.00  0.00    +0.000 A 
ATOM      6  C   UNL     1       1.911   4.724  21.007  0.00  0.00    +0.000 A 
ATOM      7  N   UNL     1       1.822   6.047  20.590  0.00  0.00    +0.000 N 
ATOM      8  C   UNL     1       1.127   7.086  21.156  0.00  0.00    +0.000 A 
ATOM      9  C   UNL     1       1.379   8.185  20.363  0.00  0.00    +0.000 A 
ATOM     10  N   UNL     1       2.201   7.833  19.319  0.00  0.00    +0.000 NA
ATOM     11  C   UNL     1       2.463   6.548  19.464  0.00  0.00    +0.000 A 
ATOM     12  C   UNL     1       3.248   5.624  18.708  0.00  0.00    +0.000 A 
ATOM     13  C   UNL     1       4.003   6.055  17.482  0.00  0.00    +0.000 A 
ATOM     14  O   UNL     1       4.048   7.231  17.135  0.00  0.00    +0.000 OA
ATOM     15  H   UNL     1       4.177   2.461  18.728  0.00  0.00    +0.000 HD
ENDROOT
BRANCH   9  16
ATOM     16  C   UNL     1       0.884   9.590  20.512  0.00  0.00    +0.000 C 
ATOM     17  C   UNL     1       0.408  10.163  19.176  0.00  0.00    +0.000 C 
ATOM     18  C   UNL     1      -0.228   9.683  21.558  0.00  0.00    +0.000 C 
ENDBRANCH   9  16
BRANCH   1  19
ATOM     19  C   UNL     1       5.562   5.271  15.524  0.00  0.00    +0.000 C 
ATOM     20  O   UNL     1       5.439   4.655  14.474  0.00  0.00    +0.000 OA
BRANCH  19  21
ATOM     21  O   UNL     1       6.469   6.244  15.765  0.00  0.00    +0.000 OA
BRANCH  21  23
ATOM     22  C   UNL     1       7.612   7.375  17.540  0.00  0.00    +0.000 C 
ATOM     23  C   UNL     1       7.334   6.032  16.885  0.00  0.00    +0.000 C 
ENDBRANCH  21  23
ENDBRANCH  19  21
ENDBRANCH   1  19
TORSDOF 4
ENDMDL
MODEL 8
REMARK VINA RESULT:      -7.0      3.426      4.437
REMARK  Name = 
REMARK  7 active torsions:
REMARK  status: ('A' for Active; 'I' for Inactive)
REMARK    1  A    between atoms: C_1  and  C_2
REMARK    2  A    between atoms: C_2  and  O_3
REMARK    3  A    between atoms: O_3  and  C_4
REMARK    4  A    between atoms: C_4  and  C_6
REMARK    5  A    between atoms: C_14  and  C_15
REMARK    6  A    between atoms: C_15  and  C_16
REMARK    7  A    between atoms: C_15  and  C_17
REMARK                            x       y       z     vdW  Elec       q    Type
REMARK                         _______ _______ _______ _____ _____    ______ ____
ROOT
ATOM      1  C   UNL     1       1.784   7.824  19.904  0.00  0.00    +0.000 A 
ATOM      2  C   UNL     1       1.486   6.956  20.883  0.00  0.00    +0.000 A 
ATOM      3  N   UNL     1       1.923   5.658  20.898  0.00  0.00    +0.000 N 
ATOM      4  C   UNL     1       2.716   5.145  19.896  0.00  0.00    +0.000 A 
ATOM      5  C   UNL     1       3.147   3.753  20.004  0.00  0.00    +0.000 A 
ATOM      6  C   UNL     1       3.923   3.225  19.044  0.00  0.00    +0.000 A 
ATOM      7  N   UNL     1       4.299   4.014  17.962  0.00  0.00    +0.000 N 
ATOM      8  C   UNL     1       5.079   3.686  16.882  0.00  0.00    +0.000 A 
ATOM      9  C   UNL     1       5.134   4.818  16.099  0.00  0.00    +0.000 A 
ATOM     10  N   UNL     1       4.415   5.832  16.685  0.00  0.00    +0.000 NA
ATOM     11  C   UNL     1       3.915   5.340  17.803  0.00  0.00    +0.000 A 
ATOM     12  C   UNL     1       3.093   5.898  18.829  0.00  0.00    +0.000 A 
ATOM     13  C   UNL     1       2.599   7.316  18.755  0.00  0.00    +0.000 A 
ATOM     14  O   UNL     1       2.808   8.019  17.772  0.00  0.00    +0.000 OA
ATOM     15  H   UNL     1       1.633   5.053  21.662  0.00  0.00    +0.000 HD
ENDROOT
BRANCH   9  16
ATOM     16  C   UNL     1       5.841   5.031  14.796  0.00  0.00    +0.000 C 
ATOM     17  C   UNL     1       7.357   5.102  14.984  0.00  0.00    +0.000 C 
ATOM     18  C   UNL     1       5.480   3.945  13.780  0.00  0.00    +0.000 C 
ENDBRANCH   9  16
BRANCH   1  19
ATOM     19  C   UNL     1       1.212   9.181  19.969  0.00  0.00    +0.000 C 
ATOM     20  O   UNL     1       0.825   9.804  18.990  0.00  0.00    +0.000 OA
BRANCH  19  21
ATOM     21  O   UNL     1       1.225   9.641  21.241  0.00  0.00    +0.000 OA
BRANCH  21  23
ATOM     22  C   UNL     1      -0.273   9.692  23.109  0.00  0.00    +0.000 C 
ATOM     23  C   UNL     1       0.004  10.220  21.711  0.00  0.00    +0.000 C 
ENDBRANCH  21  23
ENDBRANCH  19  21
ENDBRANCH   1  19
TORSDOF 4
ENDMDL
MODEL 9
REMARK VINA RESULT:      -7.0      4.032      5.406
REMARK  Name = 
REMARK  7 active torsions:
REMARK  status: ('A' for Active; 'I' for Inactive)
REMARK    1  A    between atoms: C_1  and  C_2
REMARK    2  A    between atoms: C_2  and  O_3
REMARK    3  A    between atoms: O_3  and  C_4
REMARK    4  A    between atoms: C_4  and  C_6
REMARK    5  A    between atoms: C_14  and  C_15
REMARK    6  A    between atoms: C_15  and  C_16
REMARK    7  A    between atoms: C_15  and  C_17
REMARK                            x       y       z     vdW  Elec       q    Type
REMARK                         _______ _______ _______ _____ _____    ______ ____
ROOT
ATOM      1  C   UNL     1       1.472   8.917  19.460  0.00  0.00    +0.000 A 
ATOM      2  C   UNL     1       0.970   8.414  20.600  0.00  0.00    +0.000 A 
ATOM      3  N   UNL     1       1.241   7.149  21.049  0.00  0.00    +0.000 N 
ATOM      4  C   UNL     1       2.064   6.291  20.355  0.00  0.00    +0.000 A 
ATOM      5  C   UNL     1       2.308   4.965  20.918  0.00  0.00    +0.000 A 
ATOM      6  C   UNL     1       3.109   4.106  20.266  0.00  0.00    +0.000 A 
ATOM      7  N   UNL     1       3.688   4.496  19.064  0.00  0.00    +0.000 N 
ATOM      8  C   UNL     1       4.529   3.790  18.241  0.00  0.00    +0.000 A 
ATOM      9  C   UNL     1       4.803   4.623  17.178  0.00  0.00    +0.000 A 
ATOM     10  N   UNL     1       4.157   5.825  17.343  0.00  0.00    +0.000 NA
ATOM     11  C   UNL     1       3.488   5.740  18.477  0.00  0.00    +0.000 A 
ATOM     12  C   UNL     1       2.639   6.651  19.177  0.00  0.00    +0.000 A 
ATOM     13  C   UNL     1       2.333   8.016  18.629  0.00  0.00    +0.000 A 
ATOM     14  O   UNL     1       2.727   8.369  17.522  0.00  0.00    +0.000 OA
ATOM     15  H   UNL     1       0.801   6.831  21.908  0.00  0.00    +0.000 HD
ENDROOT
BRANCH   9  16
ATOM     16  C   UNL     1       5.662   4.370  15.978  0.00  0.00    +0.000 C 
ATOM     17  C   UNL     1       5.359   5.360  14.851  0.00  0.00    +0.000 C 
ATOM     18  C   UNL     1       7.149   4.409  16.336  0.00  0.00    +0.000 C 
ENDBRANCH   9  16
BRANCH   1  19
ATOM     19  C   UNL     1       1.067  10.274  19.052  0.00  0.00    +0.000 C 
ATOM     20  O   UNL     1       1.836  11.102  18.583  0.00  0.00    +0.000 OA
BRANCH  19  21
ATOM     21  O   UNL     1      -0.244  10.478  19.315  0.00  0.00    +0.000 OA
BRANCH  21  23
ATOM     22  C   UNL     1      -2.063  10.129  17.796  0.00  0.00    +0.000 C 
ATOM     23  C   UNL     1      -1.002  11.105  18.277  0.00  0.00    +0.000 C 
ENDBRANCH  21  23
ENDBRANCH  19  21
ENDBRANCH   1  19
TORSDOF 4
ENDMDL
