MODEL 1
REMARK VINA RESULT:      -7.7      0.000      0.000
REMARK  Name = 
REMARK  6 active torsions:
REMARK  status: ('A' for Active; 'I' for Inactive)
REMARK    1  A    between atoms: C_2  and  C_3
REMARK    2  A    between atoms: C_2  and  C_23
REMARK    3  A    between atoms: C_3  and  S_4
REMARK    4  A    between atoms: S_4  and  C_5
REMARK    5  A    between atoms: C_8  and  C_9
REMARK    6  A    between atoms: N_16  and  C_17
REMARK                            x       y       z     vdW  Elec       q    Type
REMARK                         _______ _______ _______ _____ _____    ______ ____
ROOT
ATOM      1  C   UNL     1       2.628   6.684  18.922  0.00  0.00    +0.000 A 
ATOM      2  N   UNL     1       2.946   7.846  18.410  0.00  0.00    +0.000 NA
ATOM      3  N   UNL     1       3.951   7.635  17.504  0.00  0.00    +0.000 NA
ATOM      4  C   UNL     1       4.264   6.346  17.472  0.00  0.00    +0.000 A 
ATOM      5  N   UNL     1       3.413   5.679  18.373  0.00  0.00    +0.000 N 
ENDROOT
BRANCH   4   6
ATOM      6  C   UNL     1       5.263   5.757  16.541  0.00  0.00    +0.000 A 
ATOM      7  C   UNL     1       4.918   5.486  15.200  0.00  0.00    +0.000 A 
ATOM      8  C   UNL     1       5.792   4.839  14.320  0.00  0.00    +0.000 A 
ATOM      9  C   UNL     1       7.084   4.540  14.724  0.00  0.00    +0.000 A 
ATOM     10  C   UNL     1       7.491   4.878  16.012  0.00  0.00    +0.000 A 
ATOM     11  C   UNL     1       6.589   5.462  16.921  0.00  0.00    +0.000 A 
ATOM     12 BR   UNL     1       7.283   5.773  18.668  0.00  0.00    +0.000 Br
ENDBRANCH   4   6
BRANCH   5  13
ATOM     13  C   UNL     1       3.323   4.279  18.623  0.00  0.00    +0.000 A 
ATOM     14  C   UNL     1       4.159   3.666  19.565  0.00  0.00    +0.000 A 
ATOM     15  C   UNL     1       4.200   2.273  19.654  0.00  0.00    +0.000 A 
ATOM     16  C   UNL     1       3.375   1.493  18.845  0.00  0.00    +0.000 A 
ATOM     17  C   UNL     1       2.492   2.100  17.956  0.00  0.00    +0.000 A 
ATOM     18  C   UNL     1       2.471   3.488  17.836  0.00  0.00    +0.000 A 
ENDBRANCH   5  13
BRANCH   1  19
ATOM     19  S   UNL     1       1.502   6.441  20.219  0.00  0.00    +0.000 S 
BRANCH  19  20
ATOM     20  C   UNL     1       1.560   8.011  21.120  0.00  0.00    +0.000 C 
BRANCH  20  22
ATOM     21  O   UNL     1      -0.754   8.084  21.881  0.00  0.00    +0.000 OA
ATOM     22  C   UNL     1       0.160   8.608  21.245  0.00  0.00    +0.000 C 
BRANCH  22  23
ATOM     23  C   UNL     1      -0.134   9.896  20.547  0.00  0.00    +0.000 A 
ATOM     24  C   UNL     1      -0.569  10.992  21.317  0.00  0.00    +0.000 A 
ATOM     25  C   UNL     1      -0.855  12.218  20.714  0.00  0.00    +0.000 A 
ATOM     26  C   UNL     1      -0.711  12.348  19.336  0.00  0.00    +0.000 A 
ATOM     27  F   UNL     1      -0.989  13.520  18.750  0.00  0.00    +0.000 F 
ATOM     28  C   UNL     1      -0.287  11.278  18.559  0.00  0.00    +0.000 A 
ATOM     29  C   UNL     1       0.003  10.045  19.158  0.00  0.00    +0.000 A 
ENDBRANCH  22  23
ENDBRANCH  20  22
ENDBRANCH  19  20
ENDBRANCH   1  19
TORSDOF 6
ENDMDL
MODEL 2
REMARK VINA RESULT:      -7.6      3.684      8.074
REMARK  Name = 
REMARK  6 active torsions:
REMARK  status: ('A' for Active; 'I' for Inactive)
REMARK    1  A    between atoms: C_2  and  C_3
REMARK    2  A    between atoms: C_2  and  C_23
REMARK    3  A    between atoms: C_3  and  S_4
REMARK    4  A    between atoms: S_4  and  C_5
REMARK    5  A    between atoms: C_8  and  C_9
REMARK    6  A    between atoms: N_16  and  C_17
REMARK                            x       y       z     vdW  Elec       q    Type
REMARK                         _______ _______ _______ _____ _____    ______ ____
ROOT
ATOM      1  C   UNL     1       2.170   7.860  18.905  0.00  0.00    +0.000 A 
ATOM      2  N   UNL     1       2.517   8.203  17.689  0.00  0.00    +0.000 NA
ATOM      3  N   UNL     1       2.072   9.480  17.480  0.00  0.00    +0.000 NA
ATOM      4  C   UNL     1       1.436   9.918  18.558  0.00  0.00    +0.000 A 
ATOM      5  N   UNL     1       1.486   8.896  19.525  0.00  0.00    +0.000 N 
ENDROOT
BRANCH   4   6
ATOM      6  C   UNL     1       0.891  11.294  18.701  0.00  0.00    +0.000 A 
ATOM      7  C   UNL     1       1.742  12.369  19.034  0.00  0.00    +0.000 A 
ATOM      8  C   UNL     1       1.257  13.658  19.278  0.00  0.00    +0.000 A 
ATOM      9  C   UNL     1      -0.087  13.938  19.089  0.00  0.00    +0.000 A 
ATOM     10  C   UNL     1      -0.943  12.923  18.669  0.00  0.00    +0.000 A 
ATOM     11  C   UNL     1      -0.469  11.610  18.494  0.00  0.00    +0.000 A 
ATOM     12 BR   UNL     1      -1.790  10.326  18.007  0.00  0.00    +0.000 Br
ENDBRANCH   4   6
BRANCH   5  13
ATOM     13  C   UNL     1       1.006   8.933  20.867  0.00  0.00    +0.000 A 
ATOM     14  C   UNL     1      -0.363   8.817  21.140  0.00  0.00    +0.000 A 
ATOM     15  C   UNL     1      -0.835   9.056  22.432  0.00  0.00    +0.000 A 
ATOM     16  C   UNL     1       0.056   9.357  23.461  0.00  0.00    +0.000 A 
ATOM     17  C   UNL     1       1.424   9.405  23.209  0.00  0.00    +0.000 A 
ATOM     18  C   UNL     1       1.901   9.203  21.915  0.00  0.00    +0.000 A 
ENDBRANCH   5  13
BRANCH   1  19
ATOM     19  S   UNL     1       2.383   6.283  19.594  0.00  0.00    +0.000 S 
BRANCH  19  20
ATOM     20  C   UNL     1       2.596   5.219  18.144  0.00  0.00    +0.000 C 
BRANCH  20  22
ATOM     21  O   UNL     1       4.066   3.279  18.256  0.00  0.00    +0.000 OA
ATOM     22  C   UNL     1       3.943   4.502  18.198  0.00  0.00    +0.000 C 
BRANCH  22  23
ATOM     23  C   UNL     1       5.192   5.324  18.198  0.00  0.00    +0.000 A 
ATOM     24  C   UNL     1       6.154   5.080  19.196  0.00  0.00    +0.000 A 
ATOM     25  C   UNL     1       7.338   5.818  19.240  0.00  0.00    +0.000 A 
ATOM     26  C   UNL     1       7.559   6.806  18.285  0.00  0.00    +0.000 A 
ATOM     27  F   UNL     1       8.690   7.522  18.325  0.00  0.00    +0.000 F 
ATOM     28  C   UNL     1       6.620   7.065  17.296  0.00  0.00    +0.000 A 
ATOM     29  C   UNL     1       5.430   6.327  17.246  0.00  0.00    +0.000 A 
ENDBRANCH  22  23
ENDBRANCH  20  22
ENDBRANCH  19  20
ENDBRANCH   1  19
TORSDOF 6
ENDMDL
MODEL 3
REMARK VINA RESULT:      -7.5      0.930      1.164
REMARK  Name = 
REMARK  6 active torsions:
REMARK  status: ('A' for Active; 'I' for Inactive)
REMARK    1  A    between atoms: C_2  and  C_3
REMARK    2  A    between atoms: C_2  and  C_23
REMARK    3  A    between atoms: C_3  and  S_4
REMARK    4  A    between atoms: S_4  and  C_5
REMARK    5  A    between atoms: C_8  and  C_9
REMARK    6  A    between atoms: N_16  and  C_17
REMARK                            x       y       z     vdW  Elec       q    Type
REMARK                         _______ _______ _______ _____ _____    ______ ____
ROOT
ATOM      1  C   UNL     1       2.683   6.855  18.818  0.00  0.00    +0.000 A 
ATOM      2  N   UNL     1       3.047   7.981  18.258  0.00  0.00    +0.000 NA
ATOM      3  N   UNL     1       4.021   7.689  17.342  0.00  0.00    +0.000 NA
ATOM      4  C   UNL     1       4.271   6.386  17.351  0.00  0.00    +0.000 A 
ATOM      5  N   UNL     1       3.408   5.794  18.292  0.00  0.00    +0.000 N 
ENDROOT
BRANCH   4   6
ATOM      6  C   UNL     1       5.222   5.716  16.424  0.00  0.00    +0.000 A 
ATOM      7  C   UNL     1       4.774   5.204  15.188  0.00  0.00    +0.000 A 
ATOM      8  C   UNL     1       5.610   4.477  14.334  0.00  0.00    +0.000 A 
ATOM      9  C   UNL     1       6.954   4.334  14.640  0.00  0.00    +0.000 A 
ATOM     10  C   UNL     1       7.453   4.906  15.807  0.00  0.00    +0.000 A 
ATOM     11  C   UNL     1       6.598   5.574  16.702  0.00  0.00    +0.000 A 
ATOM     12 BR   UNL     1       7.426   6.216  18.293  0.00  0.00    +0.000 Br
ENDBRANCH   4   6
BRANCH   5  13
ATOM     13  C   UNL     1       3.256   4.409  18.595  0.00  0.00    +0.000 A 
ATOM     14  C   UNL     1       4.159   3.761  19.447  0.00  0.00    +0.000 A 
ATOM     15  C   UNL     1       4.117   2.371  19.573  0.00  0.00    +0.000 A 
ATOM     16  C   UNL     1       3.148   1.633  18.896  0.00  0.00    +0.000 A 
ATOM     17  C   UNL     1       2.204   2.280  18.104  0.00  0.00    +0.000 A 
ATOM     18  C   UNL     1       2.261   3.663  17.944  0.00  0.00    +0.000 A 
ENDBRANCH   5  13
BRANCH   1  19
ATOM     19  S   UNL     1       1.573   6.714  20.144  0.00  0.00    +0.000 S 
BRANCH  19  20
ATOM     20  C   UNL     1       1.524   8.391  20.825  0.00  0.00    +0.000 C 
BRANCH  20  22
ATOM     21  O   UNL     1      -0.704   7.852  21.652  0.00  0.00    +0.000 OA
ATOM     22  C   UNL     1       0.131   8.709  21.364  0.00  0.00    +0.000 C 
BRANCH  22  23
ATOM     23  C   UNL     1      -0.258  10.141  21.542  0.00  0.00    +0.000 A 
ATOM     24  C   UNL     1      -0.815  10.536  22.774  0.00  0.00    +0.000 A 
ATOM     25  C   UNL     1      -1.193  11.862  22.992  0.00  0.00    +0.000 A 
ATOM     26  C   UNL     1      -1.020  12.795  21.975  0.00  0.00    +0.000 A 
ATOM     27  F   UNL     1      -1.386  14.067  22.176  0.00  0.00    +0.000 F 
ATOM     28  C   UNL     1      -0.477  12.424  20.752  0.00  0.00    +0.000 A 
ATOM     29  C   UNL     1      -0.093  11.095  20.526  0.00  0.00    +0.000 A 
ENDBRANCH  22  23
ENDBRANCH  20  22
ENDBRANCH  19  20
ENDBRANCH   1  19
TORSDOF 6
ENDMDL
MODEL 4
REMARK VINA RESULT:      -7.5      3.646      8.350
REMARK  Name = 
REMARK  6 active torsions:
REMARK  status: ('A' for Active; 'I' for Inactive)
REMARK    1  A    between atoms: C_2  and  C_3
REMARK    2  A    between atoms: C_2  and  C_23
REMARK    3  A    between atoms: C_3  and  S_4
REMARK    4  A    between atoms: S_4  and  C_5
REMARK    5  A    between atoms: C_8  and  C_9
REMARK    6  A    between atoms: N_16  and  C_17
REMARK                            x       y       z     vdW  Elec       q    Type
REMARK                         _______ _______ _______ _____ _____    ______ ____
ROOT
ATOM      1  C   UNL     1       2.201   7.653  19.015  0.00  0.00    +0.000 A 
ATOM      2  N   UNL     1       2.571   7.921  17.788  0.00  0.00    +0.000 NA
ATOM      3  N   UNL     1       2.129   9.183  17.492  0.00  0.00    +0.000 NA
ATOM      4  C   UNL     1       1.471   9.684  18.529  0.00  0.00    +0.000 A 
ATOM      5  N   UNL     1       1.503   8.723  19.557  0.00  0.00    +0.000 N 
ENDROOT
BRANCH   4   6
ATOM      6  C   UNL     1       0.922  11.065  18.576  0.00  0.00    +0.000 A 
ATOM      7  C   UNL     1       1.758  12.156  18.891  0.00  0.00    +0.000 A 
ATOM      8  C   UNL     1       1.264  13.456  19.047  0.00  0.00    +0.000 A 
ATOM      9  C   UNL     1      -0.070  13.724  18.783  0.00  0.00    +0.000 A 
ATOM     10  C   UNL     1      -0.907  12.688  18.378  0.00  0.00    +0.000 A 
ATOM     11  C   UNL     1      -0.427  11.368  18.293  0.00  0.00    +0.000 A 
ATOM     12 BR   UNL     1      -1.726  10.059  17.814  0.00  0.00    +0.000 Br
ENDBRANCH   4   6
BRANCH   5  13
ATOM     13  C   UNL     1       0.996   8.841  20.885  0.00  0.00    +0.000 A 
ATOM     14  C   UNL     1      -0.379   8.759  21.134  0.00  0.00    +0.000 A 
ATOM     15  C   UNL     1      -0.874   9.075  22.401  0.00  0.00    +0.000 A 
ATOM     16  C   UNL     1      -0.000   9.421  23.431  0.00  0.00    +0.000 A 
ATOM     17  C   UNL     1       1.373   9.435  23.205  0.00  0.00    +0.000 A 
ATOM     18  C   UNL     1       1.873   9.156  21.935  0.00  0.00    +0.000 A 
ENDBRANCH   5  13
BRANCH   1  19
ATOM     19  S   UNL     1       2.401   6.121  19.803  0.00  0.00    +0.000 S 
BRANCH  19  20
ATOM     20  C   UNL     1       2.604   4.965  18.424  0.00  0.00    +0.000 C 
BRANCH  20  22
ATOM     21  O   UNL     1       4.185   3.452  19.497  0.00  0.00    +0.000 OA
ATOM     22  C   UNL     1       3.919   4.199  18.556  0.00  0.00    +0.000 C 
BRANCH  22  23
ATOM     23  C   UNL     1       4.957   4.371  17.494  0.00  0.00    +0.000 A 
ATOM     24  C   UNL     1       4.562   4.259  16.148  0.00  0.00    +0.000 A 
ATOM     25  C   UNL     1       5.492   4.412  15.118  0.00  0.00    +0.000 A 
ATOM     26  C   UNL     1       6.821   4.673  15.435  0.00  0.00    +0.000 A 
ATOM     27  F   UNL     1       7.720   4.816  14.452  0.00  0.00    +0.000 F 
ATOM     28  C   UNL     1       7.231   4.783  16.757  0.00  0.00    +0.000 A 
ATOM     29  C   UNL     1       6.303   4.632  17.796  0.00  0.00    +0.000 A 
ENDBRANCH  22  23
ENDBRANCH  20  22
ENDBRANCH  19  20
ENDBRANCH   1  19
TORSDOF 6
ENDMDL
MODEL 5
REMARK VINA RESULT:      -7.4      0.725      1.171
REMARK  Name = 
REMARK  6 active torsions:
REMARK  status: ('A' for Active; 'I' for Inactive)
REMARK    1  A    between atoms: C_2  and  C_3
REMARK    2  A    between atoms: C_2  and  C_23
REMARK    3  A    between atoms: C_3  and  S_4
REMARK    4  A    between atoms: S_4  and  C_5
REMARK    5  A    between atoms: C_8  and  C_9
REMARK    6  A    between atoms: N_16  and  C_17
REMARK                            x       y       z     vdW  Elec       q    Type
REMARK                         _______ _______ _______ _____ _____    ______ ____
ROOT
ATOM      1  C   UNL     1       2.706   6.742  18.775  0.00  0.00    +0.000 A 
ATOM      2  N   UNL     1       3.048   7.885  18.235  0.00  0.00    +0.000 NA
ATOM      3  N   UNL     1       4.008   7.624  17.295  0.00  0.00    +0.000 NA
ATOM      4  C   UNL     1       4.271   6.324  17.268  0.00  0.00    +0.000 A 
ATOM      5  N   UNL     1       3.431   5.701  18.210  0.00  0.00    +0.000 N 
ENDROOT
BRANCH   4   6
ATOM      6  C   UNL     1       5.210   5.686  16.308  0.00  0.00    +0.000 A 
ATOM      7  C   UNL     1       4.720   5.009  15.171  0.00  0.00    +0.000 A 
ATOM      8  C   UNL     1       5.560   4.308  14.299  0.00  0.00    +0.000 A 
ATOM      9  C   UNL     1       6.934   4.354  14.477  0.00  0.00    +0.000 A 
ATOM     10  C   UNL     1       7.460   5.090  15.534  0.00  0.00    +0.000 A 
ATOM     11  C   UNL     1       6.612   5.735  16.454  0.00  0.00    +0.000 A 
ATOM     12 BR   UNL     1       7.495   6.619  17.892  0.00  0.00    +0.000 Br
ENDBRANCH   4   6
BRANCH   5  13
ATOM     13  C   UNL     1       3.298   4.308  18.483  0.00  0.00    +0.000 A 
ATOM     14  C   UNL     1       2.263   3.562  17.904  0.00  0.00    +0.000 A 
ATOM     15  C   UNL     1       2.026   2.256  18.335  0.00  0.00    +0.000 A 
ATOM     16  C   UNL     1       2.847   1.674  19.300  0.00  0.00    +0.000 A 
ATOM     17  C   UNL     1       3.919   2.388  19.827  0.00  0.00    +0.000 A 
ATOM     18  C   UNL     1       4.141   3.705  19.429  0.00  0.00    +0.000 A 
ENDBRANCH   5  13
BRANCH   1  19
ATOM     19  S   UNL     1       1.624   6.558  20.118  0.00  0.00    +0.000 S 
BRANCH  19  20
ATOM     20  C   UNL     1       1.671   8.184  20.916  0.00  0.00    +0.000 C 
BRANCH  20  22
ATOM     21  O   UNL     1      -0.667   8.359  21.580  0.00  0.00    +0.000 OA
ATOM     22  C   UNL     1       0.279   8.811  20.935  0.00  0.00    +0.000 C 
BRANCH  22  23
ATOM     23  C   UNL     1       0.035  10.037  20.116  0.00  0.00    +0.000 A 
ATOM     24  C   UNL     1       0.972  11.086  20.185  0.00  0.00    +0.000 A 
ATOM     25  C   UNL     1       0.792  12.252  19.439  0.00  0.00    +0.000 A 
ATOM     26  C   UNL     1      -0.331  12.372  18.626  0.00  0.00    +0.000 A 
ATOM     27  F   UNL     1      -0.512  13.491  17.911  0.00  0.00    +0.000 F 
ATOM     28  C   UNL     1      -1.268  11.351  18.548  0.00  0.00    +0.000 A 
ATOM     29  C   UNL     1      -1.093  10.177  19.293  0.00  0.00    +0.000 A 
ENDBRANCH  22  23
ENDBRANCH  20  22
ENDBRANCH  19  20
ENDBRANCH   1  19
TORSDOF 6
ENDMDL
MODEL 6
REMARK VINA RESULT:      -7.3      3.774      7.343
REMARK  Name = 
REMARK  6 active torsions:
REMARK  status: ('A' for Active; 'I' for Inactive)
REMARK    1  A    between atoms: C_2  and  C_3
REMARK    2  A    between atoms: C_2  and  C_23
REMARK    3  A    between atoms: C_3  and  S_4
REMARK    4  A    between atoms: S_4  and  C_5
REMARK    5  A    between atoms: C_8  and  C_9
REMARK    6  A    between atoms: N_16  and  C_17
REMARK                            x       y       z     vdW  Elec       q    Type
REMARK                         _______ _______ _______ _____ _____    ______ ____
ROOT
ATOM      1  C   UNL     1       3.509   5.928  17.857  0.00  0.00    +0.000 A 
ATOM      2  N   UNL     1       3.823   7.090  17.341  0.00  0.00    +0.000 NA
ATOM      3  N   UNL     1       3.129   8.047  18.030  0.00  0.00    +0.000 NA
ATOM      4  C   UNL     1       2.373   7.474  18.958  0.00  0.00    +0.000 A 
ATOM      5  N   UNL     1       2.600   6.087  18.893  0.00  0.00    +0.000 N 
ENDROOT
BRANCH   4   6
ATOM      6  C   UNL     1       1.547   8.228  19.938  0.00  0.00    +0.000 A 
ATOM      7  C   UNL     1       1.688   7.993  21.322  0.00  0.00    +0.000 A 
ATOM      8  C   UNL     1       0.860   8.604  22.271  0.00  0.00    +0.000 A 
ATOM      9  C   UNL     1      -0.065   9.555  21.871  0.00  0.00    +0.000 A 
ATOM     10  C   UNL     1      -0.168   9.882  20.522  0.00  0.00    +0.000 A 
ATOM     11  C   UNL     1       0.612   9.215  19.560  0.00  0.00    +0.000 A 
ATOM     12 BR   UNL     1       0.279   9.719  17.752  0.00  0.00    +0.000 Br
ENDBRANCH   4   6
BRANCH   5  13
ATOM     13  C   UNL     1       2.071   5.070  19.742  0.00  0.00    +0.000 A 
ATOM     14  C   UNL     1       2.642   4.819  20.996  0.00  0.00    +0.000 A 
ATOM     15  C   UNL     1       2.246   3.696  21.725  0.00  0.00    +0.000 A 
ATOM     16  C   UNL     1       1.249   2.854  21.234  0.00  0.00    +0.000 A 
ATOM     17  C   UNL     1       0.631   3.140  20.020  0.00  0.00    +0.000 A 
ATOM     18  C   UNL     1       1.045   4.238  19.269  0.00  0.00    +0.000 A 
ENDBRANCH   5  13
BRANCH   1  19
ATOM     19  S   UNL     1       4.022   4.391  17.237  0.00  0.00    +0.000 S 
BRANCH  19  20
ATOM     20  C   UNL     1       4.903   4.828  15.716  0.00  0.00    +0.000 C 
BRANCH  20  22
ATOM     21  O   UNL     1       7.135   3.915  15.368  0.00  0.00    +0.000 OA
ATOM     22  C   UNL     1       6.412   4.738  15.928  0.00  0.00    +0.000 C 
BRANCH  22  23
ATOM     23  C   UNL     1       7.059   5.692  16.879  0.00  0.00    +0.000 A 
ATOM     24  C   UNL     1       7.158   7.046  16.507  0.00  0.00    +0.000 A 
ATOM     25  C   UNL     1       7.752   7.978  17.360  0.00  0.00    +0.000 A 
ATOM     26  C   UNL     1       8.253   7.555  18.587  0.00  0.00    +0.000 A 
ATOM     27  F   UNL     1       8.829   8.443  19.408  0.00  0.00    +0.000 F 
ATOM     28  C   UNL     1       8.169   6.223  18.970  0.00  0.00    +0.000 A 
ATOM     29  C   UNL     1       7.573   5.282  18.120  0.00  0.00    +0.000 A 
ENDBRANCH  22  23
ENDBRANCH  20  22
ENDBRANCH  19  20
ENDBRANCH   1  19
TORSDOF 6
ENDMDL
MODEL 7
REMARK VINA RESULT:      -7.3      1.379      1.770
REMARK  Name = 
REMARK  6 active torsions:
REMARK  status: ('A' for Active; 'I' for Inactive)
REMARK    1  A    between atoms: C_2  and  C_3
REMARK    2  A    between atoms: C_2  and  C_23
REMARK    3  A    between atoms: C_3  and  S_4
REMARK    4  A    between atoms: S_4  and  C_5
REMARK    5  A    between atoms: C_8  and  C_9
REMARK    6  A    between atoms: N_16  and  C_17
REMARK                            x       y       z     vdW  Elec       q    Type
REMARK                         _______ _______ _______ _____ _____    ______ ____
ROOT
ATOM      1  C   UNL     1       2.637   6.986  18.765  0.00  0.00    +0.000 A 
ATOM      2  N   UNL     1       3.067   8.084  18.195  0.00  0.00    +0.000 NA
ATOM      3  N   UNL     1       4.068   7.734  17.330  0.00  0.00    +0.000 NA
ATOM      4  C   UNL     1       4.269   6.423  17.381  0.00  0.00    +0.000 A 
ATOM      5  N   UNL     1       3.344   5.887  18.297  0.00  0.00    +0.000 N 
ENDROOT
BRANCH   4   6
ATOM      6  C   UNL     1       5.233   5.696  16.514  0.00  0.00    +0.000 A 
ATOM      7  C   UNL     1       4.886   5.354  15.190  0.00  0.00    +0.000 A 
ATOM      8  C   UNL     1       5.721   4.582  14.374  0.00  0.00    +0.000 A 
ATOM      9  C   UNL     1       6.981   4.220  14.823  0.00  0.00    +0.000 A 
ATOM     10  C   UNL     1       7.396   4.620  16.090  0.00  0.00    +0.000 A 
ATOM     11  C   UNL     1       6.529   5.333  16.938  0.00  0.00    +0.000 A 
ATOM     12 BR   UNL     1       7.221   5.720  18.670  0.00  0.00    +0.000 Br
ENDBRANCH   4   6
BRANCH   5  13
ATOM     13  C   UNL     1       3.127   4.517  18.625  0.00  0.00    +0.000 A 
ATOM     14  C   UNL     1       3.979   3.853  19.518  0.00  0.00    +0.000 A 
ATOM     15  C   UNL     1       3.877   2.469  19.673  0.00  0.00    +0.000 A 
ATOM     16  C   UNL     1       2.899   1.755  18.984  0.00  0.00    +0.000 A 
ATOM     17  C   UNL     1       2.006   2.421  18.150  0.00  0.00    +0.000 A 
ATOM     18  C   UNL     1       2.123   3.796  17.961  0.00  0.00    +0.000 A 
ENDBRANCH   5  13
BRANCH   1  19
ATOM     19  S   UNL     1       1.467   6.920  20.044  0.00  0.00    +0.000 S 
BRANCH  19  20
ATOM     20  C   UNL     1       1.635   8.534  20.847  0.00  0.00    +0.000 C 
BRANCH  20  22
ATOM     21  O   UNL     1       0.249   9.548  19.118  0.00  0.00    +0.000 OA
ATOM     22  C   UNL     1       0.603   9.516  20.296  0.00  0.00    +0.000 C 
BRANCH  22  23
ATOM     23  C   UNL     1      -0.008  10.511  21.229  0.00  0.00    +0.000 A 
ATOM     24  C   UNL     1       0.194  11.880  20.974  0.00  0.00    +0.000 A 
ATOM     25  C   UNL     1      -0.356  12.850  21.814  0.00  0.00    +0.000 A 
ATOM     26  C   UNL     1      -1.106  12.450  22.915  0.00  0.00    +0.000 A 
ATOM     27  F   UNL     1      -1.632  13.375  23.729  0.00  0.00    +0.000 F 
ATOM     28  C   UNL     1      -1.313  11.104  23.187  0.00  0.00    +0.000 A 
ATOM     29  C   UNL     1      -0.765  10.125  22.347  0.00  0.00    +0.000 A 
ENDBRANCH  22  23
ENDBRANCH  20  22
ENDBRANCH  19  20
ENDBRANCH   1  19
TORSDOF 6
ENDMDL
MODEL 8
REMARK VINA RESULT:      -7.3      1.344      1.988
REMARK  Name = 
REMARK  6 active torsions:
REMARK  status: ('A' for Active; 'I' for Inactive)
REMARK    1  A    between atoms: C_2  and  C_3
REMARK    2  A    between atoms: C_2  and  C_23
REMARK    3  A    between atoms: C_3  and  S_4
REMARK    4  A    between atoms: S_4  and  C_5
REMARK    5  A    between atoms: C_8  and  C_9
REMARK    6  A    between atoms: N_16  and  C_17
REMARK                            x       y       z     vdW  Elec       q    Type
REMARK                         _______ _______ _______ _____ _____    ______ ____
ROOT
ATOM      1  C   UNL     1       2.634   7.225  18.746  0.00  0.00    +0.000 A 
ATOM      2  N   UNL     1       3.149   8.264  18.138  0.00  0.00    +0.000 NA
ATOM      3  N   UNL     1       4.125   7.806  17.296  0.00  0.00    +0.000 NA
ATOM      4  C   UNL     1       4.226   6.487  17.399  0.00  0.00    +0.000 A 
ATOM      5  N   UNL     1       3.258   6.058  18.326  0.00  0.00    +0.000 N 
ENDROOT
BRANCH   4   6
ATOM      6  C   UNL     1       5.137   5.656  16.568  0.00  0.00    +0.000 A 
ATOM      7  C   UNL     1       4.784   5.314  15.245  0.00  0.00    +0.000 A 
ATOM      8  C   UNL     1       5.562   4.450  14.464  0.00  0.00    +0.000 A 
ATOM      9  C   UNL     1       6.776   3.989  14.946  0.00  0.00    +0.000 A 
ATOM     10  C   UNL     1       7.202   4.381  16.212  0.00  0.00    +0.000 A 
ATOM     11  C   UNL     1       6.387   5.190  17.026  0.00  0.00    +0.000 A 
ATOM     12 BR   UNL     1       7.080   5.555  18.762  0.00  0.00    +0.000 Br
ENDBRANCH   4   6
BRANCH   5  13
ATOM     13  C   UNL     1       2.936   4.722  18.706  0.00  0.00    +0.000 A 
ATOM     14  C   UNL     1       1.879   4.040  18.091  0.00  0.00    +0.000 A 
ATOM     15  C   UNL     1       1.450   2.816  18.608  0.00  0.00    +0.000 A 
ATOM     16  C   UNL     1       2.103   2.247  19.701  0.00  0.00    +0.000 A 
ATOM     17  C   UNL     1       3.198   2.889  20.271  0.00  0.00    +0.000 A 
ATOM     18  C   UNL     1       3.611   4.127  19.784  0.00  0.00    +0.000 A 
ENDBRANCH   5  13
BRANCH   1  19
ATOM     19  S   UNL     1       1.455   7.296  20.017  0.00  0.00    +0.000 S 
BRANCH  19  20
ATOM     20  C   UNL     1       1.003   9.049  20.068  0.00  0.00    +0.000 C 
BRANCH  20  22
ATOM     21  O   UNL     1       1.272   9.033  22.490  0.00  0.00    +0.000 OA
ATOM     22  C   UNL     1       0.695   9.481  21.500  0.00  0.00    +0.000 C 
BRANCH  22  23
ATOM     23  C   UNL     1      -0.378  10.497  21.726  0.00  0.00    +0.000 A 
ATOM     24  C   UNL     1      -0.825  11.255  20.626  0.00  0.00    +0.000 A 
ATOM     25  C   UNL     1      -1.826  12.215  20.783  0.00  0.00    +0.000 A 
ATOM     26  C   UNL     1      -2.378  12.423  22.044  0.00  0.00    +0.000 A 
ATOM     27  F   UNL     1      -3.335  13.346  22.202  0.00  0.00    +0.000 F 
ATOM     28  C   UNL     1      -1.947  11.689  23.141  0.00  0.00    +0.000 A 
ATOM     29  C   UNL     1      -0.944  10.722  22.990  0.00  0.00    +0.000 A 
ENDBRANCH  22  23
ENDBRANCH  20  22
ENDBRANCH  19  20
ENDBRANCH   1  19
TORSDOF 6
ENDMDL
MODEL 9
REMARK VINA RESULT:      -7.3      1.534      2.058
REMARK  Name = 
REMARK  6 active torsions:
REMARK  status: ('A' for Active; 'I' for Inactive)
REMARK    1  A    between atoms: C_2  and  C_3
REMARK    2  A    between atoms: C_2  and  C_23
REMARK    3  A    between atoms: C_3  and  S_4
REMARK    4  A    between atoms: S_4  and  C_5
REMARK    5  A    between atoms: C_8  and  C_9
REMARK    6  A    between atoms: N_16  and  C_17
REMARK                            x       y       z     vdW  Elec       q    Type
REMARK                         _______ _______ _______ _____ _____    ______ ____
ROOT
ATOM      1  C   UNL     1       2.528   7.171  18.735  0.00  0.00    +0.000 A 
ATOM      2  N   UNL     1       3.031   8.225  18.144  0.00  0.00    +0.000 NA
ATOM      3  N   UNL     1       4.049   7.796  17.335  0.00  0.00    +0.000 NA
ATOM      4  C   UNL     1       4.185   6.481  17.442  0.00  0.00    +0.000 A 
ATOM      5  N   UNL     1       3.200   6.023  18.337  0.00  0.00    +0.000 N 
ENDROOT
BRANCH   4   6
ATOM      6  C   UNL     1       5.148   5.678  16.642  0.00  0.00    +0.000 A 
ATOM      7  C   UNL     1       4.876   5.373  15.292  0.00  0.00    +0.000 A 
ATOM      8  C   UNL     1       5.702   4.535  14.534  0.00  0.00    +0.000 A 
ATOM      9  C   UNL     1       6.888   4.064  15.073  0.00  0.00    +0.000 A 
ATOM     10  C   UNL     1       7.237   4.421  16.372  0.00  0.00    +0.000 A 
ATOM     11  C   UNL     1       6.371   5.202  17.160  0.00  0.00    +0.000 A 
ATOM     12 BR   UNL     1       6.959   5.520  18.944  0.00  0.00    +0.000 Br
ENDBRANCH   4   6
BRANCH   5  13
ATOM     13  C   UNL     1       2.907   4.678  18.707  0.00  0.00    +0.000 A 
ATOM     14  C   UNL     1       2.009   3.910  17.954  0.00  0.00    +0.000 A 
ATOM     15  C   UNL     1       1.580   2.673  18.438  0.00  0.00    +0.000 A 
ATOM     16  C   UNL     1       2.080   2.177  19.641  0.00  0.00    +0.000 A 
ATOM     17  C   UNL     1       3.025   2.906  20.358  0.00  0.00    +0.000 A 
ATOM     18  C   UNL     1       3.432   4.158  19.900  0.00  0.00    +0.000 A 
ENDBRANCH   5  13
BRANCH   1  19
ATOM     19  S   UNL     1       1.306   7.207  19.966  0.00  0.00    +0.000 S 
BRANCH  19  20
ATOM     20  C   UNL     1       1.444   8.881  20.641  0.00  0.00    +0.000 C 
BRANCH  20  22
ATOM     21  O   UNL     1       0.179   9.919  18.836  0.00  0.00    +0.000 OA
ATOM     22  C   UNL     1       0.372   9.789  20.044  0.00  0.00    +0.000 C 
BRANCH  22  23
ATOM     23  C   UNL     1      -0.490  10.584  20.971  0.00  0.00    +0.000 A 
ATOM     24  C   UNL     1      -0.506  10.235  22.335  0.00  0.00    +0.000 A 
ATOM     25  C   UNL     1      -1.293  10.946  23.243  0.00  0.00    +0.000 A 
ATOM     26  C   UNL     1      -2.071  12.005  22.786  0.00  0.00    +0.000 A 
ATOM     27  F   UNL     1      -2.832  12.687  23.651  0.00  0.00    +0.000 F 
ATOM     28  C   UNL     1      -2.073  12.361  21.444  0.00  0.00    +0.000 A 
ATOM     29  C   UNL     1      -1.284  11.653  20.527  0.00  0.00    +0.000 A 
ENDBRANCH  22  23
ENDBRANCH  20  22
ENDBRANCH  19  20
ENDBRANCH   1  19
TORSDOF 6
ENDMDL
