MODEL 1
REMARK VINA RESULT:      -7.1      0.000      0.000
REMARK  Name = 
REMARK  2 active torsions:
REMARK  status: ('A' for Active; 'I' for Inactive)
REMARK    1  A    between atoms: C_5  and  N_6
REMARK    2  A    between atoms: N_7  and  C_8
REMARK                            x       y       z     vdW  Elec       q    Type
REMARK                         _______ _______ _______ _____ _____    ______ ____
ROOT
ATOM      1  C   UNL     1       3.696   4.934  17.881  0.00  0.00    +0.000 C 
ATOM      2  C   UNL     1       3.116   4.323  18.959  0.00  0.00    +0.000 C 
ATOM      3  C   UNL     1       3.262   2.818  19.170  0.00  0.00    +0.000 C 
ATOM      4  C   UNL     1       3.365   2.426  20.641  0.00  0.00    +0.000 C 
ATOM      5  C   UNL     1       2.211   3.032  21.423  0.00  0.00    +0.000 C 
ATOM      6  C   UNL     1       2.245   4.547  21.316  0.00  0.00    +0.000 C 
ATOM      7  N   UNL     1       2.350   5.021  19.920  0.00  0.00    +0.000 N 
ATOM      8  C   UNL     1       2.198   6.485  19.826  0.00  0.00    +0.000 C 
ATOM      9  C   UNL     1       2.266   6.938  18.380  0.00  0.00    +0.000 C 
ATOM     10  C   UNL     1       3.566   6.443  17.756  0.00  0.00    +0.000 C 
ENDROOT
BRANCH   1  12
ATOM     11  N   UNL     1       5.720   4.384  16.766  0.00  0.00    +0.000 NA
ATOM     12  N   UNL     1       4.501   4.241  17.009  0.00  0.00    +0.000 NA
BRANCH  11  17
ATOM     13 CL   UNL     1       8.955   8.873  18.917  0.00  0.00    +0.000 Cl
ATOM     14  C   UNL     1       8.037   7.556  18.302  0.00  0.00    +0.000 A 
ATOM     15  C   UNL     1       7.319   7.703  17.119  0.00  0.00    +0.000 A 
ATOM     16  C   UNL     1       6.572   6.627  16.628  0.00  0.00    +0.000 A 
ATOM     17  C   UNL     1       6.525   5.401  17.313  0.00  0.00    +0.000 A 
ATOM     18  C   UNL     1       7.220   5.291  18.522  0.00  0.00    +0.000 A 
ATOM     19  C   UNL     1       8.001   6.351  18.999  0.00  0.00    +0.000 A 
ENDBRANCH  11  17
ENDBRANCH   1  12
TORSDOF 2
ENDMDL
MODEL 2
REMARK VINA RESULT:      -7.1      2.642      3.130
REMARK  Name = 
REMARK  2 active torsions:
REMARK  status: ('A' for Active; 'I' for Inactive)
REMARK    1  A    between atoms: C_5  and  N_6
REMARK    2  A    between atoms: N_7  and  C_8
REMARK                            x       y       z     vdW  Elec       q    Type
REMARK                         _______ _______ _______ _____ _____    ______ ____
ROOT
ATOM      1  C   UNL     1       4.506   5.123  19.160  0.00  0.00    +0.000 C 
ATOM      2  C   UNL     1       3.466   4.350  19.600  0.00  0.00    +0.000 C 
ATOM      3  C   UNL     1       3.725   2.985  20.231  0.00  0.00    +0.000 C 
ATOM      4  C   UNL     1       2.753   2.652  21.359  0.00  0.00    +0.000 C 
ATOM      5  C   UNL     1       1.321   2.828  20.880  0.00  0.00    +0.000 C 
ATOM      6  C   UNL     1       1.090   4.264  20.442  0.00  0.00    +0.000 C 
ATOM      7  N   UNL     1       2.114   4.746  19.491  0.00  0.00    +0.000 N 
ATOM      8  C   UNL     1       1.771   6.070  18.941  0.00  0.00    +0.000 C 
ATOM      9  C   UNL     1       2.814   6.519  17.937  0.00  0.00    +0.000 C 
ATOM     10  C   UNL     1       4.190   6.498  18.594  0.00  0.00    +0.000 C 
ENDROOT
BRANCH   1  12
ATOM     11  N   UNL     1       6.681   4.423  18.509  0.00  0.00    +0.000 NA
ATOM     12  N   UNL     1       5.814   4.745  19.352  0.00  0.00    +0.000 NA
BRANCH  11  17
ATOM     13 CL   UNL     1       5.955   3.962  12.635  0.00  0.00    +0.000 Cl
ATOM     14  C   UNL     1       6.138   4.098  14.339  0.00  0.00    +0.000 A 
ATOM     15  C   UNL     1       7.217   4.801  14.867  0.00  0.00    +0.000 A 
ATOM     16  C   UNL     1       7.360   4.903  16.255  0.00  0.00    +0.000 A 
ATOM     17  C   UNL     1       6.439   4.299  17.128  0.00  0.00    +0.000 A 
ATOM     18  C   UNL     1       5.388   3.561  16.574  0.00  0.00    +0.000 A 
ATOM     19  C   UNL     1       5.216   3.487  15.186  0.00  0.00    +0.000 A 
ENDBRANCH  11  17
ENDBRANCH   1  12
TORSDOF 2
ENDMDL
MODEL 3
REMARK VINA RESULT:      -7.0      0.355      1.161
REMARK  Name = 
REMARK  2 active torsions:
REMARK  status: ('A' for Active; 'I' for Inactive)
REMARK    1  A    between atoms: C_5  and  N_6
REMARK    2  A    between atoms: N_7  and  C_8
REMARK                            x       y       z     vdW  Elec       q    Type
REMARK                         _______ _______ _______ _____ _____    ______ ____
ROOT
ATOM      1  C   UNL     1       4.020   4.638  17.950  0.00  0.00    +0.000 C 
ATOM      2  C   UNL     1       3.403   4.044  19.017  0.00  0.00    +0.000 C 
ATOM      3  C   UNL     1       3.651   2.572  19.337  0.00  0.00    +0.000 C 
ATOM      4  C   UNL     1       3.660   2.278  20.834  0.00  0.00    +0.000 C 
ATOM      5  C   UNL     1       2.399   2.827  21.480  0.00  0.00    +0.000 C 
ATOM      6  C   UNL     1       2.320   4.331  21.276  0.00  0.00    +0.000 C 
ATOM      7  N   UNL     1       2.504   4.729  19.865  0.00  0.00    +0.000 N 
ATOM      8  C   UNL     1       2.243   6.166  19.663  0.00  0.00    +0.000 C 
ATOM      9  C   UNL     1       2.396   6.538  18.202  0.00  0.00    +0.000 C 
ATOM     10  C   UNL     1       3.780   6.121  17.717  0.00  0.00    +0.000 C 
ENDROOT
BRANCH   1  12
ATOM     11  N   UNL     1       6.144   4.254  16.959  0.00  0.00    +0.000 NA
ATOM     12  N   UNL     1       4.949   3.966  17.192  0.00  0.00    +0.000 NA
BRANCH  11  17
ATOM     13 CL   UNL     1       8.981   9.074  18.951  0.00  0.00    +0.000 Cl
ATOM     14  C   UNL     1       8.140   7.693  18.365  0.00  0.00    +0.000 A 
ATOM     15  C   UNL     1       8.148   6.512  19.100  0.00  0.00    +0.000 A 
ATOM     16  C   UNL     1       7.463   5.393  18.613  0.00  0.00    +0.000 A 
ATOM     17  C   UNL     1       6.775   5.436  17.388  0.00  0.00    +0.000 A 
ATOM     18  C   UNL     1       6.818   6.623  16.647  0.00  0.00    +0.000 A 
ATOM     19  C   UNL     1       7.467   7.758  17.146  0.00  0.00    +0.000 A 
ENDBRANCH  11  17
ENDBRANCH   1  12
TORSDOF 2
ENDMDL
MODEL 4
REMARK VINA RESULT:      -6.9      2.637      3.196
REMARK  Name = 
REMARK  2 active torsions:
REMARK  status: ('A' for Active; 'I' for Inactive)
REMARK    1  A    between atoms: C_5  and  N_6
REMARK    2  A    between atoms: N_7  and  C_8
REMARK                            x       y       z     vdW  Elec       q    Type
REMARK                         _______ _______ _______ _____ _____    ______ ____
ROOT
ATOM      1  C   UNL     1       4.617   5.157  19.103  0.00  0.00    +0.000 C 
ATOM      2  C   UNL     1       3.564   4.394  19.527  0.00  0.00    +0.000 C 
ATOM      3  C   UNL     1       3.803   3.036  20.183  0.00  0.00    +0.000 C 
ATOM      4  C   UNL     1       2.802   2.720  21.290  0.00  0.00    +0.000 C 
ATOM      5  C   UNL     1       1.383   2.894  20.773  0.00  0.00    +0.000 C 
ATOM      6  C   UNL     1       1.168   4.325  20.310  0.00  0.00    +0.000 C 
ATOM      7  N   UNL     1       2.216   4.792  19.379  0.00  0.00    +0.000 N 
ATOM      8  C   UNL     1       1.891   6.109  18.803  0.00  0.00    +0.000 C 
ATOM      9  C   UNL     1       2.960   6.542  17.820  0.00  0.00    +0.000 C 
ATOM     10  C   UNL     1       4.319   6.525  18.512  0.00  0.00    +0.000 C 
ENDROOT
BRANCH   1  12
ATOM     11  N   UNL     1       6.812   4.465  18.515  0.00  0.00    +0.000 NA
ATOM     12  N   UNL     1       5.918   4.778  19.333  0.00  0.00    +0.000 NA
BRANCH  11  17
ATOM     13 CL   UNL     1       5.701   3.888  12.711  0.00  0.00    +0.000 Cl
ATOM     14  C   UNL     1       6.049   4.057  14.387  0.00  0.00    +0.000 A 
ATOM     15  C   UNL     1       5.325   3.325  15.323  0.00  0.00    +0.000 A 
ATOM     16  C   UNL     1       5.613   3.472  16.684  0.00  0.00    +0.000 A 
ATOM     17  C   UNL     1       6.614   4.354  17.126  0.00  0.00    +0.000 A 
ATOM     18  C   UNL     1       7.298   5.111  16.168  0.00  0.00    +0.000 A 
ATOM     19  C   UNL     1       7.043   4.940  14.803  0.00  0.00    +0.000 A 
ENDBRANCH  11  17
ENDBRANCH   1  12
TORSDOF 2
ENDMDL
MODEL 5
REMARK VINA RESULT:      -6.8      2.464      5.464
REMARK  Name = 
REMARK  2 active torsions:
REMARK  status: ('A' for Active; 'I' for Inactive)
REMARK    1  A    between atoms: C_5  and  N_6
REMARK    2  A    between atoms: N_7  and  C_8
REMARK                            x       y       z     vdW  Elec       q    Type
REMARK                         _______ _______ _______ _____ _____    ______ ____
ROOT
ATOM      1  C   UNL     1       5.342   4.436  18.438  0.00  0.00    +0.000 C 
ATOM      2  C   UNL     1       5.889   4.462  17.184  0.00  0.00    +0.000 C 
ATOM      3  C   UNL     1       5.325   3.583  16.072  0.00  0.00    +0.000 C 
ATOM      4  C   UNL     1       5.373   4.247  14.699  0.00  0.00    +0.000 C 
ATOM      5  C   UNL     1       6.780   4.747  14.413  0.00  0.00    +0.000 C 
ATOM      6  C   UNL     1       7.199   5.761  15.464  0.00  0.00    +0.000 C 
ATOM      7  N   UNL     1       6.995   5.274  16.845  0.00  0.00    +0.000 N 
ATOM      8  C   UNL     1       7.573   6.194  17.841  0.00  0.00    +0.000 C 
ATOM      9  C   UNL     1       7.389   5.649  19.243  0.00  0.00    +0.000 C 
ATOM     10  C   UNL     1       5.909   5.377  19.488  0.00  0.00    +0.000 C 
ENDROOT
BRANCH   1  12
ATOM     11  N   UNL     1       3.041   4.076  18.903  0.00  0.00    +0.000 NA
ATOM     12  N   UNL     1       4.218   3.695  18.716  0.00  0.00    +0.000 NA
BRANCH  11  17
ATOM     13 CL   UNL     1       1.393   9.759  19.396  0.00  0.00    +0.000 Cl
ATOM     14  C   UNL     1       1.859   8.112  19.229  0.00  0.00    +0.000 A 
ATOM     15  C   UNL     1       1.819   7.264  20.332  0.00  0.00    +0.000 A 
ATOM     16  C   UNL     1       2.203   5.927  20.187  0.00  0.00    +0.000 A 
ATOM     17  C   UNL     1       2.640   5.424  18.949  0.00  0.00    +0.000 A 
ATOM     18  C   UNL     1       2.712   6.307  17.865  0.00  0.00    +0.000 A 
ATOM     19  C   UNL     1       2.292   7.636  17.993  0.00  0.00    +0.000 A 
ENDBRANCH  11  17
ENDBRANCH   1  12
TORSDOF 2
ENDMDL
MODEL 6
REMARK VINA RESULT:      -6.8      2.481      5.370
REMARK  Name = 
REMARK  2 active torsions:
REMARK  status: ('A' for Active; 'I' for Inactive)
REMARK    1  A    between atoms: C_5  and  N_6
REMARK    2  A    between atoms: N_7  and  C_8
REMARK                            x       y       z     vdW  Elec       q    Type
REMARK                         _______ _______ _______ _____ _____    ______ ____
ROOT
ATOM      1  C   UNL     1       5.288   4.450  18.435  0.00  0.00    +0.000 C 
ATOM      2  C   UNL     1       5.851   4.477  17.188  0.00  0.00    +0.000 C 
ATOM      3  C   UNL     1       5.281   3.622  16.059  0.00  0.00    +0.000 C 
ATOM      4  C   UNL     1       5.362   4.299  14.694  0.00  0.00    +0.000 C 
ATOM      5  C   UNL     1       6.783   4.770  14.431  0.00  0.00    +0.000 C 
ATOM      6  C   UNL     1       7.210   5.764  15.498  0.00  0.00    +0.000 C 
ATOM      7  N   UNL     1       6.978   5.268  16.870  0.00  0.00    +0.000 N 
ATOM      8  C   UNL     1       7.564   6.165  17.883  0.00  0.00    +0.000 C 
ATOM      9  C   UNL     1       7.350   5.610  19.277  0.00  0.00    +0.000 C 
ATOM     10  C   UNL     1       5.861   5.368  19.502  0.00  0.00    +0.000 C 
ENDROOT
BRANCH   1  12
ATOM     11  N   UNL     1       2.982   4.139  18.915  0.00  0.00    +0.000 NA
ATOM     12  N   UNL     1       4.144   3.732  18.691  0.00  0.00    +0.000 NA
BRANCH  11  17
ATOM     13 CL   UNL     1       1.422   9.864  19.129  0.00  0.00    +0.000 Cl
ATOM     14  C   UNL     1       1.885   8.208  19.091  0.00  0.00    +0.000 A 
ATOM     15  C   UNL     1       2.288   7.628  17.892  0.00  0.00    +0.000 A 
ATOM     16  C   UNL     1       2.660   6.279  17.871  0.00  0.00    +0.000 A 
ATOM     17  C   UNL     1       2.625   5.495  19.036  0.00  0.00    +0.000 A 
ATOM     18  C   UNL     1       2.175   6.090  20.220  0.00  0.00    +0.000 A 
ATOM     19  C   UNL     1       1.839   7.448  20.258  0.00  0.00    +0.000 A 
ENDBRANCH  11  17
ENDBRANCH   1  12
TORSDOF 2
ENDMDL
MODEL 7
REMARK VINA RESULT:      -6.5      6.089      8.744
REMARK  Name = 
REMARK  2 active torsions:
REMARK  status: ('A' for Active; 'I' for Inactive)
REMARK    1  A    between atoms: C_5  and  N_6
REMARK    2  A    between atoms: N_7  and  C_8
REMARK                            x       y       z     vdW  Elec       q    Type
REMARK                         _______ _______ _______ _____ _____    ______ ____
ROOT
ATOM      1  C   UNL     1       0.859  10.577  19.813  0.00  0.00    +0.000 C 
ATOM      2  C   UNL     1       1.272   9.372  19.314  0.00  0.00    +0.000 C 
ATOM      3  C   UNL     1       1.693   9.239  17.853  0.00  0.00    +0.000 C 
ATOM      4  C   UNL     1       2.839   8.253  17.646  0.00  0.00    +0.000 C 
ATOM      5  C   UNL     1       2.502   6.921  18.296  0.00  0.00    +0.000 C 
ATOM      6  C   UNL     1       2.280   7.109  19.787  0.00  0.00    +0.000 C 
ATOM      7  N   UNL     1       1.324   8.194  20.093  0.00  0.00    +0.000 N 
ATOM      8  C   UNL     1       0.985   8.237  21.527  0.00  0.00    +0.000 C 
ATOM      9  C   UNL     1      -0.029   9.330  21.804  0.00  0.00    +0.000 C 
ATOM     10  C   UNL     1       0.509  10.661  21.290  0.00  0.00    +0.000 C 
ENDROOT
BRANCH   1  12
ATOM     11  N   UNL     1      -0.037  12.318  18.467  0.00  0.00    +0.000 NA
ATOM     12  N   UNL     1       0.895  11.721  19.051  0.00  0.00    +0.000 NA
BRANCH  11  17
ATOM     13 CL   UNL     1      -5.725  10.620  18.348  0.00  0.00    +0.000 Cl
ATOM     14  C   UNL     1      -4.069  11.086  18.379  0.00  0.00    +0.000 A 
ATOM     15  C   UNL     1      -3.645  12.079  19.256  0.00  0.00    +0.000 A 
ATOM     16  C   UNL     1      -2.297  12.454  19.271  0.00  0.00    +0.000 A 
ATOM     17  C   UNL     1      -1.364  11.854  18.409  0.00  0.00    +0.000 A 
ATOM     18  C   UNL     1      -1.824  10.889  17.506  0.00  0.00    +0.000 A 
ATOM     19  C   UNL     1      -3.162  10.480  17.512  0.00  0.00    +0.000 A 
ENDBRANCH  11  17
ENDBRANCH   1  12
TORSDOF 2
ENDMDL
MODEL 8
REMARK VINA RESULT:      -6.5      6.253      8.881
REMARK  Name = 
REMARK  2 active torsions:
REMARK  status: ('A' for Active; 'I' for Inactive)
REMARK    1  A    between atoms: C_5  and  N_6
REMARK    2  A    between atoms: N_7  and  C_8
REMARK                            x       y       z     vdW  Elec       q    Type
REMARK                         _______ _______ _______ _____ _____    ______ ____
ROOT
ATOM      1  C   UNL     1       0.808  10.851  19.856  0.00  0.00    +0.000 C 
ATOM      2  C   UNL     1       1.187   9.632  19.365  0.00  0.00    +0.000 C 
ATOM      3  C   UNL     1       1.606   9.477  17.905  0.00  0.00    +0.000 C 
ATOM      4  C   UNL     1       2.722   8.456  17.706  0.00  0.00    +0.000 C 
ATOM      5  C   UNL     1       2.345   7.139  18.364  0.00  0.00    +0.000 C 
ATOM      6  C   UNL     1       2.127   7.343  19.854  0.00  0.00    +0.000 C 
ATOM      7  N   UNL     1       1.203   8.458  20.151  0.00  0.00    +0.000 N 
ATOM      8  C   UNL     1       0.864   8.520  21.584  0.00  0.00    +0.000 C 
ATOM      9  C   UNL     1      -0.118   9.644  21.853  0.00  0.00    +0.000 C 
ATOM     10  C   UNL     1       0.459  10.955  21.331  0.00  0.00    +0.000 C 
ENDROOT
BRANCH   1  12
ATOM     11  N   UNL     1      -0.039  12.634  18.534  0.00  0.00    +0.000 NA
ATOM     12  N   UNL     1       0.879  11.989  19.087  0.00  0.00    +0.000 NA
BRANCH  11  17
ATOM     13 CL   UNL     1      -5.667  10.754  18.326  0.00  0.00    +0.000 Cl
ATOM     14  C   UNL     1      -4.045  11.323  18.395  0.00  0.00    +0.000 A 
ATOM     15  C   UNL     1      -3.134  10.941  17.415  0.00  0.00    +0.000 A 
ATOM     16  C   UNL     1      -1.816  11.406  17.482  0.00  0.00    +0.000 A 
ATOM     17  C   UNL     1      -1.391  12.244  18.527  0.00  0.00    +0.000 A 
ATOM     18  C   UNL     1      -2.315  12.578  19.524  0.00  0.00    +0.000 A 
ATOM     19  C   UNL     1      -3.645  12.149  19.443  0.00  0.00    +0.000 A 
ENDBRANCH  11  17
ENDBRANCH   1  12
TORSDOF 2
ENDMDL
MODEL 9
REMARK VINA RESULT:      -6.4      0.915      2.554
REMARK  Name = 
REMARK  2 active torsions:
REMARK  status: ('A' for Active; 'I' for Inactive)
REMARK    1  A    between atoms: C_5  and  N_6
REMARK    2  A    between atoms: N_7  and  C_8
REMARK                            x       y       z     vdW  Elec       q    Type
REMARK                         _______ _______ _______ _____ _____    ______ ____
ROOT
ATOM      1  C   UNL     1       3.800   3.352  18.071  0.00  0.00    +0.000 C 
ATOM      2  C   UNL     1       3.273   4.360  18.830  0.00  0.00    +0.000 C 
ATOM      3  C   UNL     1       2.998   5.731  18.219  0.00  0.00    +0.000 C 
ATOM      4  C   UNL     1       1.751   6.402  18.788  0.00  0.00    +0.000 C 
ATOM      5  C   UNL     1       1.820   6.426  20.306  0.00  0.00    +0.000 C 
ATOM      6  C   UNL     1       1.906   5.009  20.847  0.00  0.00    +0.000 C 
ATOM      7  N   UNL     1       2.969   4.211  20.202  0.00  0.00    +0.000 N 
ATOM      8  C   UNL     1       3.154   2.908  20.865  0.00  0.00    +0.000 C 
ATOM      9  C   UNL     1       4.279   2.129  20.212  0.00  0.00    +0.000 C 
ATOM     10  C   UNL     1       3.997   1.992  18.720  0.00  0.00    +0.000 C 
ENDROOT
BRANCH   1  12
ATOM     11  N   UNL     1       4.882   4.174  16.122  0.00  0.00    +0.000 NA
ATOM     12  N   UNL     1       4.011   3.504  16.721  0.00  0.00    +0.000 NA
BRANCH  11  17
ATOM     13 CL   UNL     1       8.621   7.953  18.766  0.00  0.00    +0.000 Cl
ATOM     14  C   UNL     1       7.558   6.841  17.997  0.00  0.00    +0.000 A 
ATOM     15  C   UNL     1       6.574   7.307  17.131  0.00  0.00    +0.000 A 
ATOM     16  C   UNL     1       5.712   6.395  16.513  0.00  0.00    +0.000 A 
ATOM     17  C   UNL     1       5.814   5.015  16.759  0.00  0.00    +0.000 A 
ATOM     18  C   UNL     1       6.783   4.575  17.667  0.00  0.00    +0.000 A 
ATOM     19  C   UNL     1       7.674   5.478  18.259  0.00  0.00    +0.000 A 
ENDBRANCH  11  17
ENDBRANCH   1  12
TORSDOF 2
ENDMDL
