MODEL 1
REMARK VINA RESULT:      -6.1      0.000      0.000
REMARK  Name = 
REMARK  1 active torsions:
REMARK  status: ('A' for Active; 'I' for Inactive)
REMARK    1  A    between atoms: C_1  and  N_2
REMARK                            x       y       z     vdW  Elec       q    Type
REMARK                         _______ _______ _______ _____ _____    ______ ____
ROOT
ATOM      1  C   UNL     1       7.359   6.956  17.717  0.00  0.00    +0.000 C 
ATOM      2  N   UNL     1       6.345   5.920  17.667  0.00  0.00    +0.000 N 
ATOM      3  C   UNL     1       5.467   5.742  16.591  0.00  0.00    +0.000 A 
ATOM      4  N   UNL     1       5.515   6.584  15.517  0.00  0.00    +0.000 N 
ATOM      5  N   UNL     1       4.559   4.799  16.507  0.00  0.00    +0.000 NA
ATOM      6  C   UNL     1       4.497   3.950  17.604  0.00  0.00    +0.000 A 
ATOM      7  C   UNL     1       3.666   2.835  17.788  0.00  0.00    +0.000 A 
ATOM      8  C   UNL     1       3.990   2.313  19.028  0.00  0.00    +0.000 A 
ATOM      9  N   UNL     1       4.965   3.110  19.588  0.00  0.00    +0.000 N 
ATOM     10  C   UNL     1       5.293   4.095  18.698  0.00  0.00    +0.000 A 
ATOM     11  C   UNL     1       6.275   5.113  18.808  0.00  0.00    +0.000 A 
ATOM     12  O   UNL     1       6.985   5.251  19.805  0.00  0.00    +0.000 OA
ATOM     13  H   UNL     1       6.395   6.995  15.250  0.00  0.00    +0.000 HD
ATOM     14  H   UNL     1       4.998   6.208  14.727  0.00  0.00    +0.000 HD
ATOM     15  H   UNL     1       5.392   2.987  20.498  0.00  0.00    +0.000 HD
ENDROOT
TORSDOF 0
ENDMDL
MODEL 2
REMARK VINA RESULT:      -5.7      1.739      2.741
REMARK  Name = 
REMARK  1 active torsions:
REMARK  status: ('A' for Active; 'I' for Inactive)
REMARK    1  A    between atoms: C_1  and  N_2
REMARK                            x       y       z     vdW  Elec       q    Type
REMARK                         _______ _______ _______ _____ _____    ______ ____
ROOT
ATOM      1  C   UNL     1       7.670   7.470  17.572  0.00  0.00    +0.000 C 
ATOM      2  N   UNL     1       6.825   6.337  17.901  0.00  0.00    +0.000 N 
ATOM      3  C   UNL     1       7.035   5.506  19.007  0.00  0.00    +0.000 A 
ATOM      4  N   UNL     1       8.097   5.719  19.838  0.00  0.00    +0.000 N 
ATOM      5  N   UNL     1       6.273   4.493  19.343  0.00  0.00    +0.000 NA
ATOM      6  C   UNL     1       5.198   4.263  18.494  0.00  0.00    +0.000 A 
ATOM      7  C   UNL     1       4.196   3.289  18.611  0.00  0.00    +0.000 A 
ATOM      8  C   UNL     1       3.349   3.475  17.532  0.00  0.00    +0.000 A 
ATOM      9  N   UNL     1       3.846   4.510  16.770  0.00  0.00    +0.000 N 
ATOM     10  C   UNL     1       4.964   5.009  17.379  0.00  0.00    +0.000 A 
ATOM     11  C   UNL     1       5.782   6.104  16.997  0.00  0.00    +0.000 A 
ATOM     12  O   UNL     1       5.576   6.768  15.982  0.00  0.00    +0.000 OA
ATOM     13  H   UNL     1       8.438   6.658  19.974  0.00  0.00    +0.000 HD
ATOM     14  H   UNL     1       7.998   5.204  20.708  0.00  0.00    +0.000 HD
ATOM     15  H   UNL     1       3.449   4.867  15.909  0.00  0.00    +0.000 HD
ENDROOT
TORSDOF 0
ENDMDL
MODEL 3
REMARK VINA RESULT:      -5.7      2.742      3.887
REMARK  Name = 
REMARK  1 active torsions:
REMARK  status: ('A' for Active; 'I' for Inactive)
REMARK    1  A    between atoms: C_1  and  N_2
REMARK                            x       y       z     vdW  Elec       q    Type
REMARK                         _______ _______ _______ _____ _____    ______ ____
ROOT
ATOM      1  C   UNL     1       4.447   4.191  16.395  0.00  0.00    +0.000 C 
ATOM      2  N   UNL     1       4.061   3.810  17.740  0.00  0.00    +0.000 N 
ATOM      3  C   UNL     1       4.961   3.705  18.808  0.00  0.00    +0.000 A 
ATOM      4  N   UNL     1       6.291   3.941  18.612  0.00  0.00    +0.000 N 
ATOM      5  N   UNL     1       4.636   3.389  20.039  0.00  0.00    +0.000 NA
ATOM      6  C   UNL     1       3.285   3.135  20.239  0.00  0.00    +0.000 A 
ATOM      7  C   UNL     1       2.635   2.815  21.440  0.00  0.00    +0.000 A 
ATOM      8  C   UNL     1       1.295   2.671  21.126  0.00  0.00    +0.000 A 
ATOM      9  N   UNL     1       1.148   2.866  19.769  0.00  0.00    +0.000 N 
ATOM     10  C   UNL     1       2.367   3.179  19.235  0.00  0.00    +0.000 A 
ATOM     11  C   UNL     1       2.702   3.513  17.897  0.00  0.00    +0.000 A 
ATOM     12  O   UNL     1       1.873   3.538  16.988  0.00  0.00    +0.000 OA
ATOM     13  H   UNL     1       6.578   4.607  17.912  0.00  0.00    +0.000 HD
ATOM     14  H   UNL     1       6.781   4.057  19.494  0.00  0.00    +0.000 HD
ATOM     15  H   UNL     1       0.284   2.811  19.245  0.00  0.00    +0.000 HD
ENDROOT
TORSDOF 0
ENDMDL
MODEL 4
REMARK VINA RESULT:      -5.7      1.856      2.056
REMARK  Name = 
REMARK  1 active torsions:
REMARK  status: ('A' for Active; 'I' for Inactive)
REMARK    1  A    between atoms: C_1  and  N_2
REMARK                            x       y       z     vdW  Elec       q    Type
REMARK                         _______ _______ _______ _____ _____    ______ ____
ROOT
ATOM      1  C   UNL     1       7.782   4.423  17.664  0.00  0.00    +0.000 C 
ATOM      2  N   UNL     1       6.336   4.511  17.751  0.00  0.00    +0.000 N 
ATOM      3  C   UNL     1       5.469   4.108  16.728  0.00  0.00    +0.000 A 
ATOM      4  N   UNL     1       5.968   3.622  15.554  0.00  0.00    +0.000 N 
ATOM      5  N   UNL     1       4.160   4.151  16.790  0.00  0.00    +0.000 NA
ATOM      6  C   UNL     1       3.648   4.658  17.978  0.00  0.00    +0.000 A 
ATOM      7  C   UNL     1       2.303   4.790  18.352  0.00  0.00    +0.000 A 
ATOM      8  C   UNL     1       2.309   5.329  19.627  0.00  0.00    +0.000 A 
ATOM      9  N   UNL     1       3.619   5.545  19.996  0.00  0.00    +0.000 N 
ATOM     10  C   UNL     1       4.437   5.105  18.993  0.00  0.00    +0.000 A 
ATOM     11  C   UNL     1       5.854   5.072  18.940  0.00  0.00    +0.000 A 
ATOM     12  O   UNL     1       6.567   5.489  19.853  0.00  0.00    +0.000 OA
ATOM     13  H   UNL     1       6.842   3.119  15.558  0.00  0.00    +0.000 HD
ATOM     14  H   UNL     1       5.248   3.160  15.007  0.00  0.00    +0.000 HD
ATOM     15  H   UNL     1       3.939   5.944  20.870  0.00  0.00    +0.000 HD
ENDROOT
TORSDOF 0
ENDMDL
MODEL 5
REMARK VINA RESULT:      -5.6      2.515      4.349
REMARK  Name = 
REMARK  1 active torsions:
REMARK  status: ('A' for Active; 'I' for Inactive)
REMARK    1  A    between atoms: C_1  and  N_2
REMARK                            x       y       z     vdW  Elec       q    Type
REMARK                         _______ _______ _______ _____ _____    ______ ____
ROOT
ATOM      1  C   UNL     1       2.455   2.247  21.660  0.00  0.00    +0.000 C 
ATOM      2  N   UNL     1       2.833   2.996  20.477  0.00  0.00    +0.000 N 
ATOM      3  C   UNL     1       1.963   3.844  19.780  0.00  0.00    +0.000 A 
ATOM      4  N   UNL     1       0.667   3.985  20.188  0.00  0.00    +0.000 N 
ATOM      5  N   UNL     1       2.285   4.552  18.725  0.00  0.00    +0.000 NA
ATOM      6  C   UNL     1       3.599   4.400  18.299  0.00  0.00    +0.000 A 
ATOM      7  C   UNL     1       4.242   5.049  17.235  0.00  0.00    +0.000 A 
ATOM      8  C   UNL     1       5.542   4.574  17.224  0.00  0.00    +0.000 A 
ATOM      9  N   UNL     1       5.668   3.642  18.232  0.00  0.00    +0.000 N 
ATOM     10  C   UNL     1       4.482   3.561  18.906  0.00  0.00    +0.000 A 
ATOM     11  C   UNL     1       4.148   2.783  20.045  0.00  0.00    +0.000 A 
ATOM     12  O   UNL     1       4.943   2.013  20.584  0.00  0.00    +0.000 OA
ATOM     13  H   UNL     1       0.445   3.901  21.167  0.00  0.00    +0.000 HD
ATOM     14  H   UNL     1       0.226   4.787  19.748  0.00  0.00    +0.000 HD
ATOM     15  H   UNL     1       6.500   3.112  18.460  0.00  0.00    +0.000 HD
ENDROOT
TORSDOF 0
ENDMDL
MODEL 6
REMARK VINA RESULT:      -5.6      2.644      3.553
REMARK  Name = 
REMARK  1 active torsions:
REMARK  status: ('A' for Active; 'I' for Inactive)
REMARK    1  A    between atoms: C_1  and  N_2
REMARK                            x       y       z     vdW  Elec       q    Type
REMARK                         _______ _______ _______ _____ _____    ______ ____
ROOT
ATOM      1  C   UNL     1       4.506   5.775  17.032  0.00  0.00    +0.000 C 
ATOM      2  N   UNL     1       4.116   4.890  18.113  0.00  0.00    +0.000 N 
ATOM      3  C   UNL     1       5.001   4.027  18.771  0.00  0.00    +0.000 A 
ATOM      4  N   UNL     1       6.311   3.964  18.390  0.00  0.00    +0.000 N 
ATOM      5  N   UNL     1       4.682   3.237  19.768  0.00  0.00    +0.000 NA
ATOM      6  C   UNL     1       3.348   3.289  20.149  0.00  0.00    +0.000 A 
ATOM      7  C   UNL     1       2.721   2.597  21.196  0.00  0.00    +0.000 A 
ATOM      8  C   UNL     1       1.395   2.994  21.182  0.00  0.00    +0.000 A 
ATOM      9  N   UNL     1       1.222   3.875  20.135  0.00  0.00    +0.000 N 
ATOM     10  C   UNL     1       2.429   4.074  19.524  0.00  0.00    +0.000 A 
ATOM     11  C   UNL     1       2.755   4.930  18.440  0.00  0.00    +0.000 A 
ATOM     12  O   UNL     1       1.920   5.629  17.866  0.00  0.00    +0.000 OA
ATOM     13  H   UNL     1       6.758   4.786  18.017  0.00  0.00    +0.000 HD
ATOM     14  H   UNL     1       6.877   3.487  19.085  0.00  0.00    +0.000 HD
ATOM     15  H   UNL     1       0.356   4.323  19.865  0.00  0.00    +0.000 HD
ENDROOT
TORSDOF 0
ENDMDL
MODEL 7
REMARK VINA RESULT:      -5.6      1.926      3.741
REMARK  Name = 
REMARK  1 active torsions:
REMARK  status: ('A' for Active; 'I' for Inactive)
REMARK    1  A    between atoms: C_1  and  N_2
REMARK                            x       y       z     vdW  Elec       q    Type
REMARK                         _______ _______ _______ _____ _____    ______ ____
ROOT
ATOM      1  C   UNL     1       2.278   2.519  19.778  0.00  0.00    +0.000 C 
ATOM      2  N   UNL     1       3.170   3.380  19.025  0.00  0.00    +0.000 N 
ATOM      3  C   UNL     1       2.738   4.288  18.051  0.00  0.00    +0.000 A 
ATOM      4  N   UNL     1       1.412   4.384  17.740  0.00  0.00    +0.000 N 
ATOM      5  N   UNL     1       3.519   5.096  17.375  0.00  0.00    +0.000 NA
ATOM      6  C   UNL     1       4.870   4.992  17.678  0.00  0.00    +0.000 A 
ATOM      7  C   UNL     1       5.933   5.743  17.156  0.00  0.00    +0.000 A 
ATOM      8  C   UNL     1       7.077   5.276  17.780  0.00  0.00    +0.000 A 
ATOM      9  N   UNL     1       6.716   4.252  18.629  0.00  0.00    +0.000 N 
ATOM     10  C   UNL     1       5.358   4.101  18.584  0.00  0.00    +0.000 A 
ATOM     11  C   UNL     1       4.529   3.215  19.319  0.00  0.00    +0.000 A 
ATOM     12  O   UNL     1       4.973   2.400  20.128  0.00  0.00    +0.000 OA
ATOM     13  H   UNL     1       0.722   4.205  18.453  0.00  0.00    +0.000 HD
ATOM     14  H   UNL     1       1.216   5.224  17.202  0.00  0.00    +0.000 HD
ATOM     15  H   UNL     1       7.340   3.706  19.210  0.00  0.00    +0.000 HD
ENDROOT
TORSDOF 0
ENDMDL
MODEL 8
REMARK VINA RESULT:      -5.6      2.501      4.214
REMARK  Name = 
REMARK  1 active torsions:
REMARK  status: ('A' for Active; 'I' for Inactive)
REMARK    1  A    between atoms: C_1  and  N_2
REMARK                            x       y       z     vdW  Elec       q    Type
REMARK                         _______ _______ _______ _____ _____    ______ ____
ROOT
ATOM      1  C   UNL     1       2.518   2.692  21.387  0.00  0.00    +0.000 C 
ATOM      2  N   UNL     1       3.184   3.597  20.470  0.00  0.00    +0.000 N 
ATOM      3  C   UNL     1       2.689   4.862  20.128  0.00  0.00    +0.000 A 
ATOM      4  N   UNL     1       1.503   5.300  20.643  0.00  0.00    +0.000 N 
ATOM      5  N   UNL     1       3.283   5.711  19.323  0.00  0.00    +0.000 NA
ATOM      6  C   UNL     1       4.483   5.264  18.786  0.00  0.00    +0.000 A 
ATOM      7  C   UNL     1       5.358   5.953  17.934  0.00  0.00    +0.000 A 
ATOM      8  C   UNL     1       6.416   5.095  17.691  0.00  0.00    +0.000 A 
ATOM      9  N   UNL     1       6.169   3.911  18.352  0.00  0.00    +0.000 N 
ATOM     10  C   UNL     1       4.997   4.030  19.045  0.00  0.00    +0.000 A 
ATOM     11  C   UNL     1       4.364   3.098  19.907  0.00  0.00    +0.000 A 
ATOM     12  O   UNL     1       4.822   1.977  20.130  0.00  0.00    +0.000 OA
ATOM     13  H   UNL     1       1.220   4.995  21.561  0.00  0.00    +0.000 HD
ATOM     14  H   UNL     1       1.383   6.299  20.503  0.00  0.00    +0.000 HD
ATOM     15  H   UNL     1       6.758   3.087  18.351  0.00  0.00    +0.000 HD
ENDROOT
TORSDOF 0
ENDMDL
MODEL 9
REMARK VINA RESULT:      -5.6      2.192      4.478
REMARK  Name = 
REMARK  1 active torsions:
REMARK  status: ('A' for Active; 'I' for Inactive)
REMARK    1  A    between atoms: C_1  and  N_2
REMARK                            x       y       z     vdW  Elec       q    Type
REMARK                         _______ _______ _______ _____ _____    ______ ____
ROOT
ATOM      1  C   UNL     1       2.195   2.567  19.112  0.00  0.00    +0.000 C 
ATOM      2  N   UNL     1       3.323   3.442  18.856  0.00  0.00    +0.000 N 
ATOM      3  C   UNL     1       4.622   3.192  19.315  0.00  0.00    +0.000 A 
ATOM      4  N   UNL     1       4.883   2.087  20.074  0.00  0.00    +0.000 N 
ATOM      5  N   UNL     1       5.665   3.950  19.077  0.00  0.00    +0.000 NA
ATOM      6  C   UNL     1       5.402   5.083  18.317  0.00  0.00    +0.000 A 
ATOM      7  C   UNL     1       6.309   6.054  17.870  0.00  0.00    +0.000 A 
ATOM      8  C   UNL     1       5.568   6.969  17.143  0.00  0.00    +0.000 A 
ATOM      9  N   UNL     1       4.247   6.577  17.179  0.00  0.00    +0.000 N 
ATOM     10  C   UNL     1       4.155   5.404  17.876  0.00  0.00    +0.000 A 
ATOM     11  C   UNL     1       3.015   4.599  18.131  0.00  0.00    +0.000 A 
ATOM     12  O   UNL     1       1.885   4.898  17.743  0.00  0.00    +0.000 OA
ATOM     13  H   UNL     1       4.342   1.248  19.929  0.00  0.00    +0.000 HD
ATOM     14  H   UNL     1       5.881   1.908  20.138  0.00  0.00    +0.000 HD
ATOM     15  H   UNL     1       3.466   7.057  16.748  0.00  0.00    +0.000 HD
ENDROOT
TORSDOF 0
ENDMDL
