MODEL 1
REMARK VINA RESULT:      -7.4      0.000      0.000
REMARK  Name = 
REMARK  7 active torsions:
REMARK  status: ('A' for Active; 'I' for Inactive)
REMARK    1  A    between atoms: C_1  and  C_2
REMARK    2  A    between atoms: C_2  and  C_3
REMARK    3  A    between atoms: C_2  and  C_4
REMARK    4  A    between atoms: C_2  and  C_23
REMARK    5  A    between atoms: C_9  and  C_10
REMARK    6  A    between atoms: C_9  and  C_11
REMARK    7  A    between atoms: N_13  and  C_14
REMARK                            x       y       z     vdW  Elec       q    Type
REMARK                         _______ _______ _______ _____ _____    ______ ____
ROOT
ATOM      1  C   UNL     1       5.513   4.470  19.105  0.00  0.00    +0.000 C 
ATOM      2  O   UNL     1       6.243   4.564  20.101  0.00  0.00    +0.000 OA
ATOM      3  N   UNL     1       5.789   5.272  18.012  0.00  0.00    +0.000 N 
ATOM      4  C   UNL     1       6.929   6.191  17.929  0.00  0.00    +0.000 C 
ATOM      5  C   UNL     1       6.029   7.153  17.173  0.00  0.00    +0.000 C 
ATOM      6  C   UNL     1       5.001   6.000  16.980  0.00  0.00    +0.000 C 
ATOM      7  C   UNL     1       5.183   5.335  15.610  0.00  0.00    +0.000 C 
ENDROOT
BRANCH   6   8
ATOM      8  C   UNL     1       3.518   6.485  17.356  0.00  0.00    +0.000 C 
ATOM      9  O   UNL     1       2.527   5.747  17.336  0.00  0.00    +0.000 OA
ATOM     10  N   UNL     1       3.385   7.816  17.742  0.00  0.00    +0.000 N 
ATOM     11  H   UNL     1       4.205   8.398  17.830  0.00  0.00    +0.000 HD
BRANCH  10  12
ATOM     12  C   UNL     1       2.114   8.369  18.204  0.00  0.00    +0.000 C 
ATOM     13  C   UNL     1       1.902   8.186  19.727  0.00  0.00    +0.000 C 
ATOM     14  C   UNL     1       0.952   9.302  20.036  0.00  0.00    +0.000 A 
ATOM     15  C   UNL     1       0.162   9.471  21.160  0.00  0.00    +0.000 A 
ATOM     16  C   UNL     1      -0.638  10.615  21.243  0.00  0.00    +0.000 A 
ATOM     17  C   UNL     1      -0.626  11.570  20.213  0.00  0.00    +0.000 A 
ATOM     18  C   UNL     1       0.192  11.403  19.095  0.00  0.00    +0.000 A 
ATOM     19  C   UNL     1       0.973  10.262  19.019  0.00  0.00    +0.000 A 
ATOM     20  C   UNL     1       1.950   9.886  17.947  0.00  0.00    +0.000 C 
ENDBRANCH  10  12
ENDBRANCH   6   8
BRANCH   1  22
ATOM     21  C   UNL     1       4.384   2.709  17.557  0.00  0.00    +0.000 C 
ATOM     22  C   UNL     1       4.526   3.264  18.974  0.00  0.00    +0.000 C 
ATOM     23  C   UNL     1       5.138   2.167  19.880  0.00  0.00    +0.000 C 
BRANCH  22  24
ATOM     24  C   UNL     1       3.063   3.605  19.374  0.00  0.00    +0.000 A 
ATOM     25  C   UNL     1       2.780   4.583  20.350  0.00  0.00    +0.000 A 
ATOM     26  C   UNL     1       1.492   4.743  20.872  0.00  0.00    +0.000 A 
ATOM     27  C   UNL     1       0.453   3.937  20.421  0.00  0.00    +0.000 A 
ATOM     28  C   UNL     1       0.699   2.982  19.439  0.00  0.00    +0.000 A 
ATOM     29  C   UNL     1       1.990   2.814  18.923  0.00  0.00    +0.000 A 
ENDBRANCH  22  24
ENDBRANCH   1  22
TORSDOF 4
ENDMDL
MODEL 2
REMARK VINA RESULT:      -7.2      1.130      1.377
REMARK  Name = 
REMARK  7 active torsions:
REMARK  status: ('A' for Active; 'I' for Inactive)
REMARK    1  A    between atoms: C_1  and  C_2
REMARK    2  A    between atoms: C_2  and  C_3
REMARK    3  A    between atoms: C_2  and  C_4
REMARK    4  A    between atoms: C_2  and  C_23
REMARK    5  A    between atoms: C_9  and  C_10
REMARK    6  A    between atoms: C_9  and  C_11
REMARK    7  A    between atoms: N_13  and  C_14
REMARK                            x       y       z     vdW  Elec       q    Type
REMARK                         _______ _______ _______ _____ _____    ______ ____
ROOT
ATOM      1  C   UNL     1       5.155   4.247  18.524  0.00  0.00    +0.000 C 
ATOM      2  O   UNL     1       5.788   3.933  19.542  0.00  0.00    +0.000 OA
ATOM      3  N   UNL     1       5.731   5.148  17.646  0.00  0.00    +0.000 N 
ATOM      4  C   UNL     1       7.072   5.717  17.808  0.00  0.00    +0.000 C 
ATOM      5  C   UNL     1       6.528   7.021  17.252  0.00  0.00    +0.000 C 
ATOM      6  C   UNL     1       5.258   6.257  16.774  0.00  0.00    +0.000 C 
ATOM      7  C   UNL     1       5.389   5.862  15.298  0.00  0.00    +0.000 C 
ENDROOT
BRANCH   6   8
ATOM      8  C   UNL     1       3.924   7.043  17.195  0.00  0.00    +0.000 C 
ATOM      9  O   UNL     1       3.289   7.780  16.432  0.00  0.00    +0.000 OA
ATOM     10  N   UNL     1       3.473   6.840  18.496  0.00  0.00    +0.000 N 
ATOM     11  H   UNL     1       3.949   6.180  19.095  0.00  0.00    +0.000 HD
BRANCH  10  12
ATOM     12  C   UNL     1       2.222   7.412  18.986  0.00  0.00    +0.000 C 
ATOM     13  C   UNL     1       2.071   7.288  20.523  0.00  0.00    +0.000 C 
ATOM     14  C   UNL     1       1.134   8.417  20.827  0.00  0.00    +0.000 A 
ATOM     15  C   UNL     1       0.390   8.629  21.973  0.00  0.00    +0.000 A 
ATOM     16  C   UNL     1      -0.407   9.777  22.044  0.00  0.00    +0.000 A 
ATOM     17  C   UNL     1      -0.435  10.692  20.980  0.00  0.00    +0.000 A 
ATOM     18  C   UNL     1       0.337  10.481  19.837  0.00  0.00    +0.000 A 
ATOM     19  C   UNL     1       1.115   9.337  19.774  0.00  0.00    +0.000 A 
ATOM     20  C   UNL     1       2.049   8.919  18.678  0.00  0.00    +0.000 C 
ENDBRANCH  10  12
ENDBRANCH   6   8
BRANCH   1  22
ATOM     21  C   UNL     1       3.071   4.038  16.981  0.00  0.00    +0.000 C 
ATOM     22  C   UNL     1       3.906   3.410  18.096  0.00  0.00    +0.000 C 
ATOM     23  C   UNL     1       4.497   2.073  17.585  0.00  0.00    +0.000 C 
BRANCH  22  24
ATOM     24  C   UNL     1       2.873   3.195  19.238  0.00  0.00    +0.000 A 
ATOM     25  C   UNL     1       1.591   3.782  19.185  0.00  0.00    +0.000 A 
ATOM     26  C   UNL     1       0.740   3.777  20.295  0.00  0.00    +0.000 A 
ATOM     27  C   UNL     1       1.144   3.175  21.481  0.00  0.00    +0.000 A 
ATOM     28  C   UNL     1       2.393   2.566  21.552  0.00  0.00    +0.000 A 
ATOM     29  C   UNL     1       3.251   2.578  20.445  0.00  0.00    +0.000 A 
ENDBRANCH  22  24
ENDBRANCH   1  22
TORSDOF 4
ENDMDL
MODEL 3
REMARK VINA RESULT:      -7.2      1.431      1.788
REMARK  Name = 
REMARK  7 active torsions:
REMARK  status: ('A' for Active; 'I' for Inactive)
REMARK    1  A    between atoms: C_1  and  C_2
REMARK    2  A    between atoms: C_2  and  C_3
REMARK    3  A    between atoms: C_2  and  C_4
REMARK    4  A    between atoms: C_2  and  C_23
REMARK    5  A    between atoms: C_9  and  C_10
REMARK    6  A    between atoms: C_9  and  C_11
REMARK    7  A    between atoms: N_13  and  C_14
REMARK                            x       y       z     vdW  Elec       q    Type
REMARK                         _______ _______ _______ _____ _____    ______ ____
ROOT
ATOM      1  C   UNL     1       5.218   4.346  18.371  0.00  0.00    +0.000 C 
ATOM      2  O   UNL     1       6.083   3.858  19.110  0.00  0.00    +0.000 OA
ATOM      3  N   UNL     1       5.558   5.440  17.596  0.00  0.00    +0.000 N 
ATOM      4  C   UNL     1       6.900   6.031  17.546  0.00  0.00    +0.000 C 
ATOM      5  C   UNL     1       6.237   7.393  17.436  0.00  0.00    +0.000 C 
ATOM      6  C   UNL     1       4.887   6.683  17.128  0.00  0.00    +0.000 C 
ATOM      7  C   UNL     1       4.644   6.614  15.615  0.00  0.00    +0.000 C 
ENDROOT
BRANCH   6   8
ATOM      8  C   UNL     1       3.701   7.292  18.022  0.00  0.00    +0.000 C 
ATOM      9  O   UNL     1       3.391   6.863  19.139  0.00  0.00    +0.000 OA
ATOM     10  N   UNL     1       3.020   8.381  17.484  0.00  0.00    +0.000 N 
ATOM     11  H   UNL     1       3.322   8.778  16.606  0.00  0.00    +0.000 HD
BRANCH  10  12
ATOM     12  C   UNL     1       1.985   9.096  18.226  0.00  0.00    +0.000 C 
ATOM     13  C   UNL     1       2.184  10.632  18.196  0.00  0.00    +0.000 C 
ATOM     14  C   UNL     1       0.787  11.122  18.427  0.00  0.00    +0.000 A 
ATOM     15  C   UNL     1       0.373  12.386  18.806  0.00  0.00    +0.000 A 
ATOM     16  C   UNL     1      -0.999  12.623  18.939  0.00  0.00    +0.000 A 
ATOM     17  C   UNL     1      -1.927  11.602  18.681  0.00  0.00    +0.000 A 
ATOM     18  C   UNL     1      -1.501  10.336  18.276  0.00  0.00    +0.000 A 
ATOM     19  C   UNL     1      -0.140  10.111  18.156  0.00  0.00    +0.000 A 
ATOM     20  C   UNL     1       0.548   8.859  17.703  0.00  0.00    +0.000 C 
ENDBRANCH  10  12
ENDBRANCH   6   8
BRANCH   1  22
ATOM     21  C   UNL     1       3.017   4.157  16.996  0.00  0.00    +0.000 C 
ATOM     22  C   UNL     1       3.898   3.555  18.089  0.00  0.00    +0.000 C 
ATOM     23  C   UNL     1       4.380   2.157  17.628  0.00  0.00    +0.000 C 
BRANCH  22  24
ATOM     24  C   UNL     1       2.944   3.470  19.313  0.00  0.00    +0.000 A 
ATOM     25  C   UNL     1       3.344   2.843  20.512  0.00  0.00    +0.000 A 
ATOM     26  C   UNL     1       2.429   2.569  21.534  0.00  0.00    +0.000 A 
ATOM     27  C   UNL     1       1.094   2.927  21.388  0.00  0.00    +0.000 A 
ATOM     28  C   UNL     1       0.678   3.571  20.227  0.00  0.00    +0.000 A 
ATOM     29  C   UNL     1       1.590   3.837  19.198  0.00  0.00    +0.000 A 
ENDBRANCH  22  24
ENDBRANCH   1  22
TORSDOF 4
ENDMDL
MODEL 4
REMARK VINA RESULT:      -7.1      2.904      7.932
REMARK  Name = 
REMARK  7 active torsions:
REMARK  status: ('A' for Active; 'I' for Inactive)
REMARK    1  A    between atoms: C_1  and  C_2
REMARK    2  A    between atoms: C_2  and  C_3
REMARK    3  A    between atoms: C_2  and  C_4
REMARK    4  A    between atoms: C_2  and  C_23
REMARK    5  A    between atoms: C_9  and  C_10
REMARK    6  A    between atoms: C_9  and  C_11
REMARK    7  A    between atoms: N_13  and  C_14
REMARK                            x       y       z     vdW  Elec       q    Type
REMARK                         _______ _______ _______ _____ _____    ______ ____
ROOT
ATOM      1  C   UNL     1       0.158  11.934  21.081  0.00  0.00    +0.000 C 
ATOM      2  O   UNL     1       0.321  12.964  21.748  0.00  0.00    +0.000 OA
ATOM      3  N   UNL     1      -0.347  10.814  21.717  0.00  0.00    +0.000 N 
ATOM      4  C   UNL     1      -0.759  10.779  23.124  0.00  0.00    +0.000 C 
ATOM      5  C   UNL     1      -0.208   9.365  23.194  0.00  0.00    +0.000 C 
ATOM      6  C   UNL     1      -0.139   9.342  21.639  0.00  0.00    +0.000 C 
ATOM      7  C   UNL     1      -1.383   8.663  21.052  0.00  0.00    +0.000 C 
ENDROOT
BRANCH   6   8
ATOM      8  C   UNL     1       1.285   8.799  21.136  0.00  0.00    +0.000 C 
ATOM      9  O   UNL     1       2.357   9.054  21.698  0.00  0.00    +0.000 OA
ATOM     10  N   UNL     1       1.269   7.977  20.013  0.00  0.00    +0.000 N 
ATOM     11  H   UNL     1       0.388   7.707  19.600  0.00  0.00    +0.000 HD
BRANCH  10  12
ATOM     12  C   UNL     1       2.476   7.333  19.502  0.00  0.00    +0.000 C 
ATOM     13  C   UNL     1       2.304   5.805  19.317  0.00  0.00    +0.000 C 
ATOM     14  C   UNL     1       3.333   5.510  18.268  0.00  0.00    +0.000 A 
ATOM     15  C   UNL     1       3.864   4.284  17.907  0.00  0.00    +0.000 A 
ATOM     16  C   UNL     1       4.805   4.247  16.873  0.00  0.00    +0.000 A 
ATOM     17  C   UNL     1       5.186   5.427  16.213  0.00  0.00    +0.000 A 
ATOM     18  C   UNL     1       4.627   6.655  16.568  0.00  0.00    +0.000 A 
ATOM     19  C   UNL     1       3.704   6.681  17.600  0.00  0.00    +0.000 A 
ATOM     20  C   UNL     1       2.946   7.862  18.126  0.00  0.00    +0.000 C 
ENDBRANCH  10  12
ENDBRANCH   6   8
BRANCH   1  22
ATOM     21  C   UNL     1       0.167  13.414  18.940  0.00  0.00    +0.000 C 
ATOM     22  C   UNL     1       0.214  12.001  19.520  0.00  0.00    +0.000 C 
ATOM     23  C   UNL     1       1.576  11.358  19.157  0.00  0.00    +0.000 C 
BRANCH  22  24
ATOM     24  C   UNL     1      -0.975  11.286  18.818  0.00  0.00    +0.000 A 
ATOM     25  C   UNL     1      -0.759  10.262  17.872  0.00  0.00    +0.000 A 
ATOM     26  C   UNL     1      -1.800   9.767  17.081  0.00  0.00    +0.000 A 
ATOM     27  C   UNL     1      -3.086  10.276  17.223  0.00  0.00    +0.000 A 
ATOM     28  C   UNL     1      -3.332  11.268  18.167  0.00  0.00    +0.000 A 
ATOM     29  C   UNL     1      -2.289  11.772  18.954  0.00  0.00    +0.000 A 
ENDBRANCH  22  24
ENDBRANCH   1  22
TORSDOF 4
ENDMDL
MODEL 5
REMARK VINA RESULT:      -7.0      1.124      1.236
REMARK  Name = 
REMARK  7 active torsions:
REMARK  status: ('A' for Active; 'I' for Inactive)
REMARK    1  A    between atoms: C_1  and  C_2
REMARK    2  A    between atoms: C_2  and  C_3
REMARK    3  A    between atoms: C_2  and  C_4
REMARK    4  A    between atoms: C_2  and  C_23
REMARK    5  A    between atoms: C_9  and  C_10
REMARK    6  A    between atoms: C_9  and  C_11
REMARK    7  A    between atoms: N_13  and  C_14
REMARK                            x       y       z     vdW  Elec       q    Type
REMARK                         _______ _______ _______ _____ _____    ______ ____
ROOT
ATOM      1  C   UNL     1       5.298   4.158  18.565  0.00  0.00    +0.000 C 
ATOM      2  O   UNL     1       5.907   3.943  19.622  0.00  0.00    +0.000 OA
ATOM      3  N   UNL     1       5.924   4.913  17.589  0.00  0.00    +0.000 N 
ATOM      4  C   UNL     1       7.292   5.431  17.698  0.00  0.00    +0.000 C 
ATOM      5  C   UNL     1       6.818   6.681  16.976  0.00  0.00    +0.000 C 
ATOM      6  C   UNL     1       5.515   5.926  16.579  0.00  0.00    +0.000 C 
ATOM      7  C   UNL     1       5.636   5.344  15.166  0.00  0.00    +0.000 C 
ENDROOT
BRANCH   6   8
ATOM      8  C   UNL     1       4.218   6.823  16.881  0.00  0.00    +0.000 C 
ATOM      9  O   UNL     1       3.700   7.584  16.056  0.00  0.00    +0.000 OA
ATOM     10  N   UNL     1       3.660   6.692  18.150  0.00  0.00    +0.000 N 
ATOM     11  H   UNL     1       4.038   6.016  18.798  0.00  0.00    +0.000 HD
BRANCH  10  12
ATOM     12  C   UNL     1       2.425   7.372  18.531  0.00  0.00    +0.000 C 
ATOM     13  C   UNL     1       2.138   7.278  20.051  0.00  0.00    +0.000 C 
ATOM     14  C   UNL     1       1.277   8.484  20.270  0.00  0.00    +0.000 A 
ATOM     15  C   UNL     1       0.461   8.771  21.350  0.00  0.00    +0.000 A 
ATOM     16  C   UNL     1      -0.241   9.982  21.349  0.00  0.00    +0.000 A 
ATOM     17  C   UNL     1      -0.105  10.883  20.281  0.00  0.00    +0.000 A 
ATOM     18  C   UNL     1       0.738  10.595  19.207  0.00  0.00    +0.000 A 
ATOM     19  C   UNL     1       1.420   9.390  19.214  0.00  0.00    +0.000 A 
ATOM     20  C   UNL     1       2.403   8.884  18.202  0.00  0.00    +0.000 C 
ENDBRANCH  10  12
ENDBRANCH   6   8
BRANCH   1  22
ATOM     21  C   UNL     1       3.220   3.857  17.027  0.00  0.00    +0.000 C 
ATOM     22  C   UNL     1       4.011   3.336  18.226  0.00  0.00    +0.000 C 
ATOM     23  C   UNL     1       4.537   1.917  17.899  0.00  0.00    +0.000 C 
BRANCH  22  24
ATOM     24  C   UNL     1       2.958   3.320  19.370  0.00  0.00    +0.000 A 
ATOM     25  C   UNL     1       3.232   2.703  20.609  0.00  0.00    +0.000 A 
ATOM     26  C   UNL     1       2.226   2.493  21.558  0.00  0.00    +0.000 A 
ATOM     27  C   UNL     1       0.924   2.904  21.296  0.00  0.00    +0.000 A 
ATOM     28  C   UNL     1       0.632   3.540  20.094  0.00  0.00    +0.000 A 
ATOM     29  C   UNL     1       1.636   3.743  19.138  0.00  0.00    +0.000 A 
ENDBRANCH  22  24
ENDBRANCH   1  22
TORSDOF 4
ENDMDL
MODEL 6
REMARK VINA RESULT:      -6.8      4.189      9.733
REMARK  Name = 
REMARK  7 active torsions:
REMARK  status: ('A' for Active; 'I' for Inactive)
REMARK    1  A    between atoms: C_1  and  C_2
REMARK    2  A    between atoms: C_2  and  C_3
REMARK    3  A    between atoms: C_2  and  C_4
REMARK    4  A    between atoms: C_2  and  C_23
REMARK    5  A    between atoms: C_9  and  C_10
REMARK    6  A    between atoms: C_9  and  C_11
REMARK    7  A    between atoms: N_13  and  C_14
REMARK                            x       y       z     vdW  Elec       q    Type
REMARK                         _______ _______ _______ _____ _____    ______ ____
ROOT
ATOM      1  C   UNL     1       0.042  14.166  20.682  0.00  0.00    +0.000 C 
ATOM      2  O   UNL     1       0.196  15.137  21.435  0.00  0.00    +0.000 OA
ATOM      3  N   UNL     1      -0.855  13.181  21.058  0.00  0.00    +0.000 N 
ATOM      4  C   UNL     1      -1.684  13.236  22.266  0.00  0.00    +0.000 C 
ATOM      5  C   UNL     1      -1.484  11.737  22.407  0.00  0.00    +0.000 C 
ATOM      6  C   UNL     1      -0.939  11.699  20.949  0.00  0.00    +0.000 C 
ATOM      7  C   UNL     1      -2.049  11.303  19.966  0.00  0.00    +0.000 C 
ENDROOT
BRANCH   6   8
ATOM      8  C   UNL     1       0.427  10.861  20.869  0.00  0.00    +0.000 C 
ATOM      9  O   UNL     1       1.385  11.033  21.632  0.00  0.00    +0.000 OA
ATOM     10  N   UNL     1       0.492   9.878  19.886  0.00  0.00    +0.000 N 
ATOM     11  H   UNL     1      -0.318   9.688  19.312  0.00  0.00    +0.000 HD
BRANCH  10  12
ATOM     12  C   UNL     1       1.633   8.976  19.760  0.00  0.00    +0.000 C 
ATOM     13  C   UNL     1       1.410   7.627  20.488  0.00  0.00    +0.000 C 
ATOM     14  C   UNL     1       2.333   6.720  19.733  0.00  0.00    +0.000 A 
ATOM     15  C   UNL     1       2.802   5.472  20.102  0.00  0.00    +0.000 A 
ATOM     16  C   UNL     1       3.645   4.791  19.218  0.00  0.00    +0.000 A 
ATOM     17  C   UNL     1       3.992   5.360  17.982  0.00  0.00    +0.000 A 
ATOM     18  C   UNL     1       3.495   6.610  17.608  0.00  0.00    +0.000 A 
ATOM     19  C   UNL     1       2.669   7.279  18.495  0.00  0.00    +0.000 A 
ATOM     20  C   UNL     1       1.988   8.600  18.301  0.00  0.00    +0.000 C 
ENDBRANCH  10  12
ENDBRANCH   6   8
BRANCH   1  22
ATOM     21  C   UNL     1       1.968  13.573  19.036  0.00  0.00    +0.000 C 
ATOM     22  C   UNL     1       0.595  14.218  19.221  0.00  0.00    +0.000 C 
ATOM     23  C   UNL     1      -0.444  13.426  18.389  0.00  0.00    +0.000 C 
BRANCH  22  24
ATOM     24  C   UNL     1       0.802  15.660  18.679  0.00  0.00    +0.000 A 
ATOM     25  C   UNL     1      -0.296  16.484  18.353  0.00  0.00    +0.000 A 
ATOM     26  C   UNL     1      -0.125  17.690  17.666  0.00  0.00    +0.000 A 
ATOM     27  C   UNL     1       1.148  18.109  17.299  0.00  0.00    +0.000 A 
ATOM     28  C   UNL     1       2.251  17.328  17.632  0.00  0.00    +0.000 A 
ATOM     29  C   UNL     1       2.082  16.115  18.311  0.00  0.00    +0.000 A 
ENDBRANCH  22  24
ENDBRANCH   1  22
TORSDOF 4
ENDMDL
MODEL 7
REMARK VINA RESULT:      -6.8      8.067     11.845
REMARK  Name = 
REMARK  7 active torsions:
REMARK  status: ('A' for Active; 'I' for Inactive)
REMARK    1  A    between atoms: C_1  and  C_2
REMARK    2  A    between atoms: C_2  and  C_3
REMARK    3  A    between atoms: C_2  and  C_4
REMARK    4  A    between atoms: C_2  and  C_23
REMARK    5  A    between atoms: C_9  and  C_10
REMARK    6  A    between atoms: C_9  and  C_11
REMARK    7  A    between atoms: N_13  and  C_14
REMARK                            x       y       z     vdW  Elec       q    Type
REMARK                         _______ _______ _______ _____ _____    ______ ____
ROOT
ATOM      1  C   UNL     1      -4.164  15.410  23.556  0.00  0.00    +0.000 C 
ATOM      2  O   UNL     1      -4.057  15.419  24.790  0.00  0.00    +0.000 OA
ATOM      3  N   UNL     1      -5.434  15.469  23.008  0.00  0.00    +0.000 N 
ATOM      4  C   UNL     1      -6.666  15.600  23.792  0.00  0.00    +0.000 C 
ATOM      5  C   UNL     1      -7.339  14.681  22.788  0.00  0.00    +0.000 C 
ATOM      6  C   UNL     1      -6.129  14.884  21.830  0.00  0.00    +0.000 C 
ATOM      7  C   UNL     1      -6.433  15.979  20.799  0.00  0.00    +0.000 C 
ENDROOT
BRANCH   6   8
ATOM      8  C   UNL     1      -5.609  13.478  21.257  0.00  0.00    +0.000 C 
ATOM      9  O   UNL     1      -5.671  12.414  21.884  0.00  0.00    +0.000 OA
ATOM     10  N   UNL     1      -5.084  13.493  19.968  0.00  0.00    +0.000 N 
ATOM     11  H   UNL     1      -5.101  14.347  19.429  0.00  0.00    +0.000 HD
BRANCH  10  12
ATOM     12  C   UNL     1      -4.662  12.274  19.284  0.00  0.00    +0.000 C 
ATOM     13  C   UNL     1      -5.044  12.270  17.783  0.00  0.00    +0.000 C 
ATOM     14  C   UNL     1      -4.028  11.327  17.215  0.00  0.00    +0.000 A 
ATOM     15  C   UNL     1      -4.043  10.685  15.990  0.00  0.00    +0.000 A 
ATOM     16  C   UNL     1      -2.964   9.859  15.659  0.00  0.00    +0.000 A 
ATOM     17  C   UNL     1      -1.889   9.700  16.549  0.00  0.00    +0.000 A 
ATOM     18  C   UNL     1      -1.872  10.370  17.773  0.00  0.00    +0.000 A 
ATOM     19  C   UNL     1      -2.950  11.178  18.093  0.00  0.00    +0.000 A 
ATOM     20  C   UNL     1      -3.136  12.020  19.319  0.00  0.00    +0.000 C 
ENDBRANCH  10  12
ENDBRANCH   6   8
BRANCH   1  22
ATOM     21  C   UNL     1      -3.199  16.274  21.300  0.00  0.00    +0.000 C 
ATOM     22  C   UNL     1      -2.904  15.650  22.663  0.00  0.00    +0.000 C 
ATOM     23  C   UNL     1      -2.034  16.634  23.484  0.00  0.00    +0.000 C 
BRANCH  22  24
ATOM     24  C   UNL     1      -2.133  14.349  22.301  0.00  0.00    +0.000 A 
ATOM     25  C   UNL     1      -2.381  13.139  22.982  0.00  0.00    +0.000 A 
ATOM     26  C   UNL     1      -1.551  12.026  22.819  0.00  0.00    +0.000 A 
ATOM     27  C   UNL     1      -0.458  12.091  21.962  0.00  0.00    +0.000 A 
ATOM     28  C   UNL     1      -0.206  13.265  21.257  0.00  0.00    +0.000 A 
ATOM     29  C   UNL     1      -1.031  14.384  21.427  0.00  0.00    +0.000 A 
ENDBRANCH  22  24
ENDBRANCH   1  22
TORSDOF 4
ENDMDL
MODEL 8
REMARK VINA RESULT:      -6.8      1.649      4.322
REMARK  Name = 
REMARK  7 active torsions:
REMARK  status: ('A' for Active; 'I' for Inactive)
REMARK    1  A    between atoms: C_1  and  C_2
REMARK    2  A    between atoms: C_2  and  C_3
REMARK    3  A    between atoms: C_2  and  C_4
REMARK    4  A    between atoms: C_2  and  C_23
REMARK    5  A    between atoms: C_9  and  C_10
REMARK    6  A    between atoms: C_9  and  C_11
REMARK    7  A    between atoms: N_13  and  C_14
REMARK                            x       y       z     vdW  Elec       q    Type
REMARK                         _______ _______ _______ _____ _____    ______ ____
ROOT
ATOM      1  C   UNL     1       2.752   3.131  17.923  0.00  0.00    +0.000 C 
ATOM      2  O   UNL     1       2.197   2.897  16.841  0.00  0.00    +0.000 OA
ATOM      3  N   UNL     1       1.992   3.063  19.078  0.00  0.00    +0.000 N 
ATOM      4  C   UNL     1       0.580   2.672  19.114  0.00  0.00    +0.000 C 
ATOM      5  C   UNL     1       0.380   3.701  20.214  0.00  0.00    +0.000 C 
ATOM      6  C   UNL     1       1.926   3.796  20.371  0.00  0.00    +0.000 C 
ATOM      7  C   UNL     1       2.410   2.895  21.515  0.00  0.00    +0.000 C 
ENDROOT
BRANCH   6   8
ATOM      8  C   UNL     1       2.406   5.327  20.405  0.00  0.00    +0.000 C 
ATOM      9  O   UNL     1       3.581   5.683  20.265  0.00  0.00    +0.000 OA
ATOM     10  N   UNL     1       1.409   6.282  20.582  0.00  0.00    +0.000 N 
ATOM     11  H   UNL     1       0.441   5.996  20.622  0.00  0.00    +0.000 HD
BRANCH  10  12
ATOM     12  C   UNL     1       1.686   7.715  20.537  0.00  0.00    +0.000 C 
ATOM     13  C   UNL     1       1.706   8.273  19.093  0.00  0.00    +0.000 C 
ATOM     14  C   UNL     1       1.377   9.717  19.322  0.00  0.00    +0.000 A 
ATOM     15  C   UNL     1       1.546  10.783  18.457  0.00  0.00    +0.000 A 
ATOM     16  C   UNL     1       1.141  12.053  18.882  0.00  0.00    +0.000 A 
ATOM     17  C   UNL     1       0.566  12.231  20.150  0.00  0.00    +0.000 A 
ATOM     18  C   UNL     1       0.377  11.145  21.006  0.00  0.00    +0.000 A 
ATOM     19  C   UNL     1       0.791   9.894  20.579  0.00  0.00    +0.000 A 
ATOM     20  C   UNL     1       0.657   8.586  21.298  0.00  0.00    +0.000 C 
ENDBRANCH  10  12
ENDBRANCH   6   8
BRANCH   1  22
ATOM     21  C   UNL     1       4.897   2.734  19.341  0.00  0.00    +0.000 C 
ATOM     22  C   UNL     1       4.313   3.182  18.002  0.00  0.00    +0.000 C 
ATOM     23  C   UNL     1       4.785   2.202  16.900  0.00  0.00    +0.000 C 
BRANCH  22  24
ATOM     24  C   UNL     1       4.905   4.607  17.813  0.00  0.00    +0.000 A 
ATOM     25  C   UNL     1       4.215   5.594  17.078  0.00  0.00    +0.000 A 
ATOM     26  C   UNL     1       4.828   6.798  16.718  0.00  0.00    +0.000 A 
ATOM     27  C   UNL     1       6.143   7.050  17.093  0.00  0.00    +0.000 A 
ATOM     28  C   UNL     1       6.838   6.104  17.841  0.00  0.00    +0.000 A 
ATOM     29  C   UNL     1       6.229   4.894  18.195  0.00  0.00    +0.000 A 
ENDBRANCH  22  24
ENDBRANCH   1  22
TORSDOF 4
ENDMDL
MODEL 9
REMARK VINA RESULT:      -6.8      1.789      4.540
REMARK  Name = 
REMARK  7 active torsions:
REMARK  status: ('A' for Active; 'I' for Inactive)
REMARK    1  A    between atoms: C_1  and  C_2
REMARK    2  A    between atoms: C_2  and  C_3
REMARK    3  A    between atoms: C_2  and  C_4
REMARK    4  A    between atoms: C_2  and  C_23
REMARK    5  A    between atoms: C_9  and  C_10
REMARK    6  A    between atoms: C_9  and  C_11
REMARK    7  A    between atoms: N_13  and  C_14
REMARK                            x       y       z     vdW  Elec       q    Type
REMARK                         _______ _______ _______ _____ _____    ______ ____
ROOT
ATOM      1  C   UNL     1       2.866   3.661  17.938  0.00  0.00    +0.000 C 
ATOM      2  O   UNL     1       2.403   3.599  16.790  0.00  0.00    +0.000 OA
ATOM      3  N   UNL     1       2.095   3.180  18.982  0.00  0.00    +0.000 N 
ATOM      4  C   UNL     1       0.784   2.546  18.816  0.00  0.00    +0.000 C 
ATOM      5  C   UNL     1       0.352   3.227  20.104  0.00  0.00    +0.000 C 
ATOM      6  C   UNL     1       1.845   3.555  20.400  0.00  0.00    +0.000 C 
ATOM      7  C   UNL     1       2.454   2.507  21.339  0.00  0.00    +0.000 C 
ENDROOT
BRANCH   6   8
ATOM      8  C   UNL     1       2.020   5.093  20.825  0.00  0.00    +0.000 C 
ATOM      9  O   UNL     1       2.493   5.459  21.907  0.00  0.00    +0.000 OA
ATOM     10  N   UNL     1       1.626   6.041  19.884  0.00  0.00    +0.000 N 
ATOM     11  H   UNL     1       1.310   5.743  18.972  0.00  0.00    +0.000 HD
BRANCH  10  12
ATOM     12  C   UNL     1       1.817   7.473  20.095  0.00  0.00    +0.000 C 
ATOM     13  C   UNL     1       1.802   8.278  18.771  0.00  0.00    +0.000 C 
ATOM     14  C   UNL     1       1.387   9.636  19.248  0.00  0.00    +0.000 A 
ATOM     15  C   UNL     1       1.492  10.847  18.586  0.00  0.00    +0.000 A 
ATOM     16  C   UNL     1       1.012  11.996  19.225  0.00  0.00    +0.000 A 
ATOM     17  C   UNL     1       0.430  11.912  20.500  0.00  0.00    +0.000 A 
ATOM     18  C   UNL     1       0.308  10.684  21.149  0.00  0.00    +0.000 A 
ATOM     19  C   UNL     1       0.794   9.554  20.512  0.00  0.00    +0.000 A 
ATOM     20  C   UNL     1       0.740   8.134  20.989  0.00  0.00    +0.000 C 
ENDBRANCH  10  12
ENDBRANCH   6   8
BRANCH   1  22
ATOM     21  C   UNL     1       4.672   5.118  19.114  0.00  0.00    +0.000 C 
ATOM     22  C   UNL     1       4.384   3.969  18.149  0.00  0.00    +0.000 C 
ATOM     23  C   UNL     1       4.961   2.661  18.746  0.00  0.00    +0.000 C 
BRANCH  22  24
ATOM     24  C   UNL     1       5.124   4.396  16.851  0.00  0.00    +0.000 A 
ATOM     25  C   UNL     1       5.048   5.719  16.367  0.00  0.00    +0.000 A 
ATOM     26  C   UNL     1       5.524   6.061  15.097  0.00  0.00    +0.000 A 
ATOM     27  C   UNL     1       6.099   5.091  14.284  0.00  0.00    +0.000 A 
ATOM     28  C   UNL     1       6.211   3.783  14.748  0.00  0.00    +0.000 A 
ATOM     29  C   UNL     1       5.726   3.437  16.015  0.00  0.00    +0.000 A 
ENDBRANCH  22  24
ENDBRANCH   1  22
TORSDOF 4
ENDMDL
