MODEL 1
REMARK VINA RESULT:      -6.8      0.000      0.000
REMARK  Name = 
REMARK  8 active torsions:
REMARK  status: ('A' for Active; 'I' for Inactive)
REMARK    1  A    between atoms: C_1  and  O_2
REMARK    2  A    between atoms: O_2  and  C_3
REMARK    3  A    between atoms: C_5  and  C_6
REMARK    4  A    between atoms: C_7  and  C_8
REMARK    5  A    between atoms: C_8  and  N_9
REMARK    6  A    between atoms: C_13  and  C_15
REMARK    7  A    between atoms: C_15  and  O_16
REMARK    8  A    between atoms: C_19  and  C_20
REMARK                            x       y       z     vdW  Elec       q    Type
REMARK                         _______ _______ _______ _____ _____    ______ ____
ROOT
ATOM      1  C   UNL     1       4.865   5.811  18.701  0.00  0.00    +0.000 C 
ENDROOT
BRANCH   1   6
ATOM      2  C   UNL     1       6.665   4.772  14.975  0.00  0.00    +0.000 A 
ATOM      3  C   UNL     1       5.653   3.962  15.447  0.00  0.00    +0.000 A 
ATOM      4  C   UNL     1       5.096   4.234  16.702  0.00  0.00    +0.000 A 
ATOM      5  C   UNL     1       3.955   3.377  17.185  0.00  0.00    +0.000 C 
ATOM      6  C   UNL     1       5.566   5.354  17.432  0.00  0.00    +0.000 A 
ATOM      7  C   UNL     1       6.625   6.099  16.876  0.00  0.00    +0.000 A 
ATOM      8  C   UNL     1       7.244   7.303  17.519  0.00  0.00    +0.000 C 
ATOM      9  N   UNL     1       7.171   5.807  15.667  0.00  0.00    +0.000 NA
BRANCH   2  11
ATOM     10  C   UNL     1       6.263   3.691  12.948  0.00  0.00    +0.000 C 
ATOM     11  O   UNL     1       7.162   4.487  13.719  0.00  0.00    +0.000 OA
ENDBRANCH   2  11
ENDBRANCH   1   6
BRANCH   1  12
ATOM     12  N   UNL     1       3.467   6.169  18.473  0.00  0.00    +0.000 NA
ATOM     13  C   UNL     1       2.558   6.110  19.607  0.00  0.00    +0.000 C 
ATOM     14  C   UNL     1       2.053   7.435  20.200  0.00  0.00    +0.000 C 
ATOM     15  N   UNL     1       1.718   8.441  19.203  0.00  0.00    +0.000 N 
ATOM     16  C   UNL     1       0.858   9.465  19.607  0.00  0.00    +0.000 C 
ATOM     17  O   UNL     1       0.204   9.414  20.653  0.00  0.00    +0.000 OA
ATOM     18  C   UNL     1       2.688   8.598  18.121  0.00  0.00    +0.000 C 
ATOM     19  C   UNL     1       3.246   7.278  17.553  0.00  0.00    +0.000 C 
BRANCH  16  20
ATOM     20  C   UNL     1       0.709  10.672  18.669  0.00  0.00    +0.000 C 
BRANCH  20  21
ATOM     21  O   UNL     1      -0.379  10.550  17.765  0.00  0.00    +0.000 OA
ATOM     22  H   UNL     1      -0.017  10.107  16.971  0.00  0.00    +0.000 HD
ENDBRANCH  20  21
ENDBRANCH  16  20
ENDBRANCH   1  12
TORSDOF 5
ENDMDL
MODEL 2
REMARK VINA RESULT:      -6.1      3.684      5.167
REMARK  Name = 
REMARK  8 active torsions:
REMARK  status: ('A' for Active; 'I' for Inactive)
REMARK    1  A    between atoms: C_1  and  O_2
REMARK    2  A    between atoms: O_2  and  C_3
REMARK    3  A    between atoms: C_5  and  C_6
REMARK    4  A    between atoms: C_7  and  C_8
REMARK    5  A    between atoms: C_8  and  N_9
REMARK    6  A    between atoms: C_13  and  C_15
REMARK    7  A    between atoms: C_15  and  O_16
REMARK    8  A    between atoms: C_19  and  C_20
REMARK                            x       y       z     vdW  Elec       q    Type
REMARK                         _______ _______ _______ _____ _____    ______ ____
ROOT
ATOM      1  C   UNL     1       6.303   4.456  17.889  0.00  0.00    +0.000 C 
ENDROOT
BRANCH   1   6
ATOM      2  C   UNL     1       7.845   8.432  17.760  0.00  0.00    +0.000 A 
ATOM      3  C   UNL     1       8.360   7.574  18.710  0.00  0.00    +0.000 A 
ATOM      4  C   UNL     1       7.820   6.288  18.826  0.00  0.00    +0.000 A 
ATOM      5  C   UNL     1       8.424   5.341  19.830  0.00  0.00    +0.000 C 
ATOM      6  C   UNL     1       6.786   5.896  17.940  0.00  0.00    +0.000 A 
ATOM      7  C   UNL     1       6.309   6.858  17.027  0.00  0.00    +0.000 A 
ATOM      8  C   UNL     1       5.218   6.612  16.030  0.00  0.00    +0.000 C 
ATOM      9  N   UNL     1       6.828   8.110  16.943  0.00  0.00    +0.000 NA
BRANCH   2  11
ATOM     10  C   UNL     1       9.057  10.084  18.874  0.00  0.00    +0.000 C 
ATOM     11  O   UNL     1       8.430   9.678  17.659  0.00  0.00    +0.000 OA
ENDBRANCH   2  11
ENDBRANCH   1   6
BRANCH   1  12
ATOM     12  N   UNL     1       5.486   4.097  19.047  0.00  0.00    +0.000 NA
ATOM     13  C   UNL     1       4.668   5.138  19.648  0.00  0.00    +0.000 C 
ATOM     14  C   UNL     1       3.145   5.065  19.454  0.00  0.00    +0.000 C 
ATOM     15  N   UNL     1       2.597   3.721  19.562  0.00  0.00    +0.000 N 
ATOM     16  C   UNL     1       1.232   3.620  19.844  0.00  0.00    +0.000 C 
ATOM     17  O   UNL     1       0.557   4.577  20.232  0.00  0.00    +0.000 OA
ATOM     18  C   UNL     1       3.343   2.682  18.856  0.00  0.00    +0.000 C 
ATOM     19  C   UNL     1       4.875   2.774  18.996  0.00  0.00    +0.000 C 
BRANCH  16  20
ATOM     20  C   UNL     1       0.582   2.236  19.694  0.00  0.00    +0.000 C 
BRANCH  20  21
ATOM     21  O   UNL     1       0.235   1.920  18.354  0.00  0.00    +0.000 OA
ATOM     22  H   UNL     1      -0.340   1.131  18.406  0.00  0.00    +0.000 HD
ENDBRANCH  20  21
ENDBRANCH  16  20
ENDBRANCH   1  12
TORSDOF 5
ENDMDL
MODEL 3
REMARK VINA RESULT:      -6.0      0.955      2.022
REMARK  Name = 
REMARK  8 active torsions:
REMARK  status: ('A' for Active; 'I' for Inactive)
REMARK    1  A    between atoms: C_1  and  O_2
REMARK    2  A    between atoms: O_2  and  C_3
REMARK    3  A    between atoms: C_5  and  C_6
REMARK    4  A    between atoms: C_7  and  C_8
REMARK    5  A    between atoms: C_8  and  N_9
REMARK    6  A    between atoms: C_13  and  C_15
REMARK    7  A    between atoms: C_15  and  O_16
REMARK    8  A    between atoms: C_19  and  C_20
REMARK                            x       y       z     vdW  Elec       q    Type
REMARK                         _______ _______ _______ _____ _____    ______ ____
ROOT
ATOM      1  C   UNL     1       4.272   5.984  18.849  0.00  0.00    +0.000 C 
ENDROOT
BRANCH   1   6
ATOM      2  C   UNL     1       6.027   4.322  15.333  0.00  0.00    +0.000 A 
ATOM      3  C   UNL     1       6.563   5.493  15.827  0.00  0.00    +0.000 A 
ATOM      4  C   UNL     1       5.961   6.102  16.933  0.00  0.00    +0.000 A 
ATOM      5  C   UNL     1       6.586   7.351  17.498  0.00  0.00    +0.000 C 
ATOM      6  C   UNL     1       4.840   5.476  17.534  0.00  0.00    +0.000 A 
ATOM      7  C   UNL     1       4.350   4.299  16.934  0.00  0.00    +0.000 A 
ATOM      8  C   UNL     1       3.172   3.520  17.434  0.00  0.00    +0.000 C 
ATOM      9  N   UNL     1       4.932   3.734  15.845  0.00  0.00    +0.000 NA
BRANCH   2  11
ATOM     10  C   UNL     1       5.864   3.721  13.085  0.00  0.00    +0.000 C 
ATOM     11  O   UNL     1       6.673   3.739  14.261  0.00  0.00    +0.000 OA
ENDBRANCH   2  11
ENDBRANCH   1   6
BRANCH   1  12
ATOM     12  N   UNL     1       2.887   6.433  18.726  0.00  0.00    +0.000 NA
ATOM     13  C   UNL     1       2.093   6.523  19.942  0.00  0.00    +0.000 C 
ATOM     14  C   UNL     1       1.744   7.921  20.477  0.00  0.00    +0.000 C 
ATOM     15  N   UNL     1       1.385   8.880  19.442  0.00  0.00    +0.000 N 
ATOM     16  C   UNL     1       0.644   9.993  19.847  0.00  0.00    +0.000 C 
ATOM     17  O   UNL     1       0.095  10.065  20.950  0.00  0.00    +0.000 OA
ATOM     18  C   UNL     1       2.252   8.886  18.266  0.00  0.00    +0.000 C 
ATOM     19  C   UNL     1       2.656   7.491  17.750  0.00  0.00    +0.000 C 
BRANCH  16  20
ATOM     20  C   UNL     1       0.489  11.141  18.839  0.00  0.00    +0.000 C 
BRANCH  20  21
ATOM     21  O   UNL     1      -0.530  10.911  17.877  0.00  0.00    +0.000 OA
ATOM     22  H   UNL     1      -1.126  10.245  18.274  0.00  0.00    +0.000 HD
ENDBRANCH  20  21
ENDBRANCH  16  20
ENDBRANCH   1  12
TORSDOF 5
ENDMDL
MODEL 4
REMARK VINA RESULT:      -6.0      2.762      4.138
REMARK  Name = 
REMARK  8 active torsions:
REMARK  status: ('A' for Active; 'I' for Inactive)
REMARK    1  A    between atoms: C_1  and  O_2
REMARK    2  A    between atoms: O_2  and  C_3
REMARK    3  A    between atoms: C_5  and  C_6
REMARK    4  A    between atoms: C_7  and  C_8
REMARK    5  A    between atoms: C_8  and  N_9
REMARK    6  A    between atoms: C_13  and  C_15
REMARK    7  A    between atoms: C_15  and  O_16
REMARK    8  A    between atoms: C_19  and  C_20
REMARK                            x       y       z     vdW  Elec       q    Type
REMARK                         _______ _______ _______ _____ _____    ______ ____
ROOT
ATOM      1  C   UNL     1       2.286   5.840  18.259  0.00  0.00    +0.000 C 
ENDROOT
BRANCH   1   6
ATOM      2  C   UNL     1       4.467   2.488  19.747  0.00  0.00    +0.000 A 
ATOM      3  C   UNL     1       3.135   2.591  20.090  0.00  0.00    +0.000 A 
ATOM      4  C   UNL     1       2.415   3.718  19.680  0.00  0.00    +0.000 A 
ATOM      5  C   UNL     1       0.947   3.797  20.014  0.00  0.00    +0.000 C 
ATOM      6  C   UNL     1       3.067   4.701  18.895  0.00  0.00    +0.000 A 
ATOM      7  C   UNL     1       4.438   4.518  18.626  0.00  0.00    +0.000 A 
ATOM      8  C   UNL     1       5.278   5.462  17.822  0.00  0.00    +0.000 C 
ATOM      9  N   UNL     1       5.129   3.429  19.052  0.00  0.00    +0.000 NA
BRANCH   2  11
ATOM     10  C   UNL     1       5.227   1.238  21.564  0.00  0.00    +0.000 C 
ATOM     11  O   UNL     1       5.131   1.344  20.144  0.00  0.00    +0.000 OA
ENDBRANCH   2  11
ENDBRANCH   1   6
BRANCH   1  12
ATOM     12  N   UNL     1       2.649   7.145  18.809  0.00  0.00    +0.000 NA
ATOM     13  C   UNL     1       2.732   8.268  17.889  0.00  0.00    +0.000 C 
ATOM     14  C   UNL     1       1.637   9.344  17.960  0.00  0.00    +0.000 C 
ATOM     15  N   UNL     1       1.235   9.694  19.314  0.00  0.00    +0.000 N 
ATOM     16  C   UNL     1       0.604  10.930  19.484  0.00  0.00    +0.000 C 
ATOM     17  O   UNL     1       0.600  11.802  18.611  0.00  0.00    +0.000 OA
ATOM     18  C   UNL     1       1.026   8.564  20.217  0.00  0.00    +0.000 C 
ATOM     19  C   UNL     1       2.086   7.450  20.119  0.00  0.00    +0.000 C 
BRANCH  16  20
ATOM     20  C   UNL     1      -0.065  11.199  20.839  0.00  0.00    +0.000 C 
BRANCH  20  21
ATOM     21  O   UNL     1       0.840  11.653  21.834  0.00  0.00    +0.000 OA
ATOM     22  H   UNL     1       0.387  12.388  22.294  0.00  0.00    +0.000 HD
ENDBRANCH  20  21
ENDBRANCH  16  20
ENDBRANCH   1  12
TORSDOF 5
ENDMDL
MODEL 5
REMARK VINA RESULT:      -6.0      2.260      6.961
REMARK  Name = 
REMARK  8 active torsions:
REMARK  status: ('A' for Active; 'I' for Inactive)
REMARK    1  A    between atoms: C_1  and  O_2
REMARK    2  A    between atoms: O_2  and  C_3
REMARK    3  A    between atoms: C_5  and  C_6
REMARK    4  A    between atoms: C_7  and  C_8
REMARK    5  A    between atoms: C_8  and  N_9
REMARK    6  A    between atoms: C_13  and  C_15
REMARK    7  A    between atoms: C_15  and  O_16
REMARK    8  A    between atoms: C_19  and  C_20
REMARK                            x       y       z     vdW  Elec       q    Type
REMARK                         _______ _______ _______ _____ _____    ______ ____
ROOT
ATOM      1  C   UNL     1       2.317   4.572  18.047  0.00  0.00    +0.000 C 
ENDROOT
BRANCH   1   6
ATOM      2  C   UNL     1       1.395   7.579  20.930  0.00  0.00    +0.000 A 
ATOM      3  C   UNL     1       1.874   7.990  19.704  0.00  0.00    +0.000 A 
ATOM      4  C   UNL     1       2.257   7.025  18.766  0.00  0.00    +0.000 A 
ATOM      5  C   UNL     1       2.730   7.483  17.411  0.00  0.00    +0.000 C 
ATOM      6  C   UNL     1       2.106   5.654  19.093  0.00  0.00    +0.000 A 
ATOM      7  C   UNL     1       1.636   5.339  20.384  0.00  0.00    +0.000 A 
ATOM      8  C   UNL     1       1.428   3.945  20.893  0.00  0.00    +0.000 C 
ATOM      9  N   UNL     1       1.292   6.288  21.292  0.00  0.00    +0.000 NA
BRANCH   2  11
ATOM     10  C   UNL     1      -0.193   9.225  21.386  0.00  0.00    +0.000 C 
ATOM     11  O   UNL     1       0.998   8.565  21.811  0.00  0.00    +0.000 OA
ENDBRANCH   2  11
ENDBRANCH   1   6
BRANCH   1  12
ATOM     12  N   UNL     1       3.726   4.224  17.875  0.00  0.00    +0.000 NA
ATOM     13  C   UNL     1       4.348   4.530  16.597  0.00  0.00    +0.000 C 
ATOM     14  C   UNL     1       5.367   5.679  16.543  0.00  0.00    +0.000 C 
ATOM     15  N   UNL     1       6.268   5.726  17.686  0.00  0.00    +0.000 N 
ATOM     16  C   UNL     1       7.467   6.423  17.514  0.00  0.00    +0.000 C 
ATOM     17  O   UNL     1       7.883   6.770  16.405  0.00  0.00    +0.000 OA
ATOM     18  C   UNL     1       5.634   5.545  18.991  0.00  0.00    +0.000 C 
ATOM     19  C   UNL     1       4.569   4.432  19.046  0.00  0.00    +0.000 C 
BRANCH  16  20
ATOM     20  C   UNL     1       8.299   6.716  18.770  0.00  0.00    +0.000 C 
BRANCH  20  21
ATOM     21  O   UNL     1       8.676   8.080  18.889  0.00  0.00    +0.000 OA
ATOM     22  H   UNL     1       9.314   8.245  18.166  0.00  0.00    +0.000 HD
ENDBRANCH  20  21
ENDBRANCH  16  20
ENDBRANCH   1  12
TORSDOF 5
ENDMDL
MODEL 6
REMARK VINA RESULT:      -5.9      4.171      5.513
REMARK  Name = 
REMARK  8 active torsions:
REMARK  status: ('A' for Active; 'I' for Inactive)
REMARK    1  A    between atoms: C_1  and  O_2
REMARK    2  A    between atoms: O_2  and  C_3
REMARK    3  A    between atoms: C_5  and  C_6
REMARK    4  A    between atoms: C_7  and  C_8
REMARK    5  A    between atoms: C_8  and  N_9
REMARK    6  A    between atoms: C_13  and  C_15
REMARK    7  A    between atoms: C_15  and  O_16
REMARK    8  A    between atoms: C_19  and  C_20
REMARK                            x       y       z     vdW  Elec       q    Type
REMARK                         _______ _______ _______ _____ _____    ______ ____
ROOT
ATOM      1  C   UNL     1       6.241   4.632  17.721  0.00  0.00    +0.000 C 
ENDROOT
BRANCH   1   6
ATOM      2  C   UNL     1       8.081   8.478  17.889  0.00  0.00    +0.000 A 
ATOM      3  C   UNL     1       8.419   7.562  18.862  0.00  0.00    +0.000 A 
ATOM      4  C   UNL     1       7.775   6.320  18.878  0.00  0.00    +0.000 A 
ATOM      5  C   UNL     1       8.188   5.306  19.913  0.00  0.00    +0.000 C 
ATOM      6  C   UNL     1       6.822   6.029  17.870  0.00  0.00    +0.000 A 
ATOM      7  C   UNL     1       6.525   7.046  16.939  0.00  0.00    +0.000 A 
ATOM      8  C   UNL     1       5.539   6.908  15.820  0.00  0.00    +0.000 C 
ATOM      9  N   UNL     1       7.142   8.255  16.953  0.00  0.00    +0.000 NA
BRANCH   2  11
ATOM     10  C   UNL     1       9.124  10.094  19.208  0.00  0.00    +0.000 C 
ATOM     11  O   UNL     1       8.765   9.678  17.892  0.00  0.00    +0.000 OA
ENDBRANCH   2  11
ENDBRANCH   1   6
BRANCH   1  12
ATOM     12  N   UNL     1       4.780   4.625  17.757  0.00  0.00    +0.000 NA
ATOM     13  C   UNL     1       4.095   3.470  17.200  0.00  0.00    +0.000 C 
ATOM     14  C   UNL     1       3.408   2.497  18.171  0.00  0.00    +0.000 C 
ATOM     15  N   UNL     1       2.709   3.149  19.269  0.00  0.00    +0.000 N 
ATOM     16  C   UNL     1       1.718   2.405  19.915  0.00  0.00    +0.000 C 
ATOM     17  O   UNL     1       1.262   1.356  19.450  0.00  0.00    +0.000 OA
ATOM     18  C   UNL     1       3.441   4.233  19.921  0.00  0.00    +0.000 C 
ATOM     19  C   UNL     1       4.181   5.186  18.962  0.00  0.00    +0.000 C 
BRANCH  16  20
ATOM     20  C   UNL     1       1.163   2.963  21.233  0.00  0.00    +0.000 C 
BRANCH  20  21
ATOM     21  O   UNL     1       2.058   2.817  22.326  0.00  0.00    +0.000 OA
ATOM     22  H   UNL     1       1.927   3.609  22.886  0.00  0.00    +0.000 HD
ENDBRANCH  20  21
ENDBRANCH  16  20
ENDBRANCH   1  12
TORSDOF 5
ENDMDL
MODEL 7
REMARK VINA RESULT:      -5.9      2.122      6.663
REMARK  Name = 
REMARK  8 active torsions:
REMARK  status: ('A' for Active; 'I' for Inactive)
REMARK    1  A    between atoms: C_1  and  O_2
REMARK    2  A    between atoms: O_2  and  C_3
REMARK    3  A    between atoms: C_5  and  C_6
REMARK    4  A    between atoms: C_7  and  C_8
REMARK    5  A    between atoms: C_8  and  N_9
REMARK    6  A    between atoms: C_13  and  C_15
REMARK    7  A    between atoms: C_15  and  O_16
REMARK    8  A    between atoms: C_19  and  C_20
REMARK                            x       y       z     vdW  Elec       q    Type
REMARK                         _______ _______ _______ _____ _____    ______ ____
ROOT
ATOM      1  C   UNL     1       2.296   4.376  17.931  0.00  0.00    +0.000 C 
ENDROOT
BRANCH   1   6
ATOM      2  C   UNL     1       1.657   7.496  20.771  0.00  0.00    +0.000 A 
ATOM      3  C   UNL     1       1.346   6.207  21.151  0.00  0.00    +0.000 A 
ATOM      4  C   UNL     1       1.473   5.174  20.216  0.00  0.00    +0.000 A 
ATOM      5  C   UNL     1       1.183   3.763  20.657  0.00  0.00    +0.000 C 
ATOM      6  C   UNL     1       1.952   5.480  18.918  0.00  0.00    +0.000 A 
ATOM      7  C   UNL     1       2.211   6.833  18.619  0.00  0.00    +0.000 A 
ATOM      8  C   UNL     1       2.711   7.328  17.296  0.00  0.00    +0.000 C 
ATOM      9  N   UNL     1       2.059   7.827  19.531  0.00  0.00    +0.000 NA
BRANCH   2  11
ATOM     10  C   UNL     1       0.866   9.636  21.255  0.00  0.00    +0.000 C 
ATOM     11  O   UNL     1       1.548   8.478  21.735  0.00  0.00    +0.000 OA
ENDBRANCH   2  11
ENDBRANCH   1   6
BRANCH   1  12
ATOM     12  N   UNL     1       3.727   4.079  17.898  0.00  0.00    +0.000 NA
ATOM     13  C   UNL     1       4.411   4.181  16.619  0.00  0.00    +0.000 C 
ATOM     14  C   UNL     1       5.382   5.354  16.408  0.00  0.00    +0.000 C 
ATOM     15  N   UNL     1       6.209   5.656  17.568  0.00  0.00    +0.000 N 
ATOM     16  C   UNL     1       7.385   6.372  17.332  0.00  0.00    +0.000 C 
ATOM     17  O   UNL     1       7.852   6.535  16.201  0.00  0.00    +0.000 OA
ATOM     18  C   UNL     1       5.506   5.680  18.848  0.00  0.00    +0.000 C 
ATOM     19  C   UNL     1       4.489   4.540  19.053  0.00  0.00    +0.000 C 
BRANCH  16  20
ATOM     20  C   UNL     1       8.126   6.933  18.554  0.00  0.00    +0.000 C 
BRANCH  20  21
ATOM     21  O   UNL     1       8.410   8.320  18.452  0.00  0.00    +0.000 OA
ATOM     22  H   UNL     1       7.559   8.779  18.605  0.00  0.00    +0.000 HD
ENDBRANCH  20  21
ENDBRANCH  16  20
ENDBRANCH   1  12
TORSDOF 5
ENDMDL
MODEL 8
REMARK VINA RESULT:      -5.9      2.886      4.018
REMARK  Name = 
REMARK  8 active torsions:
REMARK  status: ('A' for Active; 'I' for Inactive)
REMARK    1  A    between atoms: C_1  and  O_2
REMARK    2  A    between atoms: O_2  and  C_3
REMARK    3  A    between atoms: C_5  and  C_6
REMARK    4  A    between atoms: C_7  and  C_8
REMARK    5  A    between atoms: C_8  and  N_9
REMARK    6  A    between atoms: C_13  and  C_15
REMARK    7  A    between atoms: C_15  and  O_16
REMARK    8  A    between atoms: C_19  and  C_20
REMARK                            x       y       z     vdW  Elec       q    Type
REMARK                         _______ _______ _______ _____ _____    ______ ____
ROOT
ATOM      1  C   UNL     1       2.808   7.405  19.617  0.00  0.00    +0.000 C 
ENDROOT
BRANCH   1   6
ATOM      2  C   UNL     1       3.144   3.497  17.938  0.00  0.00    +0.000 A 
ATOM      3  C   UNL     1       3.795   4.530  17.295  0.00  0.00    +0.000 A 
ATOM      4  C   UNL     1       3.640   5.834  17.779  0.00  0.00    +0.000 A 
ATOM      5  C   UNL     1       4.396   6.948  17.104  0.00  0.00    +0.000 C 
ATOM      6  C   UNL     1       2.849   6.047  18.936  0.00  0.00    +0.000 A 
ATOM      7  C   UNL     1       2.201   4.929  19.498  0.00  0.00    +0.000 A 
ATOM      8  C   UNL     1       1.323   4.980  20.712  0.00  0.00    +0.000 C 
ATOM      9  N   UNL     1       2.342   3.673  19.002  0.00  0.00    +0.000 NA
BRANCH   2  11
ATOM     10  C   UNL     1       3.662   1.288  18.478  0.00  0.00    +0.000 C 
ATOM     11  O   UNL     1       3.352   2.224  17.446  0.00  0.00    +0.000 OA
ENDBRANCH   2  11
ENDBRANCH   1   6
BRANCH   1  12
ATOM     12  N   UNL     1       1.551   8.113  19.383  0.00  0.00    +0.000 NA
ATOM     13  C   UNL     1       0.845   8.641  20.539  0.00  0.00    +0.000 C 
ATOM     14  C   UNL     1       0.831  10.164  20.747  0.00  0.00    +0.000 C 
ATOM     15  N   UNL     1       0.650  10.928  19.521  0.00  0.00    +0.000 N 
ATOM     16  C   UNL     1       0.188  12.239  19.660  0.00  0.00    +0.000 C 
ATOM     17  O   UNL     1      -0.288  12.671  20.714  0.00  0.00    +0.000 OA
ATOM     18  C   UNL     1       1.451  10.484  18.382  0.00  0.00    +0.000 C 
ATOM     19  C   UNL     1       1.519   8.955  18.193  0.00  0.00    +0.000 C 
BRANCH  16  20
ATOM     20  C   UNL     1       0.249  13.143  18.421  0.00  0.00    +0.000 C 
BRANCH  20  21
ATOM     21  O   UNL     1      -0.898  13.037  17.590  0.00  0.00    +0.000 OA
ATOM     22  H   UNL     1      -1.589  13.582  18.016  0.00  0.00    +0.000 HD
ENDBRANCH  20  21
ENDBRANCH  16  20
ENDBRANCH   1  12
TORSDOF 5
ENDMDL
MODEL 9
REMARK VINA RESULT:      -5.9      1.101      1.188
REMARK  Name = 
REMARK  8 active torsions:
REMARK  status: ('A' for Active; 'I' for Inactive)
REMARK    1  A    between atoms: C_1  and  O_2
REMARK    2  A    between atoms: O_2  and  C_3
REMARK    3  A    between atoms: C_5  and  C_6
REMARK    4  A    between atoms: C_7  and  C_8
REMARK    5  A    between atoms: C_8  and  N_9
REMARK    6  A    between atoms: C_13  and  C_15
REMARK    7  A    between atoms: C_15  and  O_16
REMARK    8  A    between atoms: C_19  and  C_20
REMARK                            x       y       z     vdW  Elec       q    Type
REMARK                         _______ _______ _______ _____ _____    ______ ____
ROOT
ATOM      1  C   UNL     1       3.961   4.750  19.517  0.00  0.00    +0.000 C 
ENDROOT
BRANCH   1   6
ATOM      2  C   UNL     1       6.150   4.086  15.915  0.00  0.00    +0.000 A 
ATOM      3  C   UNL     1       4.905   3.503  16.027  0.00  0.00    +0.000 A 
ATOM      4  C   UNL     1       4.197   3.640  17.226  0.00  0.00    +0.000 A 
ATOM      5  C   UNL     1       2.815   3.045  17.319  0.00  0.00    +0.000 C 
ATOM      6  C   UNL     1       4.766   4.404  18.275  0.00  0.00    +0.000 A 
ATOM      7  C   UNL     1       6.057   4.931  18.072  0.00  0.00    +0.000 A 
ATOM      8  C   UNL     1       6.805   5.751  19.079  0.00  0.00    +0.000 C 
ATOM      9  N   UNL     1       6.742   4.768  16.911  0.00  0.00    +0.000 NA
BRANCH   2  11
ATOM     10  C   UNL     1       5.891   3.935  13.602  0.00  0.00    +0.000 C 
ATOM     11  O   UNL     1       6.798   3.953  14.703  0.00  0.00    +0.000 OA
ENDBRANCH   2  11
ENDBRANCH   1   6
BRANCH   1  12
ATOM     12  N   UNL     1       2.708   5.433  19.202  0.00  0.00    +0.000 NA
ATOM     13  C   UNL     1       1.835   5.791  20.308  0.00  0.00    +0.000 C 
ATOM     14  C   UNL     1       1.715   7.276  20.685  0.00  0.00    +0.000 C 
ATOM     15  N   UNL     1       1.650   8.175  19.542  0.00  0.00    +0.000 N 
ATOM     16  C   UNL     1       1.104   9.441  19.768  0.00  0.00    +0.000 C 
ATOM     17  O   UNL     1       0.477   9.725  20.792  0.00  0.00    +0.000 OA
ATOM     18  C   UNL     1       2.610   7.901  18.475  0.00  0.00    +0.000 C 
ATOM     19  C   UNL     1       2.782   6.410  18.123  0.00  0.00    +0.000 C 
BRANCH  16  20
ATOM     20  C   UNL     1       1.273  10.490  18.658  0.00  0.00    +0.000 C 
BRANCH  20  21
ATOM     21  O   UNL     1       0.048  10.857  18.042  0.00  0.00    +0.000 OA
ATOM     22  H   UNL     1      -0.629  10.818  18.747  0.00  0.00    +0.000 HD
ENDBRANCH  20  21
ENDBRANCH  16  20
ENDBRANCH   1  12
TORSDOF 5
ENDMDL
