MODEL 1
REMARK VINA RESULT:      -6.0      0.000      0.000
REMARK  Name = 
REMARK  4 active torsions:
REMARK  status: ('A' for Active; 'I' for Inactive)
REMARK    1  A    between atoms: C_1  and  C_2
REMARK    2  A    between atoms: N_4  and  C_5
REMARK    3  A    between atoms: C_5  and  C_6
REMARK    4  A    between atoms: C_5  and  C_7
REMARK                            x       y       z     vdW  Elec       q    Type
REMARK                         _______ _______ _______ _____ _____    ______ ____
ROOT
ATOM      1  C   UNL     1       5.272   4.180  18.252  0.00  0.00    +0.000 C 
ATOM      2  C   UNL     1       5.517   5.371  19.186  0.00  0.00    +0.000 C 
ENDROOT
BRANCH   1   6
ATOM      3  C   UNL     1       7.070   4.850  14.877  0.00  0.00    +0.000 C 
ATOM      4  C   UNL     1       6.874   4.494  16.325  0.00  0.00    +0.000 C 
ATOM      5  N   UNL     1       7.881   4.187  17.068  0.00  0.00    +0.000 NA
ATOM      6  N   UNL     1       5.562   4.551  16.877  0.00  0.00    +0.000 N 
ATOM      7  H   UNL     1       8.844   4.170  16.703  0.00  0.00    +0.000 HD
ATOM      8  H   UNL     1       4.805   4.933  16.287  0.00  0.00    +0.000 HD
ENDBRANCH   1   6
BRANCH   1   9
ATOM      9  C   UNL     1       3.839   3.691  18.360  0.00  0.00    +0.000 A 
ATOM     10  C   UNL     1       3.541   2.471  18.988  0.00  0.00    +0.000 A 
ATOM     11  C   UNL     1       2.215   2.029  19.084  0.00  0.00    +0.000 A 
ATOM     12  C   UNL     1       1.178   2.801  18.553  0.00  0.00    +0.000 A 
ATOM     13  C   UNL     1       1.462   4.016  17.925  0.00  0.00    +0.000 A 
ATOM     14  C   UNL     1       2.783   4.461  17.829  0.00  0.00    +0.000 A 
ENDBRANCH   1   9
TORSDOF 2
ENDMDL
MODEL 2
REMARK VINA RESULT:      -6.0      1.651      2.068
REMARK  Name = 
REMARK  4 active torsions:
REMARK  status: ('A' for Active; 'I' for Inactive)
REMARK    1  A    between atoms: C_1  and  C_2
REMARK    2  A    between atoms: N_4  and  C_5
REMARK    3  A    between atoms: C_5  and  C_6
REMARK    4  A    between atoms: C_5  and  C_7
REMARK                            x       y       z     vdW  Elec       q    Type
REMARK                         _______ _______ _______ _____ _____    ______ ____
ROOT
ATOM      1  C   UNL     1       3.765   5.715  18.273  0.00  0.00    +0.000 C 
ATOM      2  C   UNL     1       3.184   7.110  18.009  0.00  0.00    +0.000 C 
ENDROOT
BRANCH   1   6
ATOM      3  C   UNL     1       5.967   3.787  15.722  0.00  0.00    +0.000 C 
ATOM      4  C   UNL     1       5.495   4.359  17.031  0.00  0.00    +0.000 C 
ATOM      5  N   UNL     1       6.168   4.164  18.113  0.00  0.00    +0.000 NA
ATOM      6  N   UNL     1       4.319   5.162  17.048  0.00  0.00    +0.000 N 
ATOM      7  H   UNL     1       7.040   3.615  18.123  0.00  0.00    +0.000 HD
ATOM      8  H   UNL     1       3.888   5.407  16.143  0.00  0.00    +0.000 HD
ENDBRANCH   1   6
BRANCH   1   9
ATOM      9  C   UNL     1       2.704   4.780  18.824  0.00  0.00    +0.000 A 
ATOM     10  C   UNL     1       2.103   3.811  18.004  0.00  0.00    +0.000 A 
ATOM     11  C   UNL     1       1.126   2.951  18.523  0.00  0.00    +0.000 A 
ATOM     12  C   UNL     1       0.742   3.053  19.863  0.00  0.00    +0.000 A 
ATOM     13  C   UNL     1       1.332   4.013  20.689  0.00  0.00    +0.000 A 
ATOM     14  C   UNL     1       2.308   4.872  20.175  0.00  0.00    +0.000 A 
ENDBRANCH   1   9
TORSDOF 2
ENDMDL
MODEL 3
REMARK VINA RESULT:      -6.0      1.224      1.781
REMARK  Name = 
REMARK  4 active torsions:
REMARK  status: ('A' for Active; 'I' for Inactive)
REMARK    1  A    between atoms: C_1  and  C_2
REMARK    2  A    between atoms: N_4  and  C_5
REMARK    3  A    between atoms: C_5  and  C_6
REMARK    4  A    between atoms: C_5  and  C_7
REMARK                            x       y       z     vdW  Elec       q    Type
REMARK                         _______ _______ _______ _____ _____    ______ ____
ROOT
ATOM      1  C   UNL     1       4.762   5.298  17.180  0.00  0.00    +0.000 C 
ATOM      2  C   UNL     1       4.311   6.751  17.371  0.00  0.00    +0.000 C 
ENDROOT
BRANCH   1   6
ATOM      3  C   UNL     1       6.779   4.477  13.966  0.00  0.00    +0.000 C 
ATOM      4  C   UNL     1       6.482   4.745  15.415  0.00  0.00    +0.000 C 
ATOM      5  N   UNL     1       7.427   4.728  16.292  0.00  0.00    +0.000 NA
ATOM      6  N   UNL     1       5.149   5.070  15.798  0.00  0.00    +0.000 N 
ATOM      7  H   UNL     1       8.405   4.529  16.039  0.00  0.00    +0.000 HD
ATOM      8  H   UNL     1       4.452   5.207  15.049  0.00  0.00    +0.000 HD
ENDBRANCH   1   6
BRANCH   1   9
ATOM      9  C   UNL     1       3.661   4.329  17.571  0.00  0.00    +0.000 A 
ATOM     10  C   UNL     1       2.370   4.793  17.875  0.00  0.00    +0.000 A 
ATOM     11  C   UNL     1       1.361   3.891  18.234  0.00  0.00    +0.000 A 
ATOM     12  C   UNL     1       1.632   2.521  18.292  0.00  0.00    +0.000 A 
ATOM     13  C   UNL     1       2.911   2.048  17.992  0.00  0.00    +0.000 A 
ATOM     14  C   UNL     1       3.922   2.945  17.633  0.00  0.00    +0.000 A 
ENDBRANCH   1   9
TORSDOF 2
ENDMDL
MODEL 4
REMARK VINA RESULT:      -6.0      1.215      1.267
REMARK  Name = 
REMARK  4 active torsions:
REMARK  status: ('A' for Active; 'I' for Inactive)
REMARK    1  A    between atoms: C_1  and  C_2
REMARK    2  A    between atoms: N_4  and  C_5
REMARK    3  A    between atoms: C_5  and  C_6
REMARK    4  A    between atoms: C_5  and  C_7
REMARK                            x       y       z     vdW  Elec       q    Type
REMARK                         _______ _______ _______ _____ _____    ______ ____
ROOT
ATOM      1  C   UNL     1       4.738   5.299  17.226  0.00  0.00    +0.000 C 
ATOM      2  C   UNL     1       4.246   6.737  17.423  0.00  0.00    +0.000 C 
ENDROOT
BRANCH   1   6
ATOM      3  C   UNL     1       6.796   4.504  14.031  0.00  0.00    +0.000 C 
ATOM      4  C   UNL     1       6.478   4.748  15.481  0.00  0.00    +0.000 C 
ATOM      5  N   UNL     1       7.405   4.692  16.374  0.00  0.00    +0.000 NA
ATOM      6  N   UNL     1       5.145   5.092  15.846  0.00  0.00    +0.000 N 
ATOM      7  H   UNL     1       8.384   4.477  16.134  0.00  0.00    +0.000 HD
ATOM      8  H   UNL     1       4.465   5.261  15.088  0.00  0.00    +0.000 HD
ENDBRANCH   1   6
BRANCH   1   9
ATOM      9  C   UNL     1       3.658   4.299  17.597  0.00  0.00    +0.000 A 
ATOM     10  C   UNL     1       3.934   2.922  17.633  0.00  0.00    +0.000 A 
ATOM     11  C   UNL     1       2.930   2.008  17.978  0.00  0.00    +0.000 A 
ATOM     12  C   UNL     1       1.645   2.460  18.288  0.00  0.00    +0.000 A 
ATOM     13  C   UNL     1       1.358   3.827  18.255  0.00  0.00    +0.000 A 
ATOM     14  C   UNL     1       2.356   4.743  17.912  0.00  0.00    +0.000 A 
ENDBRANCH   1   9
TORSDOF 2
ENDMDL
MODEL 5
REMARK VINA RESULT:      -6.0      1.667      2.046
REMARK  Name = 
REMARK  4 active torsions:
REMARK  status: ('A' for Active; 'I' for Inactive)
REMARK    1  A    between atoms: C_1  and  C_2
REMARK    2  A    between atoms: N_4  and  C_5
REMARK    3  A    between atoms: C_5  and  C_6
REMARK    4  A    between atoms: C_5  and  C_7
REMARK                            x       y       z     vdW  Elec       q    Type
REMARK                         _______ _______ _______ _____ _____    ______ ____
ROOT
ATOM      1  C   UNL     1       3.735   5.783  18.297  0.00  0.00    +0.000 C 
ATOM      2  C   UNL     1       3.117   7.156  18.008  0.00  0.00    +0.000 C 
ENDROOT
BRANCH   1   6
ATOM      3  C   UNL     1       5.959   3.820  15.791  0.00  0.00    +0.000 C 
ATOM      4  C   UNL     1       5.466   4.394  17.091  0.00  0.00    +0.000 C 
ATOM      5  N   UNL     1       6.105   4.176  18.188  0.00  0.00    +0.000 NA
ATOM      6  N   UNL     1       4.309   5.225  17.083  0.00  0.00    +0.000 N 
ATOM      7  H   UNL     1       6.963   3.606  18.217  0.00  0.00    +0.000 HD
ATOM      8  H   UNL     1       3.908   5.486  16.169  0.00  0.00    +0.000 HD
ENDBRANCH   1   6
BRANCH   1   9
ATOM      9  C   UNL     1       2.699   4.827  18.860  0.00  0.00    +0.000 A 
ATOM     10  C   UNL     1       2.378   4.839  20.227  0.00  0.00    +0.000 A 
ATOM     11  C   UNL     1       1.419   3.954  20.737  0.00  0.00    +0.000 A 
ATOM     12  C   UNL     1       0.776   3.051  19.887  0.00  0.00    +0.000 A 
ATOM     13  C   UNL     1       1.086   3.029  18.525  0.00  0.00    +0.000 A 
ATOM     14  C   UNL     1       2.042   3.911  18.012  0.00  0.00    +0.000 A 
ENDBRANCH   1   9
TORSDOF 2
ENDMDL
MODEL 6
REMARK VINA RESULT:      -6.0      1.778      2.271
REMARK  Name = 
REMARK  4 active torsions:
REMARK  status: ('A' for Active; 'I' for Inactive)
REMARK    1  A    between atoms: C_1  and  C_2
REMARK    2  A    between atoms: N_4  and  C_5
REMARK    3  A    between atoms: C_5  and  C_6
REMARK    4  A    between atoms: C_5  and  C_7
REMARK                            x       y       z     vdW  Elec       q    Type
REMARK                         _______ _______ _______ _____ _____    ______ ____
ROOT
ATOM      1  C   UNL     1       3.757   5.991  18.688  0.00  0.00    +0.000 C 
ATOM      2  C   UNL     1       3.090   7.208  18.036  0.00  0.00    +0.000 C 
ENDROOT
BRANCH   1   6
ATOM      3  C   UNL     1       7.142   4.568  17.425  0.00  0.00    +0.000 C 
ATOM      4  C   UNL     1       6.104   5.116  18.366  0.00  0.00    +0.000 C 
ATOM      5  N   UNL     1       6.374   5.280  19.616  0.00  0.00    +0.000 NA
ATOM      6  N   UNL     1       4.835   5.498  17.846  0.00  0.00    +0.000 N 
ATOM      7  H   UNL     1       7.294   5.043  20.012  0.00  0.00    +0.000 HD
ATOM      8  H   UNL     1       4.707   5.479  16.822  0.00  0.00    +0.000 HD
ENDBRANCH   1   6
BRANCH   1   9
ATOM      9  C   UNL     1       2.749   4.883  18.932  0.00  0.00    +0.000 A 
ATOM     10  C   UNL     1       2.560   3.861  17.988  0.00  0.00    +0.000 A 
ATOM     11  C   UNL     1       1.627   2.843  18.224  0.00  0.00    +0.000 A 
ATOM     12  C   UNL     1       0.877   2.838  19.403  0.00  0.00    +0.000 A 
ATOM     13  C   UNL     1       1.055   3.850  20.350  0.00  0.00    +0.000 A 
ATOM     14  C   UNL     1       1.985   4.867  20.118  0.00  0.00    +0.000 A 
ENDBRANCH   1   9
TORSDOF 2
ENDMDL
MODEL 7
REMARK VINA RESULT:      -5.8      2.010      5.178
REMARK  Name = 
REMARK  4 active torsions:
REMARK  status: ('A' for Active; 'I' for Inactive)
REMARK    1  A    between atoms: C_1  and  C_2
REMARK    2  A    between atoms: N_4  and  C_5
REMARK    3  A    between atoms: C_5  and  C_6
REMARK    4  A    between atoms: C_5  and  C_7
REMARK                            x       y       z     vdW  Elec       q    Type
REMARK                         _______ _______ _______ _____ _____    ______ ____
ROOT
ATOM      1  C   UNL     1       5.730   4.066  16.310  0.00  0.00    +0.000 C 
ATOM      2  C   UNL     1       6.030   4.152  14.809  0.00  0.00    +0.000 C 
ENDROOT
BRANCH   1   6
ATOM      3  C   UNL     1       2.089   3.715  17.612  0.00  0.00    +0.000 C 
ATOM      4  C   UNL     1       3.541   3.400  17.379  0.00  0.00    +0.000 C 
ATOM      5  N   UNL     1       4.071   2.338  17.882  0.00  0.00    +0.000 NA
ATOM      6  N   UNL     1       4.311   4.267  16.552  0.00  0.00    +0.000 N 
ATOM      7  H   UNL     1       3.529   1.676  18.456  0.00  0.00    +0.000 HD
ATOM      8  H   UNL     1       3.818   5.028  16.059  0.00  0.00    +0.000 HD
ENDBRANCH   1   6
BRANCH   1   9
ATOM      9  C   UNL     1       6.533   5.095  17.085  0.00  0.00    +0.000 A 
ATOM     10  C   UNL     1       6.620   6.424  16.639  0.00  0.00    +0.000 A 
ATOM     11  C   UNL     1       7.363   7.366  17.363  0.00  0.00    +0.000 A 
ATOM     12  C   UNL     1       8.023   6.989  18.535  0.00  0.00    +0.000 A 
ATOM     13  C   UNL     1       7.945   5.670  18.989  0.00  0.00    +0.000 A 
ATOM     14  C   UNL     1       7.204   4.727  18.270  0.00  0.00    +0.000 A 
ENDBRANCH   1   9
TORSDOF 2
ENDMDL
MODEL 8
REMARK VINA RESULT:      -5.8      2.928      5.081
REMARK  Name = 
REMARK  4 active torsions:
REMARK  status: ('A' for Active; 'I' for Inactive)
REMARK    1  A    between atoms: C_1  and  C_2
REMARK    2  A    between atoms: N_4  and  C_5
REMARK    3  A    between atoms: C_5  and  C_6
REMARK    4  A    between atoms: C_5  and  C_7
REMARK                            x       y       z     vdW  Elec       q    Type
REMARK                         _______ _______ _______ _____ _____    ______ ____
ROOT
ATOM      1  C   UNL     1       2.489   5.547  18.963  0.00  0.00    +0.000 C 
ATOM      2  C   UNL     1       2.405   6.967  19.536  0.00  0.00    +0.000 C 
ENDROOT
BRANCH   1   6
ATOM      3  C   UNL     1       2.326   2.749  21.649  0.00  0.00    +0.000 C 
ATOM      4  C   UNL     1       1.870   3.730  20.605  0.00  0.00    +0.000 C 
ATOM      5  N   UNL     1       0.626   3.815  20.282  0.00  0.00    +0.000 NA
ATOM      6  N   UNL     1       2.830   4.601  20.012  0.00  0.00    +0.000 N 
ATOM      7  H   UNL     1      -0.094   3.221  20.718  0.00  0.00    +0.000 HD
ATOM      8  H   UNL     1       3.788   4.596  20.395  0.00  0.00    +0.000 HD
ENDBRANCH   1   6
BRANCH   1   9
ATOM      9  C   UNL     1       3.517   5.470  17.848  0.00  0.00    +0.000 A 
ATOM     10  C   UNL     1       3.871   4.235  17.281  0.00  0.00    +0.000 A 
ATOM     11  C   UNL     1       4.820   4.175  16.253  0.00  0.00    +0.000 A 
ATOM     12  C   UNL     1       5.422   5.346  15.784  0.00  0.00    +0.000 A 
ATOM     13  C   UNL     1       5.078   6.580  16.340  0.00  0.00    +0.000 A 
ATOM     14  C   UNL     1       4.131   6.644  17.366  0.00  0.00    +0.000 A 
ENDBRANCH   1   9
TORSDOF 2
ENDMDL
MODEL 9
REMARK VINA RESULT:      -5.8      2.921      5.217
REMARK  Name = 
REMARK  4 active torsions:
REMARK  status: ('A' for Active; 'I' for Inactive)
REMARK    1  A    between atoms: C_1  and  C_2
REMARK    2  A    between atoms: N_4  and  C_5
REMARK    3  A    between atoms: C_5  and  C_6
REMARK    4  A    between atoms: C_5  and  C_7
REMARK                            x       y       z     vdW  Elec       q    Type
REMARK                         _______ _______ _______ _____ _____    ______ ____
ROOT
ATOM      1  C   UNL     1       2.481   5.541  18.965  0.00  0.00    +0.000 C 
ATOM      2  C   UNL     1       2.387   6.962  19.534  0.00  0.00    +0.000 C 
ENDROOT
BRANCH   1   6
ATOM      3  C   UNL     1       2.344   2.739  21.649  0.00  0.00    +0.000 C 
ATOM      4  C   UNL     1       1.880   3.713  20.601  0.00  0.00    +0.000 C 
ATOM      5  N   UNL     1       0.637   3.776  20.268  0.00  0.00    +0.000 NA
ATOM      6  N   UNL     1       2.829   4.600  20.018  0.00  0.00    +0.000 N 
ATOM      7  H   UNL     1      -0.075   3.169  20.698  0.00  0.00    +0.000 HD
ATOM      8  H   UNL     1       3.784   4.612  20.408  0.00  0.00    +0.000 HD
ENDBRANCH   1   6
BRANCH   1   9
ATOM      9  C   UNL     1       3.509   5.467  17.850  0.00  0.00    +0.000 A 
ATOM     10  C   UNL     1       4.132   6.630  17.370  0.00  0.00    +0.000 A 
ATOM     11  C   UNL     1       5.080   6.551  16.341  0.00  0.00    +0.000 A 
ATOM     12  C   UNL     1       5.411   5.312  15.786  0.00  0.00    +0.000 A 
ATOM     13  C   UNL     1       4.798   4.148  16.255  0.00  0.00    +0.000 A 
ATOM     14  C   UNL     1       3.852   4.223  17.282  0.00  0.00    +0.000 A 
ENDBRANCH   1   9
TORSDOF 2
ENDMDL
