MODEL 1
REMARK VINA RESULT:      -7.2      0.000      0.000
REMARK  Name = 
REMARK  7 active torsions:
REMARK  status: ('A' for Active; 'I' for Inactive)
REMARK    1  A    between atoms: O_1  and  C_2
REMARK    2  A    between atoms: C_5  and  C_6
REMARK    3  A    between atoms: C_6  and  C_7
REMARK    4  A    between atoms: C_7  and  C_8
REMARK    5  A    between atoms: C_11  and  O_12
REMARK    6  A    between atoms: C_13  and  O_14
REMARK    7  A    between atoms: C_17  and  O_18
REMARK                            x       y       z     vdW  Elec       q    Type
REMARK                         _______ _______ _______ _____ _____    ______ ____
ROOT
ATOM      1  C   UNL     1       5.704   3.880  16.547  0.00  0.00    +0.000 C 
ENDROOT
BRANCH   1   5
ATOM      2  C   UNL     1       8.014   6.940  18.538  0.00  0.00    +0.000 A 
ATOM      3  C   UNL     1       7.569   7.148  17.236  0.00  0.00    +0.000 A 
ATOM      4  C   UNL     1       6.826   6.154  16.587  0.00  0.00    +0.000 A 
ATOM      5  C   UNL     1       6.520   4.950  17.240  0.00  0.00    +0.000 A 
ATOM      6  C   UNL     1       6.984   4.749  18.549  0.00  0.00    +0.000 A 
ATOM      7  C   UNL     1       7.724   5.744  19.192  0.00  0.00    +0.000 A 
BRANCH   2   8
ATOM      8  O   UNL     1       8.735   7.903  19.187  0.00  0.00    +0.000 OA
ATOM      9  H   UNL     1       9.422   7.478  19.721  0.00  0.00    +0.000 HD
ENDBRANCH   2   8
BRANCH   7  10
ATOM     10  O   UNL     1       8.167   5.557  20.472  0.00  0.00    +0.000 OA
ATOM     11  H   UNL     1       7.462   5.148  20.994  0.00  0.00    +0.000 HD
ENDBRANCH   7  10
ENDBRANCH   1   5
BRANCH   1  12
ATOM     12  C   UNL     1       4.294   4.359  16.185  0.00  0.00    +0.000 C 
BRANCH  12  13
ATOM     13  C   UNL     1       3.302   4.139  17.306  0.00  0.00    +0.000 A 
ATOM     14  C   UNL     1       2.933   5.195  18.158  0.00  0.00    +0.000 A 
ATOM     15  C   UNL     1       2.000   4.996  19.185  0.00  0.00    +0.000 A 
ATOM     16  C   UNL     1       1.439   3.737  19.359  0.00  0.00    +0.000 A 
ATOM     17  C   UNL     1       1.809   2.686  18.526  0.00  0.00    +0.000 A 
ATOM     18  C   UNL     1       2.735   2.873  17.507  0.00  0.00    +0.000 A 
BRANCH  16  19
ATOM     19  O   UNL     1       0.517   3.482  20.335  0.00  0.00    +0.000 OA
ATOM     20  H   UNL     1       0.908   3.719  21.193  0.00  0.00    +0.000 HD
ENDBRANCH  16  19
BRANCH  17  21
ATOM     21  O   UNL     1       1.252   1.450  18.701  0.00  0.00    +0.000 OA
ATOM     22  H   UNL     1       0.978   1.178  17.802  0.00  0.00    +0.000 HD
ENDBRANCH  17  21
ENDBRANCH  12  13
ENDBRANCH   1  12
TORSDOF 7
ENDMDL
MODEL 2
REMARK VINA RESULT:      -7.2      0.922      6.139
REMARK  Name = 
REMARK  7 active torsions:
REMARK  status: ('A' for Active; 'I' for Inactive)
REMARK    1  A    between atoms: O_1  and  C_2
REMARK    2  A    between atoms: C_5  and  C_6
REMARK    3  A    between atoms: C_6  and  C_7
REMARK    4  A    between atoms: C_7  and  C_8
REMARK    5  A    between atoms: C_11  and  O_12
REMARK    6  A    between atoms: C_13  and  O_14
REMARK    7  A    between atoms: C_17  and  O_18
REMARK                            x       y       z     vdW  Elec       q    Type
REMARK                         _______ _______ _______ _____ _____    ______ ____
ROOT
ATOM      1  C   UNL     1       3.821   4.286  16.633  0.00  0.00    +0.000 C 
ENDROOT
BRANCH   1   5
ATOM      2  C   UNL     1       1.513   3.182  20.114  0.00  0.00    +0.000 A 
ATOM      3  C   UNL     1       1.476   2.380  18.978  0.00  0.00    +0.000 A 
ATOM      4  C   UNL     1       2.218   2.740  17.847  0.00  0.00    +0.000 A 
ATOM      5  C   UNL     1       3.006   3.902  17.849  0.00  0.00    +0.000 A 
ATOM      6  C   UNL     1       3.025   4.707  18.997  0.00  0.00    +0.000 A 
ATOM      7  C   UNL     1       2.284   4.343  20.124  0.00  0.00    +0.000 A 
BRANCH   2   8
ATOM      8  O   UNL     1       0.799   2.841  21.228  0.00  0.00    +0.000 OA
ATOM      9  H   UNL     1      -0.131   3.075  21.093  0.00  0.00    +0.000 HD
ENDBRANCH   2   8
BRANCH   7  10
ATOM     10  O   UNL     1       2.311   5.120  21.249  0.00  0.00    +0.000 OA
ATOM     11  H   UNL     1       1.504   4.962  21.761  0.00  0.00    +0.000 HD
ENDBRANCH   7  10
ENDBRANCH   1   5
BRANCH   1  12
ATOM     12  C   UNL     1       5.273   3.806  16.725  0.00  0.00    +0.000 C 
BRANCH  12  13
ATOM     13  C   UNL     1       6.192   4.851  17.319  0.00  0.00    +0.000 A 
ATOM     14  C   UNL     1       6.548   5.997  16.587  0.00  0.00    +0.000 A 
ATOM     15  C   UNL     1       7.384   6.974  17.144  0.00  0.00    +0.000 A 
ATOM     16  C   UNL     1       7.866   6.800  18.435  0.00  0.00    +0.000 A 
ATOM     17  C   UNL     1       7.526   5.663  19.161  0.00  0.00    +0.000 A 
ATOM     18  C   UNL     1       6.700   4.688  18.616  0.00  0.00    +0.000 A 
BRANCH  16  19
ATOM     19  O   UNL     1       8.677   7.720  19.038  0.00  0.00    +0.000 OA
ATOM     20  H   UNL     1       9.512   7.282  19.275  0.00  0.00    +0.000 HD
ENDBRANCH  16  19
BRANCH  17  21
ATOM     21  O   UNL     1       8.001   5.498  20.432  0.00  0.00    +0.000 OA
ATOM     22  H   UNL     1       7.298   4.996  20.891  0.00  0.00    +0.000 HD
ENDBRANCH  17  21
ENDBRANCH  12  13
ENDBRANCH   1  12
TORSDOF 7
ENDMDL
MODEL 3
REMARK VINA RESULT:      -7.2      1.887      6.300
REMARK  Name = 
REMARK  7 active torsions:
REMARK  status: ('A' for Active; 'I' for Inactive)
REMARK    1  A    between atoms: O_1  and  C_2
REMARK    2  A    between atoms: C_5  and  C_6
REMARK    3  A    between atoms: C_6  and  C_7
REMARK    4  A    between atoms: C_7  and  C_8
REMARK    5  A    between atoms: C_11  and  O_12
REMARK    6  A    between atoms: C_13  and  O_14
REMARK    7  A    between atoms: C_17  and  O_18
REMARK                            x       y       z     vdW  Elec       q    Type
REMARK                         _______ _______ _______ _____ _____    ______ ____
ROOT
ATOM      1  C   UNL     1       2.726   6.845  19.055  0.00  0.00    +0.000 C 
ENDROOT
BRANCH   1   5
ATOM      2  C   UNL     1       0.995   2.891  18.869  0.00  0.00    +0.000 A 
ATOM      3  C   UNL     1       1.356   3.543  17.694  0.00  0.00    +0.000 A 
ATOM      4  C   UNL     1       1.911   4.827  17.753  0.00  0.00    +0.000 A 
ATOM      5  C   UNL     1       2.112   5.463  18.988  0.00  0.00    +0.000 A 
ATOM      6  C   UNL     1       1.733   4.798  20.164  0.00  0.00    +0.000 A 
ATOM      7  C   UNL     1       1.181   3.517  20.100  0.00  0.00    +0.000 A 
BRANCH   2   8
ATOM      8  O   UNL     1       0.457   1.635  18.829  0.00  0.00    +0.000 OA
ATOM      9  H   UNL     1       0.069   1.484  17.955  0.00  0.00    +0.000 HD
ENDBRANCH   2   8
BRANCH   7  10
ATOM     10  O   UNL     1       0.822   2.862  21.245  0.00  0.00    +0.000 OA
ATOM     11  H   UNL     1      -0.086   3.104  21.477  0.00  0.00    +0.000 HD
ENDBRANCH   7  10
ENDBRANCH   1   5
BRANCH   1  12
ATOM     12  C   UNL     1       3.535   7.189  17.801  0.00  0.00    +0.000 C 
BRANCH  12  13
ATOM     13  C   UNL     1       4.803   6.373  17.687  0.00  0.00    +0.000 A 
ATOM     14  C   UNL     1       5.301   5.658  18.790  0.00  0.00    +0.000 A 
ATOM     15  C   UNL     1       6.466   4.886  18.679  0.00  0.00    +0.000 A 
ATOM     16  C   UNL     1       7.134   4.835  17.463  0.00  0.00    +0.000 A 
ATOM     17  C   UNL     1       6.653   5.550  16.370  0.00  0.00    +0.000 A 
ATOM     18  C   UNL     1       5.501   6.319  16.471  0.00  0.00    +0.000 A 
BRANCH  16  19
ATOM     19  O   UNL     1       8.269   4.094  17.288  0.00  0.00    +0.000 OA
ATOM     20  H   UNL     1       8.809   4.170  18.094  0.00  0.00    +0.000 HD
ENDBRANCH  16  19
BRANCH  17  21
ATOM     21  O   UNL     1       7.314   5.495  15.175  0.00  0.00    +0.000 OA
ATOM     22  H   UNL     1       6.917   6.215  14.645  0.00  0.00    +0.000 HD
ENDBRANCH  17  21
ENDBRANCH  12  13
ENDBRANCH   1  12
TORSDOF 7
ENDMDL
MODEL 4
REMARK VINA RESULT:      -7.2      1.867      3.059
REMARK  Name = 
REMARK  7 active torsions:
REMARK  status: ('A' for Active; 'I' for Inactive)
REMARK    1  A    between atoms: O_1  and  C_2
REMARK    2  A    between atoms: C_5  and  C_6
REMARK    3  A    between atoms: C_6  and  C_7
REMARK    4  A    between atoms: C_7  and  C_8
REMARK    5  A    between atoms: C_11  and  O_12
REMARK    6  A    between atoms: C_13  and  O_14
REMARK    7  A    between atoms: C_17  and  O_18
REMARK                            x       y       z     vdW  Elec       q    Type
REMARK                         _______ _______ _______ _____ _____    ______ ____
ROOT
ATOM      1  C   UNL     1       3.541   7.180  17.862  0.00  0.00    +0.000 C 
ENDROOT
BRANCH   1   5
ATOM      2  C   UNL     1       7.157   4.840  17.523  0.00  0.00    +0.000 A 
ATOM      3  C   UNL     1       6.484   4.900  18.740  0.00  0.00    +0.000 A 
ATOM      4  C   UNL     1       5.315   5.663  18.852  0.00  0.00    +0.000 A 
ATOM      5  C   UNL     1       4.812   6.366  17.747  0.00  0.00    +0.000 A 
ATOM      6  C   UNL     1       5.507   6.307  16.530  0.00  0.00    +0.000 A 
ATOM      7  C   UNL     1       6.671   5.543  16.422  0.00  0.00    +0.000 A 
BRANCH   2   8
ATOM      8  O   UNL     1       8.295   4.095  17.396  0.00  0.00    +0.000 OA
ATOM      9  H   UNL     1       9.039   4.683  17.196  0.00  0.00    +0.000 HD
ENDBRANCH   2   8
BRANCH   7  10
ATOM     10  O   UNL     1       7.344   5.474  15.234  0.00  0.00    +0.000 OA
ATOM     11  H   UNL     1       8.277   5.686  15.386  0.00  0.00    +0.000 HD
ENDBRANCH   7  10
ENDBRANCH   1   5
BRANCH   1  12
ATOM     12  C   UNL     1       2.727   6.823  19.110  0.00  0.00    +0.000 C 
BRANCH  12  13
ATOM     13  C   UNL     1       2.104   5.448  19.022  0.00  0.00    +0.000 A 
ATOM     14  C   UNL     1       1.905   4.825  17.778  0.00  0.00    +0.000 A 
ATOM     15  C   UNL     1       1.346   3.542  17.697  0.00  0.00    +0.000 A 
ATOM     16  C   UNL     1       0.982   2.886  18.866  0.00  0.00    +0.000 A 
ATOM     17  C   UNL     1       1.166   3.501  20.100  0.00  0.00    +0.000 A 
ATOM     18  C   UNL     1       1.717   4.773  20.189  0.00  0.00    +0.000 A 
BRANCH  16  19
ATOM     19  O   UNL     1       0.441   1.631  18.855  0.00  0.00    +0.000 OA
ATOM     20  H   UNL     1       1.021   1.045  19.371  0.00  0.00    +0.000 HD
ENDBRANCH  16  19
BRANCH  17  21
ATOM     21  O   UNL     1       0.808   2.849  21.246  0.00  0.00    +0.000 OA
ATOM     22  H   UNL     1      -0.054   2.438  21.032  0.00  0.00    +0.000 HD
ENDBRANCH  17  21
ENDBRANCH  12  13
ENDBRANCH   1  12
TORSDOF 7
ENDMDL
MODEL 5
REMARK VINA RESULT:      -7.2      0.103      6.197
REMARK  Name = 
REMARK  7 active torsions:
REMARK  status: ('A' for Active; 'I' for Inactive)
REMARK    1  A    between atoms: O_1  and  C_2
REMARK    2  A    between atoms: C_5  and  C_6
REMARK    3  A    between atoms: C_6  and  C_7
REMARK    4  A    between atoms: C_7  and  C_8
REMARK    5  A    between atoms: C_11  and  O_12
REMARK    6  A    between atoms: C_13  and  O_14
REMARK    7  A    between atoms: C_17  and  O_18
REMARK                            x       y       z     vdW  Elec       q    Type
REMARK                         _______ _______ _______ _____ _____    ______ ____
ROOT
ATOM      1  C   UNL     1       4.409   4.288  16.129  0.00  0.00    +0.000 C 
ENDROOT
BRANCH   1   5
ATOM      2  C   UNL     1       1.530   3.767  19.307  0.00  0.00    +0.000 A 
ATOM      3  C   UNL     1       2.088   5.021  19.080  0.00  0.00    +0.000 A 
ATOM      4  C   UNL     1       3.026   5.189  18.054  0.00  0.00    +0.000 A 
ATOM      5  C   UNL     1       3.406   4.106  17.248  0.00  0.00    +0.000 A 
ATOM      6  C   UNL     1       2.844   2.844  17.496  0.00  0.00    +0.000 A 
ATOM      7  C   UNL     1       1.908   2.681  18.519  0.00  0.00    +0.000 A 
BRANCH   2   8
ATOM      8  O   UNL     1       0.609   3.587  20.301  0.00  0.00    +0.000 OA
ATOM      9  H   UNL     1       0.286   2.674  20.273  0.00  0.00    +0.000 HD
ENDBRANCH   2   8
BRANCH   7  10
ATOM     10  O   UNL     1       1.349   1.456  18.755  0.00  0.00    +0.000 OA
ATOM     11  H   UNL     1       0.609   1.323  18.144  0.00  0.00    +0.000 HD
ENDBRANCH   7  10
ENDBRANCH   1   5
BRANCH   1  12
ATOM     12  C   UNL     1       5.819   3.838  16.525  0.00  0.00    +0.000 C 
BRANCH  12  13
ATOM     13  C   UNL     1       6.603   4.931  17.217  0.00  0.00    +0.000 A 
ATOM     14  C   UNL     1       6.865   6.150  16.569  0.00  0.00    +0.000 A 
ATOM     15  C   UNL     1       7.575   7.170  17.216  0.00  0.00    +0.000 A 
ATOM     16  C   UNL     1       8.026   6.966  18.514  0.00  0.00    +0.000 A 
ATOM     17  C   UNL     1       7.779   5.757  19.158  0.00  0.00    +0.000 A 
ATOM     18  C   UNL     1       7.078   4.740  18.523  0.00  0.00    +0.000 A 
BRANCH  16  19
ATOM     19  O   UNL     1       8.715   7.924  19.203  0.00  0.00    +0.000 OA
ATOM     20  H   UNL     1       8.071   8.525  19.615  0.00  0.00    +0.000 HD
ENDBRANCH  16  19
BRANCH  17  21
ATOM     21  O   UNL     1       8.223   5.563  20.436  0.00  0.00    +0.000 OA
ATOM     22  H   UNL     1       9.196   5.636  20.368  0.00  0.00    +0.000 HD
ENDBRANCH  17  21
ENDBRANCH  12  13
ENDBRANCH   1  12
TORSDOF 7
ENDMDL
MODEL 6
REMARK VINA RESULT:      -7.2      1.579      2.341
REMARK  Name = 
REMARK  7 active torsions:
REMARK  status: ('A' for Active; 'I' for Inactive)
REMARK    1  A    between atoms: O_1  and  C_2
REMARK    2  A    between atoms: C_5  and  C_6
REMARK    3  A    between atoms: C_6  and  C_7
REMARK    4  A    between atoms: C_7  and  C_8
REMARK    5  A    between atoms: C_11  and  O_12
REMARK    6  A    between atoms: C_13  and  O_14
REMARK    7  A    between atoms: C_17  and  O_18
REMARK                            x       y       z     vdW  Elec       q    Type
REMARK                         _______ _______ _______ _____ _____    ______ ____
ROOT
ATOM      1  C   UNL     1       3.432   6.919  17.859  0.00  0.00    +0.000 C 
ENDROOT
BRANCH   1   5
ATOM      2  C   UNL     1       7.132   4.693  17.718  0.00  0.00    +0.000 A 
ATOM      3  C   UNL     1       6.329   4.771  16.584  0.00  0.00    +0.000 A 
ATOM      4  C   UNL     1       5.126   5.487  16.631  0.00  0.00    +0.000 A 
ATOM      5  C   UNL     1       4.724   6.132  17.810  0.00  0.00    +0.000 A 
ATOM      6  C   UNL     1       5.538   6.036  18.949  0.00  0.00    +0.000 A 
ATOM      7  C   UNL     1       6.737   5.322  18.897  0.00  0.00    +0.000 A 
BRANCH   2   8
ATOM      8  O   UNL     1       8.312   4.004  17.687  0.00  0.00    +0.000 OA
ATOM      9  H   UNL     1       8.752   4.167  16.840  0.00  0.00    +0.000 HD
ENDBRANCH   2   8
BRANCH   7  10
ATOM     10  O   UNL     1       7.539   5.237  20.001  0.00  0.00    +0.000 OA
ATOM     11  H   UNL     1       8.406   5.614  19.793  0.00  0.00    +0.000 HD
ENDBRANCH   7  10
ENDBRANCH   1   5
BRANCH   1  12
ATOM     12  C   UNL     1       2.195   6.023  17.739  0.00  0.00    +0.000 C 
BRANCH  12  13
ATOM     13  C   UNL     1       2.094   5.020  18.866  0.00  0.00    +0.000 A 
ATOM     14  C   UNL     1       2.126   5.439  20.208  0.00  0.00    +0.000 A 
ATOM     15  C   UNL     1       2.014   4.512  21.253  0.00  0.00    +0.000 A 
ATOM     16  C   UNL     1       1.873   3.163  20.953  0.00  0.00    +0.000 A 
ATOM     17  C   UNL     1       1.851   2.741  19.627  0.00  0.00    +0.000 A 
ATOM     18  C   UNL     1       1.964   3.652  18.585  0.00  0.00    +0.000 A 
BRANCH  16  19
ATOM     19  O   UNL     1       1.749   2.212  21.925  0.00  0.00    +0.000 OA
ATOM     20  H   UNL     1       2.522   1.623  21.876  0.00  0.00    +0.000 HD
ENDBRANCH  16  19
BRANCH  17  21
ATOM     21  O   UNL     1       1.710   1.413  19.337  0.00  0.00    +0.000 OA
ATOM     22  H   UNL     1       0.750   1.297  19.193  0.00  0.00    +0.000 HD
ENDBRANCH  17  21
ENDBRANCH  12  13
ENDBRANCH   1  12
TORSDOF 7
ENDMDL
MODEL 7
REMARK VINA RESULT:      -7.2      1.597      6.058
REMARK  Name = 
REMARK  7 active torsions:
REMARK  status: ('A' for Active; 'I' for Inactive)
REMARK    1  A    between atoms: O_1  and  C_2
REMARK    2  A    between atoms: C_5  and  C_6
REMARK    3  A    between atoms: C_6  and  C_7
REMARK    4  A    between atoms: C_7  and  C_8
REMARK    5  A    between atoms: C_11  and  O_12
REMARK    6  A    between atoms: C_13  and  O_14
REMARK    7  A    between atoms: C_17  and  O_18
REMARK                            x       y       z     vdW  Elec       q    Type
REMARK                         _______ _______ _______ _____ _____    ______ ____
ROOT
ATOM      1  C   UNL     1       2.157   6.087  17.795  0.00  0.00    +0.000 C 
ENDROOT
BRANCH   1   5
ATOM      2  C   UNL     1       1.954   3.140  20.949  0.00  0.00    +0.000 A 
ATOM      3  C   UNL     1       2.079   4.489  21.270  0.00  0.00    +0.000 A 
ATOM      4  C   UNL     1       2.152   5.444  20.248  0.00  0.00    +0.000 A 
ATOM      5  C   UNL     1       2.094   5.055  18.901  0.00  0.00    +0.000 A 
ATOM      6  C   UNL     1       1.980   3.692  18.591  0.00  0.00    +0.000 A 
ATOM      7  C   UNL     1       1.907   2.743  19.614  0.00  0.00    +0.000 A 
BRANCH   2   8
ATOM      8  O   UNL     1       1.877   2.197  21.934  0.00  0.00    +0.000 OA
ATOM      9  H   UNL     1       1.112   2.387  22.496  0.00  0.00    +0.000 HD
ENDBRANCH   2   8
BRANCH   7  10
ATOM     10  O   UNL     1       1.783   1.414  19.315  0.00  0.00    +0.000 OA
ATOM     11  H   UNL     1       2.561   0.942  19.646  0.00  0.00    +0.000 HD
ENDBRANCH   7  10
ENDBRANCH   1   5
BRANCH   1  12
ATOM     12  C   UNL     1       3.409   6.966  17.884  0.00  0.00    +0.000 C 
BRANCH  12  13
ATOM     13  C   UNL     1       4.688   6.162  17.815  0.00  0.00    +0.000 A 
ATOM     14  C   UNL     1       5.073   5.521  16.624  0.00  0.00    +0.000 A 
ATOM     15  C   UNL     1       6.267   4.791  16.554  0.00  0.00    +0.000 A 
ATOM     16  C   UNL     1       7.074   4.701  17.680  0.00  0.00    +0.000 A 
ATOM     17  C   UNL     1       6.694   5.323  18.865  0.00  0.00    +0.000 A 
ATOM     18  C   UNL     1       5.511   6.047  18.945  0.00  0.00    +0.000 A 
BRANCH  16  19
ATOM     19  O   UNL     1       8.255   4.013  17.674  0.00  0.00    +0.000 OA
ATOM     20  H   UNL     1       8.862   4.445  18.300  0.00  0.00    +0.000 HD
ENDBRANCH  16  19
BRANCH  17  21
ATOM     21  O   UNL     1       7.493   5.232  19.970  0.00  0.00    +0.000 OA
ATOM     22  H   UNL     1       8.124   5.974  19.874  0.00  0.00    +0.000 HD
ENDBRANCH  17  21
ENDBRANCH  12  13
ENDBRANCH   1  12
TORSDOF 7
ENDMDL
MODEL 8
REMARK VINA RESULT:      -7.1      1.969      2.848
REMARK  Name = 
REMARK  7 active torsions:
REMARK  status: ('A' for Active; 'I' for Inactive)
REMARK    1  A    between atoms: O_1  and  C_2
REMARK    2  A    between atoms: C_5  and  C_6
REMARK    3  A    between atoms: C_6  and  C_7
REMARK    4  A    between atoms: C_7  and  C_8
REMARK    5  A    between atoms: C_11  and  O_12
REMARK    6  A    between atoms: C_13  and  O_14
REMARK    7  A    between atoms: C_17  and  O_18
REMARK                            x       y       z     vdW  Elec       q    Type
REMARK                         _______ _______ _______ _____ _____    ______ ____
ROOT
ATOM      1  C   UNL     1       3.504   7.007  17.931  0.00  0.00    +0.000 C 
ENDROOT
BRANCH   1   5
ATOM      2  C   UNL     1       7.171   4.776  17.433  0.00  0.00    +0.000 A 
ATOM      3  C   UNL     1       6.532   4.789  18.669  0.00  0.00    +0.000 A 
ATOM      4  C   UNL     1       5.348   5.517  18.833  0.00  0.00    +0.000 A 
ATOM      5  C   UNL     1       4.793   6.231  17.760  0.00  0.00    +0.000 A 
ATOM      6  C   UNL     1       5.453   6.219  16.522  0.00  0.00    +0.000 A 
ATOM      7  C   UNL     1       6.634   5.491  16.363  0.00  0.00    +0.000 A 
BRANCH   2   8
ATOM      8  O   UNL     1       8.325   4.066  17.255  0.00  0.00    +0.000 OA
ATOM      9  H   UNL     1       8.638   3.749  18.114  0.00  0.00    +0.000 HD
ENDBRANCH   2   8
BRANCH   7  10
ATOM     10  O   UNL     1       7.273   5.467  15.155  0.00  0.00    +0.000 OA
ATOM     11  H   UNL     1       7.355   4.548  14.858  0.00  0.00    +0.000 HD
ENDBRANCH   7  10
ENDBRANCH   1   5
BRANCH   1  12
ATOM     12  C   UNL     1       2.263   6.124  17.767  0.00  0.00    +0.000 C 
BRANCH  12  13
ATOM     13  C   UNL     1       2.129   5.100  18.872  0.00  0.00    +0.000 A 
ATOM     14  C   UNL     1       2.154   5.490  20.222  0.00  0.00    +0.000 A 
ATOM     15  C   UNL     1       2.011   4.544  21.246  0.00  0.00    +0.000 A 
ATOM     16  C   UNL     1       1.848   3.205  20.916  0.00  0.00    +0.000 A 
ATOM     17  C   UNL     1       1.834   2.811  19.581  0.00  0.00    +0.000 A 
ATOM     18  C   UNL     1       1.976   3.741  18.560  0.00  0.00    +0.000 A 
BRANCH  16  19
ATOM     19  O   UNL     1       1.694   2.236  21.867  0.00  0.00    +0.000 OA
ATOM     20  H   UNL     1       2.416   1.592  21.765  0.00  0.00    +0.000 HD
ENDBRANCH  16  19
BRANCH  17  21
ATOM     21  O   UNL     1       1.670   1.492  19.262  0.00  0.00    +0.000 OA
ATOM     22  H   UNL     1       2.582   1.151  19.170  0.00  0.00    +0.000 HD
ENDBRANCH  17  21
ENDBRANCH  12  13
ENDBRANCH   1  12
TORSDOF 7
ENDMDL
MODEL 9
REMARK VINA RESULT:      -7.1      1.961      6.133
REMARK  Name = 
REMARK  7 active torsions:
REMARK  status: ('A' for Active; 'I' for Inactive)
REMARK    1  A    between atoms: O_1  and  C_2
REMARK    2  A    between atoms: C_5  and  C_6
REMARK    3  A    between atoms: C_6  and  C_7
REMARK    4  A    between atoms: C_7  and  C_8
REMARK    5  A    between atoms: C_11  and  O_12
REMARK    6  A    between atoms: C_13  and  O_14
REMARK    7  A    between atoms: C_17  and  O_18
REMARK                            x       y       z     vdW  Elec       q    Type
REMARK                         _______ _______ _______ _____ _____    ______ ____
ROOT
ATOM      1  C   UNL     1       2.265   6.182  17.753  0.00  0.00    +0.000 C 
ENDROOT
BRANCH   1   5
ATOM      2  C   UNL     1       1.837   3.214  20.863  0.00  0.00    +0.000 A 
ATOM      3  C   UNL     1       1.975   4.556  21.203  0.00  0.00    +0.000 A 
ATOM      4  C   UNL     1       2.120   5.518  20.196  0.00  0.00    +0.000 A 
ATOM      5  C   UNL     1       2.123   5.143  18.844  0.00  0.00    +0.000 A 
ATOM      6  C   UNL     1       1.995   3.785  18.516  0.00  0.00    +0.000 A 
ATOM      7  C   UNL     1       1.849   2.829  19.523  0.00  0.00    +0.000 A 
BRANCH   2   8
ATOM      8  O   UNL     1       1.689   2.264  21.833  0.00  0.00    +0.000 OA
ATOM      9  H   UNL     1       2.368   2.393  22.511  0.00  0.00    +0.000 HD
ENDBRANCH   2   8
BRANCH   7  10
ATOM     10  O   UNL     1       1.711   1.506  19.206  0.00  0.00    +0.000 OA
ATOM     11  H   UNL     1       1.083   1.421  18.474  0.00  0.00    +0.000 HD
ENDBRANCH   7  10
ENDBRANCH   1   5
BRANCH   1  12
ATOM     12  C   UNL     1       3.512   7.053  17.932  0.00  0.00    +0.000 C 
BRANCH  12  13
ATOM     13  C   UNL     1       4.795   6.267  17.778  0.00  0.00    +0.000 A 
ATOM     14  C   UNL     1       5.333   5.548  18.859  0.00  0.00    +0.000 A 
ATOM     15  C   UNL     1       6.512   4.803  18.712  0.00  0.00    +0.000 A 
ATOM     16  C   UNL     1       7.153   4.784  17.480  0.00  0.00    +0.000 A 
ATOM     17  C   UNL     1       6.632   5.503  16.409  0.00  0.00    +0.000 A 
ATOM     18  C   UNL     1       5.466   6.245  16.546  0.00  0.00    +0.000 A 
BRANCH  16  19
ATOM     19  O   UNL     1       8.300   4.071  17.270  0.00  0.00    +0.000 OA
ATOM     20  H   UNL     1       9.029   4.700  17.137  0.00  0.00    +0.000 HD
ENDBRANCH  16  19
BRANCH  17  21
ATOM     21  O   UNL     1       7.267   5.479  15.199  0.00  0.00    +0.000 OA
ATOM     22  H   UNL     1       7.174   6.391  14.858  0.00  0.00    +0.000 HD
ENDBRANCH  17  21
ENDBRANCH  12  13
ENDBRANCH   1  12
TORSDOF 7
ENDMDL
