MODEL 1
REMARK VINA RESULT:      -8.1      0.000      0.000
REMARK  Name = 
REMARK  9 active torsions:
REMARK  status: ('A' for Active; 'I' for Inactive)
REMARK    1  A    between atoms: C_2  and  C_7
REMARK    2  A    between atoms: N_3  and  C_4
REMARK    3  A    between atoms: C_9  and  C_10
REMARK    4  A    between atoms: C_20  and  O_21
REMARK    5  A    between atoms: O_21  and  C_22
REMARK    6  A    between atoms: C_22  and  C_23
REMARK    7  A    between atoms: C_23  and  C_24
REMARK    8  A    between atoms: C_24  and  C_25
REMARK    9  A    between atoms: C_25  and  O_26
REMARK                            x       y       z     vdW  Elec       q    Type
REMARK                         _______ _______ _______ _____ _____    ______ ____
ROOT
ATOM      1  C   UNL     1       5.903   5.481  15.457  0.00  0.00    +0.000 C 
ATOM      2  C   UNL     1       4.799   4.862  15.897  0.00  0.00    +0.000 C 
ATOM      3  C   UNL     1       3.999   5.317  17.084  0.00  0.00    +0.000 C 
ATOM      4  C   UNL     1       4.412   6.751  17.443  0.00  0.00    +0.000 C 
ATOM      5  C   UNL     1       5.924   6.964  17.328  0.00  0.00    +0.000 C 
ATOM      6  O   UNL     1       6.421   6.631  16.021  0.00  0.00    +0.000 OA
ENDROOT
BRANCH   3   7
ATOM      7  C   UNL     1       4.100   4.334  18.234  0.00  0.00    +0.000 A 
ATOM      8  C   UNL     1       5.178   3.518  18.538  0.00  0.00    +0.000 A 
ATOM      9  N   UNL     1       4.921   2.865  19.708  0.00  0.00    +0.000 N 
ATOM     10  C   UNL     1       3.638   3.126  20.123  0.00  0.00    +0.000 A 
ATOM     11  C   UNL     1       2.949   2.635  21.235  0.00  0.00    +0.000 A 
ATOM     12  C   UNL     1       1.610   2.999  21.377  0.00  0.00    +0.000 A 
ATOM     13  C   UNL     1       1.002   3.850  20.457  0.00  0.00    +0.000 A 
ATOM     14  C   UNL     1       1.729   4.377  19.379  0.00  0.00    +0.000 A 
ATOM     15  C   UNL     1       3.078   4.010  19.199  0.00  0.00    +0.000 A 
ATOM     16  H   UNL     1       5.565   2.247  20.182  0.00  0.00    +0.000 HD
ENDBRANCH   3   7
BRANCH   1  18
ATOM     17  O   UNL     1       7.745   5.255  13.939  0.00  0.00    +0.000 OA
ATOM     18  C   UNL     1       6.633   4.877  14.286  0.00  0.00    +0.000 C 
ATOM     19  N   UNL     1       5.920   3.879  13.659  0.00  0.00    +0.000 N 
ATOM     20  H   UNL     1       5.011   3.640  14.036  0.00  0.00    +0.000 HD
BRANCH  19  21
ATOM     21  C   UNL     1       6.436   3.174  12.529  0.00  0.00    +0.000 C 
ATOM     22  C   UNL     1       5.560   2.285  11.693  0.00  0.00    +0.000 C 
ATOM     23  C   UNL     1       6.060   3.584  11.132  0.00  0.00    +0.000 C 
ENDBRANCH  19  21
ENDBRANCH   1  18
BRANCH   5  24
ATOM     24  O   UNL     1       6.618   6.279  18.373  0.00  0.00    +0.000 OA
BRANCH  24  25
ATOM     25  C   UNL     1       7.925   6.804  18.599  0.00  0.00    +0.000 C 
BRANCH  25  26
ATOM     26  C   UNL     1       8.060   8.178  17.947  0.00  0.00    +0.000 C 
BRANCH  26  27
ATOM     27  C   UNL     1       8.861   9.151  18.817  0.00  0.00    +0.000 C 
BRANCH  27  28
ATOM     28  C   UNL     1       8.889  10.560  18.241  0.00  0.00    +0.000 C 
BRANCH  28  29
ATOM     29  O   UNL     1       9.833  11.369  18.928  0.00  0.00    +0.000 OA
ATOM     30  H   UNL     1      10.301  10.798  19.562  0.00  0.00    +0.000 HD
ENDBRANCH  28  29
ENDBRANCH  27  28
ENDBRANCH  26  27
ENDBRANCH  25  26
ENDBRANCH  24  25
ENDBRANCH   5  24
TORSDOF 9
ENDMDL
MODEL 2
REMARK VINA RESULT:      -7.5      2.337      6.297
REMARK  Name = 
REMARK  9 active torsions:
REMARK  status: ('A' for Active; 'I' for Inactive)
REMARK    1  A    between atoms: C_2  and  C_7
REMARK    2  A    between atoms: N_3  and  C_4
REMARK    3  A    between atoms: C_9  and  C_10
REMARK    4  A    between atoms: C_20  and  O_21
REMARK    5  A    between atoms: O_21  and  C_22
REMARK    6  A    between atoms: C_22  and  C_23
REMARK    7  A    between atoms: C_23  and  C_24
REMARK    8  A    between atoms: C_24  and  C_25
REMARK    9  A    between atoms: C_25  and  O_26
REMARK                            x       y       z     vdW  Elec       q    Type
REMARK                         _______ _______ _______ _____ _____    ______ ____
ROOT
ATOM      1  C   UNL     1       7.445   7.384  17.515  0.00  0.00    +0.000 C 
ATOM      2  C   UNL     1       6.736   6.783  18.480  0.00  0.00    +0.000 C 
ATOM      3  C   UNL     1       6.297   5.346  18.428  0.00  0.00    +0.000 C 
ATOM      4  C   UNL     1       7.090   4.623  17.332  0.00  0.00    +0.000 C 
ATOM      5  C   UNL     1       7.265   5.485  16.078  0.00  0.00    +0.000 C 
ATOM      6  O   UNL     1       7.886   6.748  16.370  0.00  0.00    +0.000 OA
ENDROOT
BRANCH   3   7
ATOM      7  C   UNL     1       4.792   5.228  18.288  0.00  0.00    +0.000 A 
ATOM      8  C   UNL     1       3.889   6.265  18.115  0.00  0.00    +0.000 A 
ATOM      9  N   UNL     1       2.645   5.739  17.920  0.00  0.00    +0.000 N 
ATOM     10  C   UNL     1       2.676   4.377  18.094  0.00  0.00    +0.000 A 
ATOM     11  C   UNL     1       1.630   3.452  18.035  0.00  0.00    +0.000 A 
ATOM     12  C   UNL     1       1.926   2.124  18.339  0.00  0.00    +0.000 A 
ATOM     13  C   UNL     1       3.227   1.737  18.655  0.00  0.00    +0.000 A 
ATOM     14  C   UNL     1       4.272   2.672  18.653  0.00  0.00    +0.000 A 
ATOM     15  C   UNL     1       3.998   4.026  18.369  0.00  0.00    +0.000 A 
ATOM     16  H   UNL     1       1.813   6.274  17.717  0.00  0.00    +0.000 HD
ENDBRANCH   3   7
BRANCH   1  18
ATOM     17  O   UNL     1       7.272   9.711  16.967  0.00  0.00    +0.000 OA
ATOM     18  C   UNL     1       7.765   8.846  17.680  0.00  0.00    +0.000 C 
ATOM     19  N   UNL     1       8.662   9.093  18.697  0.00  0.00    +0.000 N 
ATOM     20  H   UNL     1       9.000   8.301  19.231  0.00  0.00    +0.000 HD
BRANCH  19  21
ATOM     21  C   UNL     1       9.094  10.415  19.021  0.00  0.00    +0.000 C 
ATOM     22  C   UNL     1       9.811  10.711  20.308  0.00  0.00    +0.000 C 
ATOM     23  C   UNL     1      10.556  10.768  19.006  0.00  0.00    +0.000 C 
ENDBRANCH  19  21
ENDBRANCH   1  18
BRANCH   5  24
ATOM     24  O   UNL     1       6.025   5.629  15.379  0.00  0.00    +0.000 OA
BRANCH  24  25
ATOM     25  C   UNL     1       5.497   4.380  14.937  0.00  0.00    +0.000 C 
BRANCH  25  26
ATOM     26  C   UNL     1       6.116   3.992  13.597  0.00  0.00    +0.000 C 
BRANCH  26  27
ATOM     27  C   UNL     1       5.053   3.622  12.559  0.00  0.00    +0.000 C 
BRANCH  27  28
ATOM     28  C   UNL     1       5.502   2.491  11.642  0.00  0.00    +0.000 C 
BRANCH  28  29
ATOM     29  O   UNL     1       6.893   2.246  11.788  0.00  0.00    +0.000 OA
ATOM     30  H   UNL     1       7.213   2.799  12.521  0.00  0.00    +0.000 HD
ENDBRANCH  28  29
ENDBRANCH  27  28
ENDBRANCH  26  27
ENDBRANCH  25  26
ENDBRANCH  24  25
ENDBRANCH   5  24
TORSDOF 9
ENDMDL
MODEL 3
REMARK VINA RESULT:      -7.5      2.958      5.597
REMARK  Name = 
REMARK  9 active torsions:
REMARK  status: ('A' for Active; 'I' for Inactive)
REMARK    1  A    between atoms: C_2  and  C_7
REMARK    2  A    between atoms: N_3  and  C_4
REMARK    3  A    between atoms: C_9  and  C_10
REMARK    4  A    between atoms: C_20  and  O_21
REMARK    5  A    between atoms: O_21  and  C_22
REMARK    6  A    between atoms: C_22  and  C_23
REMARK    7  A    between atoms: C_23  and  C_24
REMARK    8  A    between atoms: C_24  and  C_25
REMARK    9  A    between atoms: C_25  and  O_26
REMARK                            x       y       z     vdW  Elec       q    Type
REMARK                         _______ _______ _______ _____ _____    ______ ____
ROOT
ATOM      1  C   UNL     1       5.119   4.345  16.704  0.00  0.00    +0.000 C 
ATOM      2  C   UNL     1       5.251   5.268  17.666  0.00  0.00    +0.000 C 
ATOM      3  C   UNL     1       4.899   5.033  19.108  0.00  0.00    +0.000 C 
ATOM      4  C   UNL     1       4.749   3.523  19.344  0.00  0.00    +0.000 C 
ATOM      5  C   UNL     1       4.027   2.826  18.187  0.00  0.00    +0.000 C 
ATOM      6  O   UNL     1       4.675   3.055  16.926  0.00  0.00    +0.000 OA
ENDROOT
BRANCH   3   7
ATOM      7  C   UNL     1       3.695   5.852  19.530  0.00  0.00    +0.000 A 
ATOM      8  C   UNL     1       2.863   5.610  20.611  0.00  0.00    +0.000 A 
ATOM      9  N   UNL     1       1.967   6.633  20.716  0.00  0.00    +0.000 N 
ATOM     10  C   UNL     1       2.096   7.485  19.646  0.00  0.00    +0.000 A 
ATOM     11  C   UNL     1       1.358   8.628  19.329  0.00  0.00    +0.000 A 
ATOM     12  C   UNL     1       1.645   9.268  18.124  0.00  0.00    +0.000 A 
ATOM     13  C   UNL     1       2.657   8.798  17.290  0.00  0.00    +0.000 A 
ATOM     14  C   UNL     1       3.424   7.681  17.655  0.00  0.00    +0.000 A 
ATOM     15  C   UNL     1       3.142   7.002  18.858  0.00  0.00    +0.000 A 
ATOM     16  H   UNL     1       1.279   6.731  21.449  0.00  0.00    +0.000 HD
ENDBRANCH   3   7
BRANCH   1  18
ATOM     17  O   UNL     1       5.438   5.908  14.915  0.00  0.00    +0.000 OA
ATOM     18  C   UNL     1       5.460   4.743  15.292  0.00  0.00    +0.000 C 
ATOM     19  N   UNL     1       5.785   3.671  14.490  0.00  0.00    +0.000 N 
ATOM     20  H   UNL     1       5.780   2.749  14.909  0.00  0.00    +0.000 HD
BRANCH  19  21
ATOM     21  C   UNL     1       6.144   3.834  13.117  0.00  0.00    +0.000 C 
ATOM     22  C   UNL     1       6.225   2.659  12.184  0.00  0.00    +0.000 C 
ATOM     23  C   UNL     1       5.118   3.660  12.030  0.00  0.00    +0.000 C 
ENDBRANCH  19  21
ENDBRANCH   1  18
BRANCH   5  24
ATOM     24  O   UNL     1       2.640   3.174  18.165  0.00  0.00    +0.000 OA
BRANCH  24  25
ATOM     25  C   UNL     1       1.788   2.047  18.365  0.00  0.00    +0.000 C 
BRANCH  25  26
ATOM     26  C   UNL     1       0.600   2.434  19.241  0.00  0.00    +0.000 C 
BRANCH  26  27
ATOM     27  C   UNL     1       1.027   3.274  20.450  0.00  0.00    +0.000 C 
BRANCH  27  28
ATOM     28  C   UNL     1       1.315   2.422  21.679  0.00  0.00    +0.000 C 
BRANCH  28  29
ATOM     29  O   UNL     1       2.689   2.488  22.029  0.00  0.00    +0.000 OA
ATOM     30  H   UNL     1       2.741   2.768  22.959  0.00  0.00    +0.000 HD
ENDBRANCH  28  29
ENDBRANCH  27  28
ENDBRANCH  26  27
ENDBRANCH  25  26
ENDBRANCH  24  25
ENDBRANCH   5  24
TORSDOF 9
ENDMDL
MODEL 4
REMARK VINA RESULT:      -7.3      3.988      7.909
REMARK  Name = 
REMARK  9 active torsions:
REMARK  status: ('A' for Active; 'I' for Inactive)
REMARK    1  A    between atoms: C_2  and  C_7
REMARK    2  A    between atoms: N_3  and  C_4
REMARK    3  A    between atoms: C_9  and  C_10
REMARK    4  A    between atoms: C_20  and  O_21
REMARK    5  A    between atoms: O_21  and  C_22
REMARK    6  A    between atoms: C_22  and  C_23
REMARK    7  A    between atoms: C_23  and  C_24
REMARK    8  A    between atoms: C_24  and  C_25
REMARK    9  A    between atoms: C_25  and  O_26
REMARK                            x       y       z     vdW  Elec       q    Type
REMARK                         _______ _______ _______ _____ _____    ______ ____
ROOT
ATOM      1  C   UNL     1       1.645   7.196  20.171  0.00  0.00    +0.000 C 
ATOM      2  C   UNL     1       2.398   7.269  19.065  0.00  0.00    +0.000 C 
ATOM      3  C   UNL     1       2.731   6.089  18.197  0.00  0.00    +0.000 C 
ATOM      4  C   UNL     1       1.790   4.929  18.552  0.00  0.00    +0.000 C 
ATOM      5  C   UNL     1       1.559   4.812  20.062  0.00  0.00    +0.000 C 
ATOM      6  O   UNL     1       1.057   6.033  20.629  0.00  0.00    +0.000 OA
ENDROOT
BRANCH   3   7
ATOM      7  C   UNL     1       4.204   5.739  18.270  0.00  0.00    +0.000 A 
ATOM      8  C   UNL     1       5.024   5.822  19.384  0.00  0.00    +0.000 A 
ATOM      9  N   UNL     1       6.250   5.314  19.069  0.00  0.00    +0.000 N 
ATOM     10  C   UNL     1       6.308   5.019  17.729  0.00  0.00    +0.000 A 
ATOM     11  C   UNL     1       7.377   4.526  16.975  0.00  0.00    +0.000 A 
ATOM     12  C   UNL     1       7.190   4.394  15.600  0.00  0.00    +0.000 A 
ATOM     13  C   UNL     1       5.967   4.711  15.013  0.00  0.00    +0.000 A 
ATOM     14  C   UNL     1       4.889   5.151  15.796  0.00  0.00    +0.000 A 
ATOM     15  C   UNL     1       5.056   5.313  17.186  0.00  0.00    +0.000 A 
ATOM     16  H   UNL     1       7.019   5.209  19.715  0.00  0.00    +0.000 HD
ENDBRANCH   3   7
BRANCH   1  18
ATOM     17  O   UNL     1       1.653   8.507  22.178  0.00  0.00    +0.000 OA
ATOM     18  C   UNL     1       1.443   8.455  20.972  0.00  0.00    +0.000 C 
ATOM     19  N   UNL     1       0.999   9.515  20.213  0.00  0.00    +0.000 N 
ATOM     20  H   UNL     1       0.867   9.363  19.220  0.00  0.00    +0.000 HD
BRANCH  19  21
ATOM     21  C   UNL     1       0.749  10.802  20.781  0.00  0.00    +0.000 C 
ATOM     22  C   UNL     1       0.972  12.062  19.995  0.00  0.00    +0.000 C 
ATOM     23  C   UNL     1      -0.425  11.626  20.327  0.00  0.00    +0.000 C 
ENDBRANCH  19  21
ENDBRANCH   1  18
BRANCH   5  24
ATOM     24  O   UNL     1       2.735   4.339  20.724  0.00  0.00    +0.000 OA
BRANCH  24  25
ATOM     25  C   UNL     1       2.833   2.916  20.717  0.00  0.00    +0.000 C 
BRANCH  25  26
ATOM     26  C   UNL     1       4.166   2.484  20.111  0.00  0.00    +0.000 C 
BRANCH  26  27
ATOM     27  C   UNL     1       3.981   1.455  18.991  0.00  0.00    +0.000 C 
BRANCH  27  28
ATOM     28  C   UNL     1       3.394   2.069  17.727  0.00  0.00    +0.000 C 
BRANCH  28  29
ATOM     29  O   UNL     1       2.046   1.662  17.547  0.00  0.00    +0.000 OA
ATOM     30  H   UNL     1       1.736   1.292  18.392  0.00  0.00    +0.000 HD
ENDBRANCH  28  29
ENDBRANCH  27  28
ENDBRANCH  26  27
ENDBRANCH  25  26
ENDBRANCH  24  25
ENDBRANCH   5  24
TORSDOF 9
ENDMDL
MODEL 5
REMARK VINA RESULT:      -7.2      1.085      1.218
REMARK  Name = 
REMARK  9 active torsions:
REMARK  status: ('A' for Active; 'I' for Inactive)
REMARK    1  A    between atoms: C_2  and  C_7
REMARK    2  A    between atoms: N_3  and  C_4
REMARK    3  A    between atoms: C_9  and  C_10
REMARK    4  A    between atoms: C_20  and  O_21
REMARK    5  A    between atoms: O_21  and  C_22
REMARK    6  A    between atoms: C_22  and  C_23
REMARK    7  A    between atoms: C_23  and  C_24
REMARK    8  A    between atoms: C_24  and  C_25
REMARK    9  A    between atoms: C_25  and  O_26
REMARK                            x       y       z     vdW  Elec       q    Type
REMARK                         _______ _______ _______ _____ _____    ______ ____
ROOT
ATOM      1  C   UNL     1       5.622   5.273  15.590  0.00  0.00    +0.000 C 
ATOM      2  C   UNL     1       4.537   4.653  16.073  0.00  0.00    +0.000 C 
ATOM      3  C   UNL     1       3.783   5.108  17.291  0.00  0.00    +0.000 C 
ATOM      4  C   UNL     1       4.208   6.542  17.633  0.00  0.00    +0.000 C 
ATOM      5  C   UNL     1       5.715   6.756  17.459  0.00  0.00    +0.000 C 
ATOM      6  O   UNL     1       6.161   6.423  16.135  0.00  0.00    +0.000 OA
ENDROOT
BRANCH   3   7
ATOM      7  C   UNL     1       3.929   4.125  18.436  0.00  0.00    +0.000 A 
ATOM      8  C   UNL     1       5.027   3.326  18.710  0.00  0.00    +0.000 A 
ATOM      9  N   UNL     1       4.811   2.667  19.886  0.00  0.00    +0.000 N 
ATOM     10  C   UNL     1       3.535   2.906  20.333  0.00  0.00    +0.000 A 
ATOM     11  C   UNL     1       2.883   2.402  21.461  0.00  0.00    +0.000 A 
ATOM     12  C   UNL     1       1.543   2.744  21.638  0.00  0.00    +0.000 A 
ATOM     13  C   UNL     1       0.897   3.587  20.736  0.00  0.00    +0.000 A 
ATOM     14  C   UNL     1       1.588   4.128  19.641  0.00  0.00    +0.000 A 
ATOM     15  C   UNL     1       2.937   3.782  19.426  0.00  0.00    +0.000 A 
ATOM     16  H   UNL     1       5.476   2.058  20.342  0.00  0.00    +0.000 HD
ENDBRANCH   3   7
BRANCH   1  18
ATOM     17  O   UNL     1       6.044   3.545  13.984  0.00  0.00    +0.000 OA
ATOM     18  C   UNL     1       6.306   4.670  14.392  0.00  0.00    +0.000 C 
ATOM     19  N   UNL     1       7.242   5.505  13.824  0.00  0.00    +0.000 N 
ATOM     20  H   UNL     1       7.372   6.420  14.238  0.00  0.00    +0.000 HD
BRANCH  19  21
ATOM     21  C   UNL     1       8.000   5.124  12.674  0.00  0.00    +0.000 C 
ATOM     22  C   UNL     1       7.334   4.821  11.363  0.00  0.00    +0.000 C 
ATOM     23  C   UNL     1       8.157   6.067  11.513  0.00  0.00    +0.000 C 
ENDBRANCH  19  21
ENDBRANCH   1  18
BRANCH   5  24
ATOM     24  O   UNL     1       6.450   6.071  18.477  0.00  0.00    +0.000 OA
BRANCH  24  25
ATOM     25  C   UNL     1       7.815   6.482  18.538  0.00  0.00    +0.000 C 
BRANCH  25  26
ATOM     26  C   UNL     1       7.974   7.870  17.925  0.00  0.00    +0.000 C 
BRANCH  26  27
ATOM     27  C   UNL     1       8.754   8.817  18.842  0.00  0.00    +0.000 C 
BRANCH  27  28
ATOM     28  C   UNL     1       8.758  10.251  18.330  0.00  0.00    +0.000 C 
BRANCH  28  29
ATOM     29  O   UNL     1       9.223  11.144  19.332  0.00  0.00    +0.000 OA
ATOM     30  H   UNL     1       8.667  11.941  19.294  0.00  0.00    +0.000 HD
ENDBRANCH  28  29
ENDBRANCH  27  28
ENDBRANCH  26  27
ENDBRANCH  25  26
ENDBRANCH  24  25
ENDBRANCH   5  24
TORSDOF 9
ENDMDL
MODEL 6
REMARK VINA RESULT:      -7.1      2.168      6.278
REMARK  Name = 
REMARK  9 active torsions:
REMARK  status: ('A' for Active; 'I' for Inactive)
REMARK    1  A    between atoms: C_2  and  C_7
REMARK    2  A    between atoms: N_3  and  C_4
REMARK    3  A    between atoms: C_9  and  C_10
REMARK    4  A    between atoms: C_20  and  O_21
REMARK    5  A    between atoms: O_21  and  C_22
REMARK    6  A    between atoms: C_22  and  C_23
REMARK    7  A    between atoms: C_23  and  C_24
REMARK    8  A    between atoms: C_24  and  C_25
REMARK    9  A    between atoms: C_25  and  O_26
REMARK                            x       y       z     vdW  Elec       q    Type
REMARK                         _______ _______ _______ _____ _____    ______ ____
ROOT
ATOM      1  C   UNL     1       7.648   7.205  17.560  0.00  0.00    +0.000 C 
ATOM      2  C   UNL     1       7.287   6.466  18.618  0.00  0.00    +0.000 C 
ATOM      3  C   UNL     1       7.024   4.987  18.559  0.00  0.00    +0.000 C 
ATOM      4  C   UNL     1       7.591   4.433  17.245  0.00  0.00    +0.000 C 
ATOM      5  C   UNL     1       7.335   5.372  16.062  0.00  0.00    +0.000 C 
ATOM      6  O   UNL     1       7.854   6.691  16.294  0.00  0.00    +0.000 OA
ENDROOT
BRANCH   3   7
ATOM      7  C   UNL     1       5.559   4.672  18.786  0.00  0.00    +0.000 A 
ATOM      8  C   UNL     1       5.024   3.465  19.208  0.00  0.00    +0.000 A 
ATOM      9  N   UNL     1       3.682   3.618  19.398  0.00  0.00    +0.000 N 
ATOM     10  C   UNL     1       3.287   4.866  18.981  0.00  0.00    +0.000 A 
ATOM     11  C   UNL     1       2.007   5.426  18.951  0.00  0.00    +0.000 A 
ATOM     12  C   UNL     1       1.871   6.697  18.394  0.00  0.00    +0.000 A 
ATOM     13  C   UNL     1       2.983   7.389  17.919  0.00  0.00    +0.000 A 
ATOM     14  C   UNL     1       4.267   6.831  18.011  0.00  0.00    +0.000 A 
ATOM     15  C   UNL     1       4.431   5.539  18.551  0.00  0.00    +0.000 A 
ATOM     16  H   UNL     1       3.060   2.906  19.753  0.00  0.00    +0.000 HD
ENDBRANCH   3   7
BRANCH   1  18
ATOM     17  O   UNL     1       7.193   9.516  17.114  0.00  0.00    +0.000 OA
ATOM     18  C   UNL     1       7.823   8.687  17.760  0.00  0.00    +0.000 C 
ATOM     19  N   UNL     1       8.756   8.997  18.725  0.00  0.00    +0.000 N 
ATOM     20  H   UNL     1       9.212   8.231  19.205  0.00  0.00    +0.000 HD
BRANCH  19  21
ATOM     21  C   UNL     1       9.068  10.347  19.071  0.00  0.00    +0.000 C 
ATOM     22  C   UNL     1      10.351  10.702  19.766  0.00  0.00    +0.000 C 
ATOM     23  C   UNL     1      10.142  11.099  18.334  0.00  0.00    +0.000 C 
ENDBRANCH  19  21
ENDBRANCH   1  18
BRANCH   5  24
ATOM     24  O   UNL     1       5.950   5.379  15.705  0.00  0.00    +0.000 OA
BRANCH  24  25
ATOM     25  C   UNL     1       5.521   4.140  15.145  0.00  0.00    +0.000 C 
BRANCH  25  26
ATOM     26  C   UNL     1       6.126   3.953  13.757  0.00  0.00    +0.000 C 
BRANCH  26  27
ATOM     27  C   UNL     1       5.057   3.661  12.698  0.00  0.00    +0.000 C 
BRANCH  27  28
ATOM     28  C   UNL     1       5.514   2.627  11.678  0.00  0.00    +0.000 C 
BRANCH  28  29
ATOM     29  O   UNL     1       6.873   2.275  11.891  0.00  0.00    +0.000 OA
ATOM     30  H   UNL     1       6.885   1.485  12.458  0.00  0.00    +0.000 HD
ENDBRANCH  28  29
ENDBRANCH  27  28
ENDBRANCH  26  27
ENDBRANCH  25  26
ENDBRANCH  24  25
ENDBRANCH   5  24
TORSDOF 9
ENDMDL
MODEL 7
REMARK VINA RESULT:      -7.1      3.912      8.137
REMARK  Name = 
REMARK  9 active torsions:
REMARK  status: ('A' for Active; 'I' for Inactive)
REMARK    1  A    between atoms: C_2  and  C_7
REMARK    2  A    between atoms: N_3  and  C_4
REMARK    3  A    between atoms: C_9  and  C_10
REMARK    4  A    between atoms: C_20  and  O_21
REMARK    5  A    between atoms: O_21  and  C_22
REMARK    6  A    between atoms: C_22  and  C_23
REMARK    7  A    between atoms: C_23  and  C_24
REMARK    8  A    between atoms: C_24  and  C_25
REMARK    9  A    between atoms: C_25  and  O_26
REMARK                            x       y       z     vdW  Elec       q    Type
REMARK                         _______ _______ _______ _____ _____    ______ ____
ROOT
ATOM      1  C   UNL     1       1.554   7.305  19.886  0.00  0.00    +0.000 C 
ATOM      2  C   UNL     1       2.312   7.180  18.788  0.00  0.00    +0.000 C 
ATOM      3  C   UNL     1       2.646   5.864  18.144  0.00  0.00    +0.000 C 
ATOM      4  C   UNL     1       1.703   4.786  18.696  0.00  0.00    +0.000 C 
ATOM      5  C   UNL     1       1.466   4.940  20.202  0.00  0.00    +0.000 C 
ATOM      6  O   UNL     1       0.963   6.242  20.542  0.00  0.00    +0.000 OA
ENDROOT
BRANCH   3   7
ATOM      7  C   UNL     1       4.119   5.533  18.284  0.00  0.00    +0.000 A 
ATOM      8  C   UNL     1       4.861   5.520  19.455  0.00  0.00    +0.000 A 
ATOM      9  N   UNL     1       6.117   5.065  19.176  0.00  0.00    +0.000 N 
ATOM     10  C   UNL     1       6.270   4.903  17.821  0.00  0.00    +0.000 A 
ATOM     11  C   UNL     1       7.397   4.503  17.099  0.00  0.00    +0.000 A 
ATOM     12  C   UNL     1       7.306   4.504  15.707  0.00  0.00    +0.000 A 
ATOM     13  C   UNL     1       6.117   4.857  15.071  0.00  0.00    +0.000 A 
ATOM     14  C   UNL     1       4.980   5.200  15.818  0.00  0.00    +0.000 A 
ATOM     15  C   UNL     1       5.051   5.229  17.225  0.00  0.00    +0.000 A 
ATOM     16  H   UNL     1       6.843   4.909  19.861  0.00  0.00    +0.000 HD
ENDBRANCH   3   7
BRANCH   1  18
ATOM     17  O   UNL     1       1.667   9.699  19.838  0.00  0.00    +0.000 OA
ATOM     18  C   UNL     1       1.350   8.686  20.450  0.00  0.00    +0.000 C 
ATOM     19  N   UNL     1       0.785   8.681  21.707  0.00  0.00    +0.000 N 
ATOM     20  H   UNL     1       0.554   7.784  22.117  0.00  0.00    +0.000 HD
BRANCH  19  21
ATOM     21  C   UNL     1       0.504   9.889  22.416  0.00  0.00    +0.000 C 
ATOM     22  C   UNL     1      -0.643  10.777  22.027  0.00  0.00    +0.000 C 
ATOM     23  C   UNL     1      -0.705   9.992  23.305  0.00  0.00    +0.000 C 
ENDBRANCH  19  21
ENDBRANCH   1  18
BRANCH   5  24
ATOM     24  O   UNL     1       2.639   4.592  20.942  0.00  0.00    +0.000 OA
BRANCH  24  25
ATOM     25  C   UNL     1       2.542   3.305  21.550  0.00  0.00    +0.000 C 
BRANCH  25  26
ATOM     26  C   UNL     1       2.500   2.219  20.479  0.00  0.00    +0.000 C 
BRANCH  26  27
ATOM     27  C   UNL     1       3.827   2.108  19.721  0.00  0.00    +0.000 C 
BRANCH  27  28
ATOM     28  C   UNL     1       3.644   1.610  18.294  0.00  0.00    +0.000 C 
BRANCH  28  29
ATOM     29  O   UNL     1       2.266   1.556  17.951  0.00  0.00    +0.000 OA
ATOM     30  H   UNL     1       1.759   1.536  18.781  0.00  0.00    +0.000 HD
ENDBRANCH  28  29
ENDBRANCH  27  28
ENDBRANCH  26  27
ENDBRANCH  25  26
ENDBRANCH  24  25
ENDBRANCH   5  24
TORSDOF 9
ENDMDL
MODEL 8
REMARK VINA RESULT:      -7.0      2.946      5.358
REMARK  Name = 
REMARK  9 active torsions:
REMARK  status: ('A' for Active; 'I' for Inactive)
REMARK    1  A    between atoms: C_2  and  C_7
REMARK    2  A    between atoms: N_3  and  C_4
REMARK    3  A    between atoms: C_9  and  C_10
REMARK    4  A    between atoms: C_20  and  O_21
REMARK    5  A    between atoms: O_21  and  C_22
REMARK    6  A    between atoms: C_22  and  C_23
REMARK    7  A    between atoms: C_23  and  C_24
REMARK    8  A    between atoms: C_24  and  C_25
REMARK    9  A    between atoms: C_25  and  O_26
REMARK                            x       y       z     vdW  Elec       q    Type
REMARK                         _______ _______ _______ _____ _____    ______ ____
ROOT
ATOM      1  C   UNL     1       5.417   6.669  17.289  0.00  0.00    +0.000 C 
ATOM      2  C   UNL     1       5.229   5.347  17.184  0.00  0.00    +0.000 C 
ATOM      3  C   UNL     1       3.910   4.666  17.417  0.00  0.00    +0.000 C 
ATOM      4  C   UNL     1       2.796   5.722  17.409  0.00  0.00    +0.000 C 
ATOM      5  C   UNL     1       3.209   7.005  18.134  0.00  0.00    +0.000 C 
ATOM      6  O   UNL     1       4.415   7.570  17.594  0.00  0.00    +0.000 OA
ENDROOT
BRANCH   3   7
ATOM      7  C   UNL     1       3.940   3.803  18.663  0.00  0.00    +0.000 A 
ATOM      8  C   UNL     1       5.033   3.123  19.177  0.00  0.00    +0.000 A 
ATOM      9  N   UNL     1       4.680   2.555  20.366  0.00  0.00    +0.000 N 
ATOM     10  C   UNL     1       3.337   2.729  20.592  0.00  0.00    +0.000 A 
ATOM     11  C   UNL     1       2.551   2.276  21.655  0.00  0.00    +0.000 A 
ATOM     12  C   UNL     1       1.180   2.523  21.595  0.00  0.00    +0.000 A 
ATOM     13  C   UNL     1       0.628   3.228  20.527  0.00  0.00    +0.000 A 
ATOM     14  C   UNL     1       1.444   3.724  19.499  0.00  0.00    +0.000 A 
ATOM     15  C   UNL     1       2.831   3.471  19.523  0.00  0.00    +0.000 A 
ATOM     16  H   UNL     1       5.304   2.045  20.975  0.00  0.00    +0.000 HD
ENDBRANCH   3   7
BRANCH   1  18
ATOM     17  O   UNL     1       7.609   6.673  16.319  0.00  0.00    +0.000 OA
ATOM     18  C   UNL     1       6.809   7.203  17.080  0.00  0.00    +0.000 C 
ATOM     19  N   UNL     1       7.078   8.327  17.831  0.00  0.00    +0.000 N 
ATOM     20  H   UNL     1       6.339   8.688  18.422  0.00  0.00    +0.000 HD
BRANCH  19  21
ATOM     21  C   UNL     1       8.341   8.992  17.774  0.00  0.00    +0.000 C 
ATOM     22  C   UNL     1       8.452  10.479  17.954  0.00  0.00    +0.000 C 
ATOM     23  C   UNL     1       8.966   9.556  19.021  0.00  0.00    +0.000 C 
ENDBRANCH  19  21
ENDBRANCH   1  18
BRANCH   5  24
ATOM     24  O   UNL     1       3.286   6.793  19.547  0.00  0.00    +0.000 OA
BRANCH  24  25
ATOM     25  C   UNL     1       2.017   6.911  20.189  0.00  0.00    +0.000 C 
BRANCH  25  26
ATOM     26  C   UNL     1       1.613   8.380  20.286  0.00  0.00    +0.000 C 
BRANCH  26  27
ATOM     27  C   UNL     1       1.206   8.770  21.711  0.00  0.00    +0.000 C 
BRANCH  27  28
ATOM     28  C   UNL     1      -0.305   8.825  21.890  0.00  0.00    +0.000 C 
BRANCH  28  29
ATOM     29  O   UNL     1      -0.643   9.154  23.230  0.00  0.00    +0.000 OA
ATOM     30  H   UNL     1      -0.379  10.079  23.379  0.00  0.00    +0.000 HD
ENDBRANCH  28  29
ENDBRANCH  27  28
ENDBRANCH  26  27
ENDBRANCH  25  26
ENDBRANCH  24  25
ENDBRANCH   5  24
TORSDOF 9
ENDMDL
MODEL 9
REMARK VINA RESULT:      -7.0      2.223      5.922
REMARK  Name = 
REMARK  9 active torsions:
REMARK  status: ('A' for Active; 'I' for Inactive)
REMARK    1  A    between atoms: C_2  and  C_7
REMARK    2  A    between atoms: N_3  and  C_4
REMARK    3  A    between atoms: C_9  and  C_10
REMARK    4  A    between atoms: C_20  and  O_21
REMARK    5  A    between atoms: O_21  and  C_22
REMARK    6  A    between atoms: C_22  and  C_23
REMARK    7  A    between atoms: C_23  and  C_24
REMARK    8  A    between atoms: C_24  and  C_25
REMARK    9  A    between atoms: C_25  and  O_26
REMARK                            x       y       z     vdW  Elec       q    Type
REMARK                         _______ _______ _______ _____ _____    ______ ____
ROOT
ATOM      1  C   UNL     1       7.526   7.188  17.699  0.00  0.00    +0.000 C 
ATOM      2  C   UNL     1       6.745   6.686  18.665  0.00  0.00    +0.000 C 
ATOM      3  C   UNL     1       6.200   5.285  18.660  0.00  0.00    +0.000 C 
ATOM      4  C   UNL     1       6.968   4.456  17.622  0.00  0.00    +0.000 C 
ATOM      5  C   UNL     1       7.244   5.246  16.339  0.00  0.00    +0.000 C 
ATOM      6  O   UNL     1       7.950   6.471  16.598  0.00  0.00    +0.000 OA
ENDROOT
BRANCH   3   7
ATOM      7  C   UNL     1       4.695   5.274  18.477  0.00  0.00    +0.000 A 
ATOM      8  C   UNL     1       3.872   6.372  18.288  0.00  0.00    +0.000 A 
ATOM      9  N   UNL     1       2.601   5.937  18.052  0.00  0.00    +0.000 N 
ATOM     10  C   UNL     1       2.532   4.575  18.214  0.00  0.00    +0.000 A 
ATOM     11  C   UNL     1       1.426   3.726  18.116  0.00  0.00    +0.000 A 
ATOM     12  C   UNL     1       1.619   2.378  18.415  0.00  0.00    +0.000 A 
ATOM     13  C   UNL     1       2.880   1.898  18.763  0.00  0.00    +0.000 A 
ATOM     14  C   UNL     1       3.988   2.758  18.800  0.00  0.00    +0.000 A 
ATOM     15  C   UNL     1       3.818   4.129  18.523  0.00  0.00    +0.000 A 
ATOM     16  H   UNL     1       1.814   6.531  17.832  0.00  0.00    +0.000 HD
ENDBRANCH   3   7
BRANCH   1  18
ATOM     17  O   UNL     1       7.511   9.504  17.079  0.00  0.00    +0.000 OA
ATOM     18  C   UNL     1       7.952   8.628  17.813  0.00  0.00    +0.000 C 
ATOM     19  N   UNL     1       8.878   8.843  18.811  0.00  0.00    +0.000 N 
ATOM     20  H   UNL     1       9.167   8.046  19.366  0.00  0.00    +0.000 HD
BRANCH  19  21
ATOM     21  C   UNL     1       9.408  10.140  19.087  0.00  0.00    +0.000 C 
ATOM     22  C   UNL     1       8.526  11.265  19.548  0.00  0.00    +0.000 C 
ATOM     23  C   UNL     1       9.506  10.644  20.501  0.00  0.00    +0.000 C 
ENDBRANCH  19  21
ENDBRANCH   1  18
BRANCH   5  24
ATOM     24  O   UNL     1       6.040   5.451  15.595  0.00  0.00    +0.000 OA
BRANCH  24  25
ATOM     25  C   UNL     1       5.495   4.234  15.089  0.00  0.00    +0.000 C 
BRANCH  25  26
ATOM     26  C   UNL     1       5.285   4.340  13.581  0.00  0.00    +0.000 C 
BRANCH  26  27
ATOM     27  C   UNL     1       6.349   3.565  12.797  0.00  0.00    +0.000 C 
BRANCH  27  28
ATOM     28  C   UNL     1       7.353   4.483  12.113  0.00  0.00    +0.000 C 
BRANCH  28  29
ATOM     29  O   UNL     1       7.799   5.496  13.003  0.00  0.00    +0.000 OA
ATOM     30  H   UNL     1       8.748   5.351  13.160  0.00  0.00    +0.000 HD
ENDBRANCH  28  29
ENDBRANCH  27  28
ENDBRANCH  26  27
ENDBRANCH  25  26
ENDBRANCH  24  25
ENDBRANCH   5  24
TORSDOF 9
ENDMDL
