MODEL 1
REMARK VINA RESULT:      -8.2      0.000      0.000
REMARK  Name = 
REMARK  8 active torsions:
REMARK  status: ('A' for Active; 'I' for Inactive)
REMARK    1  A    between atoms: C_1  and  C_2
REMARK    2  A    between atoms: C_4  and  O_5
REMARK    3  A    between atoms: C_6  and  C_7
REMARK    4  A    between atoms: C_10  and  C_11
REMARK    5  A    between atoms: C_11  and  C_12
REMARK    6  A    between atoms: C_11  and  C_13
REMARK    7  A    between atoms: C_11  and  C_14
REMARK    8  A    between atoms: C_14  and  N_15
REMARK                            x       y       z     vdW  Elec       q    Type
REMARK                         _______ _______ _______ _____ _____    ______ ____
ROOT
ATOM      1  C   UNL     1       6.280   3.680  15.555  0.00  0.00    +0.000 C 
ATOM      2  C   UNL     1       5.270   4.540  16.261  0.00  0.00    +0.000 A 
ATOM      3  C   UNL     1       5.282   5.905  16.016  0.00  0.00    +0.000 A 
ATOM      4  C   UNL     1       4.415   6.748  16.708  0.00  0.00    +0.000 A 
ATOM      5  C   UNL     1       3.447   6.280  17.645  0.00  0.00    +0.000 A 
ATOM      6  C   UNL     1       3.383   4.867  17.857  0.00  0.00    +0.000 A 
ATOM      7  C   UNL     1       4.338   4.032  17.189  0.00  0.00    +0.000 A 
ATOM      8  N   UNL     1       4.420   2.655  17.480  0.00  0.00    +0.000 N 
ATOM      9  C   UNL     1       3.673   2.018  18.432  0.00  0.00    +0.000 A 
ATOM     10  O   UNL     1       3.891   0.822  18.644  0.00  0.00    +0.000 OA
ATOM     11  C   UNL     1       2.683   2.830  19.061  0.00  0.00    +0.000 A 
ATOM     12  S   UNL     1       1.676   2.183  20.276  0.00  0.00    +0.000 S 
ATOM     13  C   UNL     1       0.774   3.623  20.355  0.00  0.00    +0.000 A 
ATOM     14  C   UNL     1       1.201   4.541  19.413  0.00  0.00    +0.000 A 
ATOM     15  C   UNL     1       2.435   4.164  18.776  0.00  0.00    +0.000 A 
ATOM     16  H   UNL     1       5.110   2.067  17.043  0.00  0.00    +0.000 HD
ENDROOT
BRANCH   5  17
ATOM     17  C   UNL     1       2.631   7.294  18.374  0.00  0.00    +0.000 A 
ATOM     18  C   UNL     1       2.490   7.259  19.770  0.00  0.00    +0.000 A 
ATOM     19  C   UNL     1       1.675   8.162  20.457  0.00  0.00    +0.000 A 
ATOM     20  C   UNL     1       1.059   9.231  19.798  0.00  0.00    +0.000 A 
ATOM     21  C   UNL     1       1.201   9.277  18.404  0.00  0.00    +0.000 A 
ATOM     22  C   UNL     1       1.901   8.283  17.709  0.00  0.00    +0.000 A 
BRANCH  20  23
ATOM     23  C   UNL     1       0.179  10.253  20.546  0.00  0.00    +0.000 C 
ATOM     24  C   UNL     1       0.990  11.526  20.895  0.00  0.00    +0.000 C 
ATOM     25  C   UNL     1      -0.974  10.630  19.594  0.00  0.00    +0.000 C 
BRANCH  23  26
ATOM     26  C   UNL     1      -0.404   9.657  21.873  0.00  0.00    +0.000 C 
BRANCH  26  27
ATOM     27  N   UNL     1      -0.089  10.404  23.096  0.00  0.00    +0.000 NA
ATOM     28  H   UNL     1       0.562  11.153  22.883  0.00  0.00    +0.000 HD
ATOM     29  H   UNL     1       0.398   9.783  23.741  0.00  0.00    +0.000 HD
ENDBRANCH  26  27
ENDBRANCH  23  26
ENDBRANCH  20  23
ENDBRANCH   5  17
BRANCH   4  30
ATOM     30  O   UNL     1       4.568   8.096  16.473  0.00  0.00    +0.000 OA
ATOM     31  H   UNL     1       3.789   8.582  16.786  0.00  0.00    +0.000 HD
ENDBRANCH   4  30
TORSDOF 5
ENDMDL
MODEL 2
REMARK VINA RESULT:      -7.9      0.794      1.479
REMARK  Name = 
REMARK  8 active torsions:
REMARK  status: ('A' for Active; 'I' for Inactive)
REMARK    1  A    between atoms: C_1  and  C_2
REMARK    2  A    between atoms: C_4  and  O_5
REMARK    3  A    between atoms: C_6  and  C_7
REMARK    4  A    between atoms: C_10  and  C_11
REMARK    5  A    between atoms: C_11  and  C_12
REMARK    6  A    between atoms: C_11  and  C_13
REMARK    7  A    between atoms: C_11  and  C_14
REMARK    8  A    between atoms: C_14  and  N_15
REMARK                            x       y       z     vdW  Elec       q    Type
REMARK                         _______ _______ _______ _____ _____    ______ ____
ROOT
ATOM      1  C   UNL     1       6.305   3.670  15.574  0.00  0.00    +0.000 C 
ATOM      2  C   UNL     1       5.284   4.524  16.271  0.00  0.00    +0.000 A 
ATOM      3  C   UNL     1       5.287   5.888  16.022  0.00  0.00    +0.000 A 
ATOM      4  C   UNL     1       4.409   6.727  16.705  0.00  0.00    +0.000 A 
ATOM      5  C   UNL     1       3.439   6.255  17.638  0.00  0.00    +0.000 A 
ATOM      6  C   UNL     1       3.383   4.841  17.852  0.00  0.00    +0.000 A 
ATOM      7  C   UNL     1       4.349   4.012  17.194  0.00  0.00    +0.000 A 
ATOM      8  N   UNL     1       4.440   2.637  17.490  0.00  0.00    +0.000 N 
ATOM      9  C   UNL     1       3.692   1.996  18.438  0.00  0.00    +0.000 A 
ATOM     10  O   UNL     1       3.917   0.803  18.655  0.00  0.00    +0.000 OA
ATOM     11  C   UNL     1       2.691   2.802  19.058  0.00  0.00    +0.000 A 
ATOM     12  S   UNL     1       1.680   2.152  20.268  0.00  0.00    +0.000 S 
ATOM     13  C   UNL     1       0.767   3.585  20.337  0.00  0.00    +0.000 A 
ATOM     14  C   UNL     1       1.193   4.503  19.395  0.00  0.00    +0.000 A 
ATOM     15  C   UNL     1       2.435   4.133  18.767  0.00  0.00    +0.000 A 
ATOM     16  H   UNL     1       5.138   2.053  17.059  0.00  0.00    +0.000 HD
ENDROOT
BRANCH   5  17
ATOM     17  C   UNL     1       2.609   7.264  18.358  0.00  0.00    +0.000 A 
ATOM     18  C   UNL     1       1.938   8.288  17.673  0.00  0.00    +0.000 A 
ATOM     19  C   UNL     1       1.214   9.278  18.341  0.00  0.00    +0.000 A 
ATOM     20  C   UNL     1       1.012   9.222  19.724  0.00  0.00    +0.000 A 
ATOM     21  C   UNL     1       1.673   8.197  20.415  0.00  0.00    +0.000 A 
ATOM     22  C   UNL     1       2.516   7.296  19.752  0.00  0.00    +0.000 A 
BRANCH  20  23
ATOM     23  C   UNL     1       0.192  10.291  20.473  0.00  0.00    +0.000 C 
ATOM     24  C   UNL     1      -1.037  10.728  19.635  0.00  0.00    +0.000 C 
ATOM     25  C   UNL     1      -0.294   9.643  21.785  0.00  0.00    +0.000 C 
BRANCH  23  26
ATOM     26  C   UNL     1       1.049  11.562  20.795  0.00  0.00    +0.000 C 
BRANCH  26  27
ATOM     27  N   UNL     1       0.962  12.652  19.816  0.00  0.00    +0.000 NA
ATOM     28  H   UNL     1       1.397  13.488  20.193  0.00  0.00    +0.000 HD
ATOM     29  H   UNL     1      -0.020  12.884  19.674  0.00  0.00    +0.000 HD
ENDBRANCH  26  27
ENDBRANCH  23  26
ENDBRANCH  20  23
ENDBRANCH   5  17
BRANCH   4  30
ATOM     30  O   UNL     1       4.554   8.075  16.467  0.00  0.00    +0.000 OA
ATOM     31  H   UNL     1       4.413   8.267  15.526  0.00  0.00    +0.000 HD
ENDBRANCH   4  30
TORSDOF 5
ENDMDL
MODEL 3
REMARK VINA RESULT:      -7.8      0.834      1.177
REMARK  Name = 
REMARK  8 active torsions:
REMARK  status: ('A' for Active; 'I' for Inactive)
REMARK    1  A    between atoms: C_1  and  C_2
REMARK    2  A    between atoms: C_4  and  O_5
REMARK    3  A    between atoms: C_6  and  C_7
REMARK    4  A    between atoms: C_10  and  C_11
REMARK    5  A    between atoms: C_11  and  C_12
REMARK    6  A    between atoms: C_11  and  C_13
REMARK    7  A    between atoms: C_11  and  C_14
REMARK    8  A    between atoms: C_14  and  N_15
REMARK                            x       y       z     vdW  Elec       q    Type
REMARK                         _______ _______ _______ _____ _____    ______ ____
ROOT
ATOM      1  C   UNL     1       6.290   3.659  15.565  0.00  0.00    +0.000 C 
ATOM      2  C   UNL     1       5.281   4.523  16.268  0.00  0.00    +0.000 A 
ATOM      3  C   UNL     1       5.295   5.887  16.018  0.00  0.00    +0.000 A 
ATOM      4  C   UNL     1       4.429   6.734  16.705  0.00  0.00    +0.000 A 
ATOM      5  C   UNL     1       3.460   6.271  17.645  0.00  0.00    +0.000 A 
ATOM      6  C   UNL     1       3.394   4.858  17.862  0.00  0.00    +0.000 A 
ATOM      7  C   UNL     1       4.348   4.020  17.198  0.00  0.00    +0.000 A 
ATOM      8  N   UNL     1       4.429   2.645  17.495  0.00  0.00    +0.000 N 
ATOM      9  C   UNL     1       3.681   2.012  18.449  0.00  0.00    +0.000 A 
ATOM     10  O   UNL     1       3.897   0.817  18.666  0.00  0.00    +0.000 OA
ATOM     11  C   UNL     1       2.692   2.827  19.074  0.00  0.00    +0.000 A 
ATOM     12  S   UNL     1       1.684   2.187  20.292  0.00  0.00    +0.000 S 
ATOM     13  C   UNL     1       0.784   3.628  20.365  0.00  0.00    +0.000 A 
ATOM     14  C   UNL     1       1.211   4.541  19.420  0.00  0.00    +0.000 A 
ATOM     15  C   UNL     1       2.445   4.160  18.784  0.00  0.00    +0.000 A 
ATOM     16  H   UNL     1       5.118   2.054  17.060  0.00  0.00    +0.000 HD
ENDROOT
BRANCH   5  17
ATOM     17  C   UNL     1       2.645   7.289  18.370  0.00  0.00    +0.000 A 
ATOM     18  C   UNL     1       2.512   7.265  19.766  0.00  0.00    +0.000 A 
ATOM     19  C   UNL     1       1.697   8.171  20.450  0.00  0.00    +0.000 A 
ATOM     20  C   UNL     1       1.075   9.234  19.785  0.00  0.00    +0.000 A 
ATOM     21  C   UNL     1       1.211   9.268  18.391  0.00  0.00    +0.000 A 
ATOM     22  C   UNL     1       1.909   8.271  17.700  0.00  0.00    +0.000 A 
BRANCH  20  23
ATOM     23  C   UNL     1       0.196  10.259  20.530  0.00  0.00    +0.000 C 
ATOM     24  C   UNL     1      -0.293   9.683  21.882  0.00  0.00    +0.000 C 
ATOM     25  C   UNL     1       1.080  11.495  20.794  0.00  0.00    +0.000 C 
BRANCH  23  26
ATOM     26  C   UNL     1      -1.056  10.674  19.685  0.00  0.00    +0.000 C 
BRANCH  26  27
ATOM     27  N   UNL     1      -1.080  12.068  19.228  0.00  0.00    +0.000 NA
ATOM     28  H   UNL     1      -1.415  12.669  19.976  0.00  0.00    +0.000 HD
ATOM     29  H   UNL     1      -1.760  12.152  18.474  0.00  0.00    +0.000 HD
ENDBRANCH  26  27
ENDBRANCH  23  26
ENDBRANCH  20  23
ENDBRANCH   5  17
BRANCH   4  30
ATOM     30  O   UNL     1       4.583   8.080  16.465  0.00  0.00    +0.000 OA
ATOM     31  H   UNL     1       5.498   8.271  16.200  0.00  0.00    +0.000 HD
ENDBRANCH   4  30
TORSDOF 5
ENDMDL
MODEL 4
REMARK VINA RESULT:      -7.6      1.662      2.116
REMARK  Name = 
REMARK  8 active torsions:
REMARK  status: ('A' for Active; 'I' for Inactive)
REMARK    1  A    between atoms: C_1  and  C_2
REMARK    2  A    between atoms: C_4  and  O_5
REMARK    3  A    between atoms: C_6  and  C_7
REMARK    4  A    between atoms: C_10  and  C_11
REMARK    5  A    between atoms: C_11  and  C_12
REMARK    6  A    between atoms: C_11  and  C_13
REMARK    7  A    between atoms: C_11  and  C_14
REMARK    8  A    between atoms: C_14  and  N_15
REMARK                            x       y       z     vdW  Elec       q    Type
REMARK                         _______ _______ _______ _____ _____    ______ ____
ROOT
ATOM      1  C   UNL     1       7.600   4.264  17.440  0.00  0.00    +0.000 C 
ATOM      2  C   UNL     1       6.329   5.025  17.693  0.00  0.00    +0.000 A 
ATOM      3  C   UNL     1       6.226   6.317  17.200  0.00  0.00    +0.000 A 
ATOM      4  C   UNL     1       5.098   7.086  17.478  0.00  0.00    +0.000 A 
ATOM      5  C   UNL     1       3.980   6.599  18.218  0.00  0.00    +0.000 A 
ATOM      6  C   UNL     1       4.049   5.245  18.676  0.00  0.00    +0.000 A 
ATOM      7  C   UNL     1       5.253   4.504  18.441  0.00  0.00    +0.000 A 
ATOM      8  N   UNL     1       5.433   3.225  19.004  0.00  0.00    +0.000 N 
ATOM      9  C   UNL     1       4.545   2.615  19.846  0.00  0.00    +0.000 A 
ATOM     10  O   UNL     1       4.852   1.524  20.332  0.00  0.00    +0.000 OA
ATOM     11  C   UNL     1       3.321   3.322  20.040  0.00  0.00    +0.000 A 
ATOM     12  S   UNL     1       2.112   2.696  21.068  0.00  0.00    +0.000 S 
ATOM     13  C   UNL     1       1.041   3.946  20.641  0.00  0.00    +0.000 A 
ATOM     14  C   UNL     1       1.585   4.772  19.675  0.00  0.00    +0.000 A 
ATOM     15  C   UNL     1       2.986   4.531  19.449  0.00  0.00    +0.000 A 
ATOM     16  H   UNL     1       6.289   2.711  18.874  0.00  0.00    +0.000 HD
ENDROOT
BRANCH   5  17
ATOM     17  C   UNL     1       2.867   7.548  18.511  0.00  0.00    +0.000 A 
ATOM     18  C   UNL     1       2.273   8.319  17.501  0.00  0.00    +0.000 A 
ATOM     19  C   UNL     1       1.277   9.259  17.773  0.00  0.00    +0.000 A 
ATOM     20  C   UNL     1       0.727   9.386  19.053  0.00  0.00    +0.000 A 
ATOM     21  C   UNL     1       1.310   8.613  20.066  0.00  0.00    +0.000 A 
ATOM     22  C   UNL     1       2.407   7.781  19.810  0.00  0.00    +0.000 A 
BRANCH  20  23
ATOM     23  C   UNL     1      -0.393  10.399  19.364  0.00  0.00    +0.000 C 
ATOM     24  C   UNL     1      -1.680  10.054  18.574  0.00  0.00    +0.000 C 
ATOM     25  C   UNL     1      -0.682  10.295  20.875  0.00  0.00    +0.000 C 
BRANCH  23  26
ATOM     26  C   UNL     1       0.032  11.864  19.005  0.00  0.00    +0.000 C 
BRANCH  26  27
ATOM     27  N   UNL     1      -0.607  12.436  17.814  0.00  0.00    +0.000 NA
ATOM     28  H   UNL     1      -1.615  12.334  17.882  0.00  0.00    +0.000 HD
ATOM     29  H   UNL     1      -0.323  11.894  17.000  0.00  0.00    +0.000 HD
ENDBRANCH  26  27
ENDBRANCH  23  26
ENDBRANCH  20  23
ENDBRANCH   5  17
BRANCH   4  30
ATOM     30  O   UNL     1       5.130   8.388  17.032  0.00  0.00    +0.000 OA
ATOM     31  H   UNL     1       5.645   8.449  16.212  0.00  0.00    +0.000 HD
ENDBRANCH   4  30
TORSDOF 5
ENDMDL
MODEL 5
REMARK VINA RESULT:      -7.4      1.766      1.921
REMARK  Name = 
REMARK  8 active torsions:
REMARK  status: ('A' for Active; 'I' for Inactive)
REMARK    1  A    between atoms: C_1  and  C_2
REMARK    2  A    between atoms: C_4  and  O_5
REMARK    3  A    between atoms: C_6  and  C_7
REMARK    4  A    between atoms: C_10  and  C_11
REMARK    5  A    between atoms: C_11  and  C_12
REMARK    6  A    between atoms: C_11  and  C_13
REMARK    7  A    between atoms: C_11  and  C_14
REMARK    8  A    between atoms: C_14  and  N_15
REMARK                            x       y       z     vdW  Elec       q    Type
REMARK                         _______ _______ _______ _____ _____    ______ ____
ROOT
ATOM      1  C   UNL     1       7.683   4.201  17.572  0.00  0.00    +0.000 C 
ATOM      2  C   UNL     1       6.415   4.980  17.786  0.00  0.00    +0.000 A 
ATOM      3  C   UNL     1       6.346   6.272  17.288  0.00  0.00    +0.000 A 
ATOM      4  C   UNL     1       5.220   7.057  17.531  0.00  0.00    +0.000 A 
ATOM      5  C   UNL     1       4.074   6.587  18.239  0.00  0.00    +0.000 A 
ATOM      6  C   UNL     1       4.110   5.233  18.701  0.00  0.00    +0.000 A 
ATOM      7  C   UNL     1       5.311   4.475  18.503  0.00  0.00    +0.000 A 
ATOM      8  N   UNL     1       5.457   3.195  19.073  0.00  0.00    +0.000 N 
ATOM      9  C   UNL     1       4.536   2.599  19.889  0.00  0.00    +0.000 A 
ATOM     10  O   UNL     1       4.814   1.505  20.386  0.00  0.00    +0.000 OA
ATOM     11  C   UNL     1       3.317   3.323  20.046  0.00  0.00    +0.000 A 
ATOM     12  S   UNL     1       2.070   2.716  21.039  0.00  0.00    +0.000 S 
ATOM     13  C   UNL     1       1.028   3.979  20.577  0.00  0.00    +0.000 A 
ATOM     14  C   UNL     1       1.612   4.796  19.627  0.00  0.00    +0.000 A 
ATOM     15  C   UNL     1       3.016   4.535  19.444  0.00  0.00    +0.000 A 
ATOM     16  H   UNL     1       6.310   2.669  18.970  0.00  0.00    +0.000 HD
ENDROOT
BRANCH   5  17
ATOM     17  C   UNL     1       2.966   7.551  18.497  0.00  0.00    +0.000 A 
ATOM     18  C   UNL     1       2.431   7.730  19.781  0.00  0.00    +0.000 A 
ATOM     19  C   UNL     1       1.350   8.580  20.024  0.00  0.00    +0.000 A 
ATOM     20  C   UNL     1       0.828   9.398  19.016  0.00  0.00    +0.000 A 
ATOM     21  C   UNL     1       1.364   9.231  17.731  0.00  0.00    +0.000 A 
ATOM     22  C   UNL     1       2.349   8.271  17.470  0.00  0.00    +0.000 A 
BRANCH  20  23
ATOM     23  C   UNL     1      -0.347  10.363  19.274  0.00  0.00    +0.000 C 
ATOM     24  C   UNL     1      -0.767  10.330  20.765  0.00  0.00    +0.000 C 
ATOM     25  C   UNL     1       0.152  11.778  18.919  0.00  0.00    +0.000 C 
BRANCH  23  26
ATOM     26  C   UNL     1      -1.596  10.005  18.399  0.00  0.00    +0.000 C 
BRANCH  26  27
ATOM     27  N   UNL     1      -1.736  10.766  17.152  0.00  0.00    +0.000 NA
ATOM     28  H   UNL     1      -2.719  10.912  16.947  0.00  0.00    +0.000 HD
ATOM     29  H   UNL     1      -1.369  10.203  16.385  0.00  0.00    +0.000 HD
ENDBRANCH  26  27
ENDBRANCH  23  26
ENDBRANCH  20  23
ENDBRANCH   5  17
BRANCH   4  30
ATOM     30  O   UNL     1       5.283   8.357  17.084  0.00  0.00    +0.000 OA
ATOM     31  H   UNL     1       5.441   8.960  17.828  0.00  0.00    +0.000 HD
ENDBRANCH   4  30
TORSDOF 5
ENDMDL
MODEL 6
REMARK VINA RESULT:      -7.3      1.236      1.543
REMARK  Name = 
REMARK  8 active torsions:
REMARK  status: ('A' for Active; 'I' for Inactive)
REMARK    1  A    between atoms: C_1  and  C_2
REMARK    2  A    between atoms: C_4  and  O_5
REMARK    3  A    between atoms: C_6  and  C_7
REMARK    4  A    between atoms: C_10  and  C_11
REMARK    5  A    between atoms: C_11  and  C_12
REMARK    6  A    between atoms: C_11  and  C_13
REMARK    7  A    between atoms: C_11  and  C_14
REMARK    8  A    between atoms: C_14  and  N_15
REMARK                            x       y       z     vdW  Elec       q    Type
REMARK                         _______ _______ _______ _____ _____    ______ ____
ROOT
ATOM      1  C   UNL     1       7.480   4.250  17.286  0.00  0.00    +0.000 C 
ATOM      2  C   UNL     1       6.230   5.026  17.594  0.00  0.00    +0.000 A 
ATOM      3  C   UNL     1       6.124   6.322  17.113  0.00  0.00    +0.000 A 
ATOM      4  C   UNL     1       5.018   7.103  17.439  0.00  0.00    +0.000 A 
ATOM      5  C   UNL     1       3.924   6.625  18.221  0.00  0.00    +0.000 A 
ATOM      6  C   UNL     1       3.993   5.267  18.668  0.00  0.00    +0.000 A 
ATOM      7  C   UNL     1       5.178   4.513  18.381  0.00  0.00    +0.000 A 
ATOM      8  N   UNL     1       5.365   3.228  18.929  0.00  0.00    +0.000 N 
ATOM      9  C   UNL     1       4.503   2.624  19.802  0.00  0.00    +0.000 A 
ATOM     10  O   UNL     1       4.816   1.526  20.269  0.00  0.00    +0.000 OA
ATOM     11  C   UNL     1       3.297   3.344  20.048  0.00  0.00    +0.000 A 
ATOM     12  S   UNL     1       2.122   2.727  21.120  0.00  0.00    +0.000 S 
ATOM     13  C   UNL     1       1.050   3.992  20.743  0.00  0.00    +0.000 A 
ATOM     14  C   UNL     1       1.566   4.818  19.761  0.00  0.00    +0.000 A 
ATOM     15  C   UNL     1       2.954   4.561  19.479  0.00  0.00    +0.000 A 
ATOM     16  H   UNL     1       6.209   2.705  18.762  0.00  0.00    +0.000 HD
ENDROOT
BRANCH   5  17
ATOM     17  C   UNL     1       2.835   7.585  18.563  0.00  0.00    +0.000 A 
ATOM     18  C   UNL     1       2.216   8.375  17.583  0.00  0.00    +0.000 A 
ATOM     19  C   UNL     1       1.243   9.325  17.900  0.00  0.00    +0.000 A 
ATOM     20  C   UNL     1       0.741   9.445  19.201  0.00  0.00    +0.000 A 
ATOM     21  C   UNL     1       1.350   8.654  20.184  0.00  0.00    +0.000 A 
ATOM     22  C   UNL     1       2.425   7.810  19.881  0.00  0.00    +0.000 A 
BRANCH  20  23
ATOM     23  C   UNL     1      -0.353  10.470  19.562  0.00  0.00    +0.000 C 
ATOM     24  C   UNL     1       0.094  11.906  19.187  0.00  0.00    +0.000 C 
ATOM     25  C   UNL     1      -1.602  10.096  18.738  0.00  0.00    +0.000 C 
BRANCH  23  26
ATOM     26  C   UNL     1      -0.697  10.440  21.090  0.00  0.00    +0.000 C 
BRANCH  26  27
ATOM     27  N   UNL     1       0.014  11.420  21.920  0.00  0.00    +0.000 NA
ATOM     28  H   UNL     1      -0.016  12.333  21.476  0.00  0.00    +0.000 HD
ATOM     29  H   UNL     1       0.998  11.159  21.961  0.00  0.00    +0.000 HD
ENDBRANCH  26  27
ENDBRANCH  23  26
ENDBRANCH  20  23
ENDBRANCH   5  17
BRANCH   4  30
ATOM     30  O   UNL     1       5.048   8.406  17.001  0.00  0.00    +0.000 OA
ATOM     31  H   UNL     1       4.846   9.012  17.732  0.00  0.00    +0.000 HD
ENDBRANCH   4  30
TORSDOF 5
ENDMDL
MODEL 7
REMARK VINA RESULT:      -7.2      6.786      9.743
REMARK  Name = 
REMARK  8 active torsions:
REMARK  status: ('A' for Active; 'I' for Inactive)
REMARK    1  A    between atoms: C_1  and  C_2
REMARK    2  A    between atoms: C_4  and  O_5
REMARK    3  A    between atoms: C_6  and  C_7
REMARK    4  A    between atoms: C_10  and  C_11
REMARK    5  A    between atoms: C_11  and  C_12
REMARK    6  A    between atoms: C_11  and  C_13
REMARK    7  A    between atoms: C_11  and  C_14
REMARK    8  A    between atoms: C_14  and  N_15
REMARK                            x       y       z     vdW  Elec       q    Type
REMARK                         _______ _______ _______ _____ _____    ______ ____
ROOT
ATOM      1  C   UNL     1      -2.756  10.086  15.457  0.00  0.00    +0.000 C 
ATOM      2  C   UNL     1      -3.271  10.752  16.702  0.00  0.00    +0.000 A 
ATOM      3  C   UNL     1      -4.609  11.114  16.748  0.00  0.00    +0.000 A 
ATOM      4  C   UNL     1      -5.111  11.803  17.850  0.00  0.00    +0.000 A 
ATOM      5  C   UNL     1      -4.326  12.127  18.996  0.00  0.00    +0.000 A 
ATOM      6  C   UNL     1      -2.960  11.700  18.986  0.00  0.00    +0.000 A 
ATOM      7  C   UNL     1      -2.453  11.061  17.808  0.00  0.00    +0.000 A 
ATOM      8  N   UNL     1      -1.081  10.762  17.684  0.00  0.00    +0.000 N 
ATOM      9  C   UNL     1      -0.128  11.093  18.607  0.00  0.00    +0.000 A 
ATOM     10  O   UNL     1       1.051  10.841  18.348  0.00  0.00    +0.000 OA
ATOM     11  C   UNL     1      -0.633  11.679  19.806  0.00  0.00    +0.000 A 
ATOM     12  S   UNL     1       0.430  12.155  21.052  0.00  0.00    +0.000 S 
ATOM     13  C   UNL     1      -0.873  12.556  22.069  0.00  0.00    +0.000 A 
ATOM     14  C   UNL     1      -2.087  12.256  21.480  0.00  0.00    +0.000 A 
ATOM     15  C   UNL     1      -1.970  11.916  20.086  0.00  0.00    +0.000 A 
ATOM     16  H   UNL     1      -0.709  10.346  16.846  0.00  0.00    +0.000 HD
ENDROOT
BRANCH   5  17
ATOM     17  C   UNL     1      -4.964  12.934  20.077  0.00  0.00    +0.000 A 
ATOM     18  C   UNL     1      -5.712  12.332  21.099  0.00  0.00    +0.000 A 
ATOM     19  C   UNL     1      -6.370  13.081  22.078  0.00  0.00    +0.000 A 
ATOM     20  C   UNL     1      -6.206  14.468  22.164  0.00  0.00    +0.000 A 
ATOM     21  C   UNL     1      -5.452  15.075  21.150  0.00  0.00    +0.000 A 
ATOM     22  C   UNL     1      -4.919  14.331  20.091  0.00  0.00    +0.000 A 
BRANCH  20  23
ATOM     23  C   UNL     1      -6.902  15.306  23.255  0.00  0.00    +0.000 C 
ATOM     24  C   UNL     1      -7.916  16.294  22.626  0.00  0.00    +0.000 C 
ATOM     25  C   UNL     1      -7.656  14.314  24.165  0.00  0.00    +0.000 C 
BRANCH  23  26
ATOM     26  C   UNL     1      -5.872  16.126  24.104  0.00  0.00    +0.000 C 
BRANCH  26  27
ATOM     27  N   UNL     1      -4.748  15.358  24.654  0.00  0.00    +0.000 NA
ATOM     28  H   UNL     1      -4.126  15.977  25.164  0.00  0.00    +0.000 HD
ATOM     29  H   UNL     1      -4.200  14.983  23.880  0.00  0.00    +0.000 HD
ENDBRANCH  26  27
ENDBRANCH  23  26
ENDBRANCH  20  23
ENDBRANCH   5  17
BRANCH   4  30
ATOM     30  O   UNL     1      -6.423  12.208  17.763  0.00  0.00    +0.000 OA
ATOM     31  H   UNL     1      -7.015  11.493  18.048  0.00  0.00    +0.000 HD
ENDBRANCH   4  30
TORSDOF 5
ENDMDL
MODEL 8
REMARK VINA RESULT:      -7.0      9.097     10.867
REMARK  Name = 
REMARK  8 active torsions:
REMARK  status: ('A' for Active; 'I' for Inactive)
REMARK    1  A    between atoms: C_1  and  C_2
REMARK    2  A    between atoms: C_4  and  O_5
REMARK    3  A    between atoms: C_6  and  C_7
REMARK    4  A    between atoms: C_10  and  C_11
REMARK    5  A    between atoms: C_11  and  C_12
REMARK    6  A    between atoms: C_11  and  C_13
REMARK    7  A    between atoms: C_11  and  C_14
REMARK    8  A    between atoms: C_14  and  N_15
REMARK                            x       y       z     vdW  Elec       q    Type
REMARK                         _______ _______ _______ _____ _____    ______ ____
ROOT
ATOM      1  C   UNL     1      10.355  12.559  17.734  0.00  0.00    +0.000 C 
ATOM      2  C   UNL     1       9.772  12.567  19.120  0.00  0.00    +0.000 A 
ATOM      3  C   UNL     1       9.786  11.386  19.846  0.00  0.00    +0.000 A 
ATOM      4  C   UNL     1       9.188  11.330  21.103  0.00  0.00    +0.000 A 
ATOM      5  C   UNL     1       8.586  12.457  21.736  0.00  0.00    +0.000 A 
ATOM      6  C   UNL     1       8.624  13.697  21.022  0.00  0.00    +0.000 A 
ATOM      7  C   UNL     1       9.177  13.706  19.700  0.00  0.00    +0.000 A 
ATOM      8  N   UNL     1       9.099  14.860  18.894  0.00  0.00    +0.000 N 
ATOM      9  C   UNL     1       8.459  16.014  19.252  0.00  0.00    +0.000 A 
ATOM     10  O   UNL     1       8.396  16.930  18.428  0.00  0.00    +0.000 OA
ATOM     11  C   UNL     1       7.954  16.031  20.586  0.00  0.00    +0.000 A 
ATOM     12  S   UNL     1       7.123  17.397  21.181  0.00  0.00    +0.000 S 
ATOM     13  C   UNL     1       7.025  16.714  22.736  0.00  0.00    +0.000 A 
ATOM     14  C   UNL     1       7.684  15.500  22.799  0.00  0.00    +0.000 A 
ATOM     15  C   UNL     1       8.072  15.000  21.505  0.00  0.00    +0.000 A 
ATOM     16  H   UNL     1       9.453  14.866  17.952  0.00  0.00    +0.000 HD
ENDROOT
BRANCH   5  17
ATOM     17  C   UNL     1       7.913  12.246  23.051  0.00  0.00    +0.000 A 
ATOM     18  C   UNL     1       6.540  11.967  23.137  0.00  0.00    +0.000 A 
ATOM     19  C   UNL     1       5.886  11.834  24.364  0.00  0.00    +0.000 A 
ATOM     20  C   UNL     1       6.594  11.841  25.571  0.00  0.00    +0.000 A 
ATOM     21  C   UNL     1       7.967  12.111  25.491  0.00  0.00    +0.000 A 
ATOM     22  C   UNL     1       8.587  12.388  24.267  0.00  0.00    +0.000 A 
BRANCH  20  23
ATOM     23  C   UNL     1       5.890  11.667  26.932  0.00  0.00    +0.000 C 
ATOM     24  C   UNL     1       6.810  10.928  27.936  0.00  0.00    +0.000 C 
ATOM     25  C   UNL     1       5.593  13.084  27.464  0.00  0.00    +0.000 C 
BRANCH  23  26
ATOM     26  C   UNL     1       4.555  10.860  26.796  0.00  0.00    +0.000 C 
BRANCH  26  27
ATOM     27  N   UNL     1       4.635   9.437  27.145  0.00  0.00    +0.000 NA
ATOM     28  H   UNL     1       3.843   8.940  26.749  0.00  0.00    +0.000 HD
ATOM     29  H   UNL     1       4.547   9.344  28.156  0.00  0.00    +0.000 HD
ENDBRANCH  26  27
ENDBRANCH  23  26
ENDBRANCH  20  23
ENDBRANCH   5  17
BRANCH   4  30
ATOM     30  O   UNL     1       9.163  10.093  21.705  0.00  0.00    +0.000 OA
ATOM     31  H   UNL     1       9.816   9.505  21.292  0.00  0.00    +0.000 HD
ENDBRANCH   4  30
TORSDOF 5
ENDMDL
MODEL 9
REMARK VINA RESULT:      -6.9      6.874      9.926
REMARK  Name = 
REMARK  8 active torsions:
REMARK  status: ('A' for Active; 'I' for Inactive)
REMARK    1  A    between atoms: C_1  and  C_2
REMARK    2  A    between atoms: C_4  and  O_5
REMARK    3  A    between atoms: C_6  and  C_7
REMARK    4  A    between atoms: C_10  and  C_11
REMARK    5  A    between atoms: C_11  and  C_12
REMARK    6  A    between atoms: C_11  and  C_13
REMARK    7  A    between atoms: C_11  and  C_14
REMARK    8  A    between atoms: C_14  and  N_15
REMARK                            x       y       z     vdW  Elec       q    Type
REMARK                         _______ _______ _______ _____ _____    ______ ____
ROOT
ATOM      1  C   UNL     1      -2.685  10.220  15.440  0.00  0.00    +0.000 C 
ATOM      2  C   UNL     1      -3.229  10.849  16.692  0.00  0.00    +0.000 A 
ATOM      3  C   UNL     1      -4.575  11.182  16.730  0.00  0.00    +0.000 A 
ATOM      4  C   UNL     1      -5.104  11.837  17.839  0.00  0.00    +0.000 A 
ATOM      5  C   UNL     1      -4.339  12.155  19.001  0.00  0.00    +0.000 A 
ATOM      6  C   UNL     1      -2.965  11.758  18.998  0.00  0.00    +0.000 A 
ATOM      7  C   UNL     1      -2.430  11.154  17.813  0.00  0.00    +0.000 A 
ATOM      8  N   UNL     1      -1.051  10.887  17.699  0.00  0.00    +0.000 N 
ATOM      9  C   UNL     1      -0.116  11.220  18.640  0.00  0.00    +0.000 A 
ATOM     10  O   UNL     1       1.071  10.999  18.390  0.00  0.00    +0.000 OA
ATOM     11  C   UNL     1      -0.647  11.770  19.844  0.00  0.00    +0.000 A 
ATOM     12  S   UNL     1       0.391  12.244  21.112  0.00  0.00    +0.000 S 
ATOM     13  C   UNL     1      -0.931  12.596  22.122  0.00  0.00    +0.000 A 
ATOM     14  C   UNL     1      -2.132  12.282  21.513  0.00  0.00    +0.000 A 
ATOM     15  C   UNL     1      -1.991  11.973  20.114  0.00  0.00    +0.000 A 
ATOM     16  H   UNL     1      -0.661  10.496  16.858  0.00  0.00    +0.000 HD
ENDROOT
BRANCH   5  17
ATOM     17  C   UNL     1      -5.007  12.926  20.090  0.00  0.00    +0.000 A 
ATOM     18  C   UNL     1      -4.833  14.312  20.222  0.00  0.00    +0.000 A 
ATOM     19  C   UNL     1      -5.398  15.034  21.276  0.00  0.00    +0.000 A 
ATOM     20  C   UNL     1      -6.277  14.430  22.182  0.00  0.00    +0.000 A 
ATOM     21  C   UNL     1      -6.461  13.046  22.051  0.00  0.00    +0.000 A 
ATOM     22  C   UNL     1      -5.775  12.307  21.080  0.00  0.00    +0.000 A 
BRANCH  20  23
ATOM     23  C   UNL     1      -6.931  15.219  23.334  0.00  0.00    +0.000 C 
ATOM     24  C   UNL     1      -7.715  14.270  24.274  0.00  0.00    +0.000 C 
ATOM     25  C   UNL     1      -5.786  15.884  24.124  0.00  0.00    +0.000 C 
BRANCH  23  26
ATOM     26  C   UNL     1      -7.915  16.315  22.802  0.00  0.00    +0.000 C 
BRANCH  26  27
ATOM     27  N   UNL     1      -7.396  17.688  22.801  0.00  0.00    +0.000 NA
ATOM     28  H   UNL     1      -7.648  18.150  21.933  0.00  0.00    +0.000 HD
ATOM     29  H   UNL     1      -6.377  17.651  22.815  0.00  0.00    +0.000 HD
ENDBRANCH  26  27
ENDBRANCH  23  26
ENDBRANCH  20  23
ENDBRANCH   5  17
BRANCH   4  30
ATOM     30  O   UNL     1      -6.424  12.215  17.745  0.00  0.00    +0.000 OA
ATOM     31  H   UNL     1      -6.563  13.065  18.194  0.00  0.00    +0.000 HD
ENDBRANCH   4  30
TORSDOF 5
ENDMDL
