MODEL 1
REMARK VINA RESULT:      -7.2      0.000      0.000
REMARK  Name = 
REMARK  8 active torsions:
REMARK  status: ('A' for Active; 'I' for Inactive)
REMARK    1  A    between atoms: S_2  and  O_4
REMARK    2  A    between atoms: S_2  and  C_5
REMARK    3  A    between atoms: C_7  and  N_8
REMARK    4  A    between atoms: N_8  and  C_9
REMARK    5  A    between atoms: C_9  and  C_10
REMARK    6  A    between atoms: C_12  and  O_13
REMARK    7  A    between atoms: C_16  and  O_17
REMARK    8  A    between atoms: C_20  and  O_21
REMARK                            x       y       z     vdW  Elec       q    Type
REMARK                         _______ _______ _______ _____ _____    ______ ____
ROOT
ATOM      1  C   UNL     1       6.084   5.203  16.495  0.00  0.00    +0.000 A 
ATOM      2  C   UNL     1       4.924   5.911  16.846  0.00  0.00    +0.000 A 
ATOM      3  C   UNL     1       4.640   6.218  18.183  0.00  0.00    +0.000 A 
ATOM      4  C   UNL     1       5.513   5.727  19.161  0.00  0.00    +0.000 A 
ATOM      5  C   UNL     1       6.670   5.015  18.817  0.00  0.00    +0.000 A 
ATOM      6  C   UNL     1       6.959   4.760  17.479  0.00  0.00    +0.000 A 
ENDROOT
BRANCH   1   8
ATOM      7  O   UNL     1       7.758   5.342  14.480  0.00  0.00    +0.000 OA
ATOM      8  S   UNL     1       6.426   4.873  14.797  0.00  0.00    +0.000 S 
ATOM      9  O   UNL     1       5.270   5.247  14.011  0.00  0.00    +0.000 OA
BRANCH   8  10
ATOM     10  O   UNL     1       6.530   3.263  14.680  0.00  0.00    +0.000 OA
ATOM     11  H   UNL     1       6.021   3.001  13.885  0.00  0.00    +0.000 HD
ENDBRANCH   8  10
ENDBRANCH   1   8
BRANCH   3  12
ATOM     12  N   UNL     1       3.432   6.867  18.479  0.00  0.00    +0.000 N 
ATOM     13  H   UNL     1       3.405   7.159  19.455  0.00  0.00    +0.000 HD
BRANCH  12  14
ATOM     14  C   UNL     1       2.176   6.193  18.125  0.00  0.00    +0.000 C 
BRANCH  14  15
ATOM     15  C   UNL     1       1.937   4.977  18.999  0.00  0.00    +0.000 A 
ATOM     16  C   UNL     1       1.822   3.688  18.446  0.00  0.00    +0.000 A 
ATOM     17  C   UNL     1       1.647   2.580  19.276  0.00  0.00    +0.000 A 
ATOM     18  C   UNL     1       1.605   2.721  20.656  0.00  0.00    +0.000 A 
ATOM     19  C   UNL     1       1.745   3.987  21.224  0.00  0.00    +0.000 A 
ATOM     20  C   UNL     1       1.915   5.099  20.396  0.00  0.00    +0.000 A 
BRANCH  17  21
ATOM     21  O   UNL     1       1.516   1.324  18.766  0.00  0.00    +0.000 OA
ATOM     22  H   UNL     1       2.174   1.204  18.063  0.00  0.00    +0.000 HD
ENDBRANCH  17  21
BRANCH  20  23
ATOM     23  O   UNL     1       2.077   6.337  20.952  0.00  0.00    +0.000 OA
ATOM     24  H   UNL     1       2.559   6.902  20.324  0.00  0.00    +0.000 HD
ENDBRANCH  20  23
ENDBRANCH  14  15
ENDBRANCH  12  14
ENDBRANCH   3  12
BRANCH   6  25
ATOM     25  O   UNL     1       8.088   4.074  17.147  0.00  0.00    +0.000 OA
ATOM     26  H   UNL     1       7.945   3.120  17.269  0.00  0.00    +0.000 HD
ENDBRANCH   6  25
TORSDOF 8
ENDMDL
MODEL 2
REMARK VINA RESULT:      -7.0      1.052      1.785
REMARK  Name = 
REMARK  8 active torsions:
REMARK  status: ('A' for Active; 'I' for Inactive)
REMARK    1  A    between atoms: S_2  and  O_4
REMARK    2  A    between atoms: S_2  and  C_5
REMARK    3  A    between atoms: C_7  and  N_8
REMARK    4  A    between atoms: N_8  and  C_9
REMARK    5  A    between atoms: C_9  and  C_10
REMARK    6  A    between atoms: C_12  and  O_13
REMARK    7  A    between atoms: C_16  and  O_17
REMARK    8  A    between atoms: C_20  and  O_21
REMARK                            x       y       z     vdW  Elec       q    Type
REMARK                         _______ _______ _______ _____ _____    ______ ____
ROOT
ATOM      1  C   UNL     1       6.044   5.157  16.557  0.00  0.00    +0.000 A 
ATOM      2  C   UNL     1       4.856   5.802  16.934  0.00  0.00    +0.000 A 
ATOM      3  C   UNL     1       4.568   6.057  18.281  0.00  0.00    +0.000 A 
ATOM      4  C   UNL     1       5.467   5.577  19.240  0.00  0.00    +0.000 A 
ATOM      5  C   UNL     1       6.653   4.927  18.869  0.00  0.00    +0.000 A 
ATOM      6  C   UNL     1       6.944   4.724  17.523  0.00  0.00    +0.000 A 
ENDROOT
BRANCH   1   8
ATOM      7  O   UNL     1       7.731   5.352  14.557  0.00  0.00    +0.000 OA
ATOM      8  S   UNL     1       6.390   4.892  14.848  0.00  0.00    +0.000 S 
ATOM      9  O   UNL     1       5.244   5.316  14.073  0.00  0.00    +0.000 OA
BRANCH   8  10
ATOM     10  O   UNL     1       6.469   3.287  14.666  0.00  0.00    +0.000 OA
ATOM     11  H   UNL     1       6.909   3.119  13.806  0.00  0.00    +0.000 HD
ENDBRANCH   8  10
ENDBRANCH   1   8
BRANCH   3  12
ATOM     12  N   UNL     1       3.334   6.643  18.602  0.00  0.00    +0.000 N 
ATOM     13  H   UNL     1       3.307   6.922  19.581  0.00  0.00    +0.000 HD
BRANCH  12  14
ATOM     14  C   UNL     1       2.107   5.913  18.257  0.00  0.00    +0.000 C 
BRANCH  14  15
ATOM     15  C   UNL     1       2.047   4.571  18.961  0.00  0.00    +0.000 A 
ATOM     16  C   UNL     1       2.017   4.481  20.365  0.00  0.00    +0.000 A 
ATOM     17  C   UNL     1       1.916   3.236  20.987  0.00  0.00    +0.000 A 
ATOM     18  C   UNL     1       1.822   2.070  20.240  0.00  0.00    +0.000 A 
ATOM     19  C   UNL     1       1.823   2.142  18.847  0.00  0.00    +0.000 A 
ATOM     20  C   UNL     1       1.929   3.385  18.221  0.00  0.00    +0.000 A 
BRANCH  17  21
ATOM     21  O   UNL     1       1.901   3.119  22.344  0.00  0.00    +0.000 OA
ATOM     22  H   UNL     1       0.987   3.215  22.654  0.00  0.00    +0.000 HD
ENDBRANCH  17  21
BRANCH  20  23
ATOM     23  O   UNL     1       1.905   3.460  16.856  0.00  0.00    +0.000 OA
ATOM     24  H   UNL     1       2.117   4.370  16.589  0.00  0.00    +0.000 HD
ENDBRANCH  20  23
ENDBRANCH  14  15
ENDBRANCH  12  14
ENDBRANCH   3  12
BRANCH   6  25
ATOM     25  O   UNL     1       8.100   4.099  17.166  0.00  0.00    +0.000 OA
ATOM     26  H   UNL     1       8.604   4.660  16.551  0.00  0.00    +0.000 HD
ENDBRANCH   6  25
TORSDOF 8
ENDMDL
MODEL 3
REMARK VINA RESULT:      -6.9      2.542      6.311
REMARK  Name = 
REMARK  8 active torsions:
REMARK  status: ('A' for Active; 'I' for Inactive)
REMARK    1  A    between atoms: S_2  and  O_4
REMARK    2  A    between atoms: S_2  and  C_5
REMARK    3  A    between atoms: C_7  and  N_8
REMARK    4  A    between atoms: N_8  and  C_9
REMARK    5  A    between atoms: C_9  and  C_10
REMARK    6  A    between atoms: C_12  and  O_13
REMARK    7  A    between atoms: C_16  and  O_17
REMARK    8  A    between atoms: C_20  and  O_21
REMARK                            x       y       z     vdW  Elec       q    Type
REMARK                         _______ _______ _______ _____ _____    ______ ____
ROOT
ATOM      1  C   UNL     1       2.512   4.188  19.467  0.00  0.00    +0.000 A 
ATOM      2  C   UNL     1       3.253   3.876  18.317  0.00  0.00    +0.000 A 
ATOM      3  C   UNL     1       3.728   4.883  17.466  0.00  0.00    +0.000 A 
ATOM      4  C   UNL     1       3.370   6.203  17.761  0.00  0.00    +0.000 A 
ATOM      5  C   UNL     1       2.625   6.521  18.905  0.00  0.00    +0.000 A 
ATOM      6  C   UNL     1       2.202   5.510  19.764  0.00  0.00    +0.000 A 
ENDROOT
BRANCH   1   8
ATOM      7  O   UNL     1       2.437   3.158  21.879  0.00  0.00    +0.000 OA
ATOM      8  S   UNL     1       1.969   2.894  20.534  0.00  0.00    +0.000 S 
ATOM      9  O   UNL     1       2.194   1.626  19.875  0.00  0.00    +0.000 OA
BRANCH   8  10
ATOM     10  O   UNL     1       0.363   3.056  20.631  0.00  0.00    +0.000 OA
ATOM     11  H   UNL     1       0.069   2.532  21.405  0.00  0.00    +0.000 HD
ENDBRANCH   8  10
ENDBRANCH   1   8
BRANCH   3  12
ATOM     12  N   UNL     1       4.404   4.507  16.296  0.00  0.00    +0.000 N 
ATOM     13  H   UNL     1       3.885   3.790  15.790  0.00  0.00    +0.000 HD
BRANCH  12  14
ATOM     14  C   UNL     1       5.816   4.119  16.403  0.00  0.00    +0.000 C 
BRANCH  14  15
ATOM     15  C   UNL     1       6.600   5.113  17.239  0.00  0.00    +0.000 A 
ATOM     16  C   UNL     1       7.273   4.717  18.410  0.00  0.00    +0.000 A 
ATOM     17  C   UNL     1       8.024   5.642  19.136  0.00  0.00    +0.000 A 
ATOM     18  C   UNL     1       8.140   6.958  18.711  0.00  0.00    +0.000 A 
ATOM     19  C   UNL     1       7.504   7.362  17.539  0.00  0.00    +0.000 A 
ATOM     20  C   UNL     1       6.747   6.441  16.812  0.00  0.00    +0.000 A 
BRANCH  17  21
ATOM     21  O   UNL     1       8.671   5.289  20.281  0.00  0.00    +0.000 OA
ATOM     22  H   UNL     1       8.231   5.719  21.032  0.00  0.00    +0.000 HD
ENDBRANCH  17  21
BRANCH  20  23
ATOM     23  O   UNL     1       6.142   6.830  15.649  0.00  0.00    +0.000 OA
ATOM     24  H   UNL     1       5.576   7.599  15.833  0.00  0.00    +0.000 HD
ENDBRANCH  20  23
ENDBRANCH  14  15
ENDBRANCH  12  14
ENDBRANCH   3  12
BRANCH   6  25
ATOM     25  O   UNL     1       1.485   5.822  20.879  0.00  0.00    +0.000 OA
ATOM     26  H   UNL     1       2.008   6.404  21.457  0.00  0.00    +0.000 HD
ENDBRANCH   6  25
TORSDOF 8
ENDMDL
MODEL 4
REMARK VINA RESULT:      -6.9      2.241      3.489
REMARK  Name = 
REMARK  8 active torsions:
REMARK  status: ('A' for Active; 'I' for Inactive)
REMARK    1  A    between atoms: S_2  and  O_4
REMARK    2  A    between atoms: S_2  and  C_5
REMARK    3  A    between atoms: C_7  and  N_8
REMARK    4  A    between atoms: N_8  and  C_9
REMARK    5  A    between atoms: C_9  and  C_10
REMARK    6  A    between atoms: C_12  and  O_13
REMARK    7  A    between atoms: C_16  and  O_17
REMARK    8  A    between atoms: C_20  and  O_21
REMARK                            x       y       z     vdW  Elec       q    Type
REMARK                         _______ _______ _______ _____ _____    ______ ____
ROOT
ATOM      1  C   UNL     1       5.690   6.079  18.415  0.00  0.00    +0.000 A 
ATOM      2  C   UNL     1       4.741   5.829  19.418  0.00  0.00    +0.000 A 
ATOM      3  C   UNL     1       3.385   6.120  19.220  0.00  0.00    +0.000 A 
ATOM      4  C   UNL     1       3.023   6.741  18.019  0.00  0.00    +0.000 A 
ATOM      5  C   UNL     1       3.968   6.999  17.016  0.00  0.00    +0.000 A 
ATOM      6  C   UNL     1       5.303   6.659  17.213  0.00  0.00    +0.000 A 
ENDROOT
BRANCH   1   8
ATOM      7  O   UNL     1       7.841   4.813  17.607  0.00  0.00    +0.000 OA
ATOM      8  S   UNL     1       7.380   5.658  18.688  0.00  0.00    +0.000 S 
ATOM      9  O   UNL     1       7.548   5.293  20.078  0.00  0.00    +0.000 OA
BRANCH   8  10
ATOM     10  O   UNL     1       8.206   7.036  18.498  0.00  0.00    +0.000 OA
ATOM     11  H   UNL     1       7.650   7.628  17.949  0.00  0.00    +0.000 HD
ENDBRANCH   8  10
ENDBRANCH   1   8
BRANCH   3  12
ATOM     12  N   UNL     1       2.493   5.913  20.284  0.00  0.00    +0.000 N 
ATOM     13  H   UNL     1       2.959   6.044  21.180  0.00  0.00    +0.000 HD
BRANCH  12  14
ATOM     14  C   UNL     1       1.713   4.669  20.303  0.00  0.00    +0.000 C 
BRANCH  14  15
ATOM     15  C   UNL     1       2.449   3.544  19.601  0.00  0.00    +0.000 A 
ATOM     16  C   UNL     1       3.516   2.867  20.220  0.00  0.00    +0.000 A 
ATOM     17  C   UNL     1       4.147   1.806  19.570  0.00  0.00    +0.000 A 
ATOM     18  C   UNL     1       3.726   1.385  18.317  0.00  0.00    +0.000 A 
ATOM     19  C   UNL     1       2.653   2.025  17.699  0.00  0.00    +0.000 A 
ATOM     20  C   UNL     1       2.021   3.090  18.344  0.00  0.00    +0.000 A 
BRANCH  17  21
ATOM     21  O   UNL     1       5.193   1.145  20.140  0.00  0.00    +0.000 OA
ATOM     22  H   UNL     1       5.556   1.695  20.853  0.00  0.00    +0.000 HD
ENDBRANCH  17  21
BRANCH  20  23
ATOM     23  O   UNL     1       0.953   3.704  17.750  0.00  0.00    +0.000 OA
ATOM     24  H   UNL     1       0.375   3.022  17.366  0.00  0.00    +0.000 HD
ENDBRANCH  20  23
ENDBRANCH  14  15
ENDBRANCH  12  14
ENDBRANCH   3  12
BRANCH   6  25
ATOM     25  O   UNL     1       6.217   6.903  16.233  0.00  0.00    +0.000 OA
ATOM     26  H   UNL     1       6.070   6.299  15.485  0.00  0.00    +0.000 HD
ENDBRANCH   6  25
TORSDOF 8
ENDMDL
MODEL 5
REMARK VINA RESULT:      -6.9      3.082      4.541
REMARK  Name = 
REMARK  8 active torsions:
REMARK  status: ('A' for Active; 'I' for Inactive)
REMARK    1  A    between atoms: S_2  and  O_4
REMARK    2  A    between atoms: S_2  and  C_5
REMARK    3  A    between atoms: C_7  and  N_8
REMARK    4  A    between atoms: N_8  and  C_9
REMARK    5  A    between atoms: C_9  and  C_10
REMARK    6  A    between atoms: C_12  and  O_13
REMARK    7  A    between atoms: C_16  and  O_17
REMARK    8  A    between atoms: C_20  and  O_21
REMARK                            x       y       z     vdW  Elec       q    Type
REMARK                         _______ _______ _______ _____ _____    ______ ____
ROOT
ATOM      1  C   UNL     1       5.415   5.189  17.110  0.00  0.00    +0.000 A 
ATOM      2  C   UNL     1       4.557   6.085  17.766  0.00  0.00    +0.000 A 
ATOM      3  C   UNL     1       3.240   5.726  18.082  0.00  0.00    +0.000 A 
ATOM      4  C   UNL     1       2.787   4.474  17.651  0.00  0.00    +0.000 A 
ATOM      5  C   UNL     1       3.638   3.577  16.990  0.00  0.00    +0.000 A 
ATOM      6  C   UNL     1       4.957   3.934  16.726  0.00  0.00    +0.000 A 
ENDROOT
BRANCH   1   8
ATOM      7  O   UNL     1       7.980   4.708  17.376  0.00  0.00    +0.000 OA
ATOM      8  S   UNL     1       7.078   5.664  16.768  0.00  0.00    +0.000 S 
ATOM      9  O   UNL     1       7.206   7.089  16.983  0.00  0.00    +0.000 OA
BRANCH   8  10
ATOM     10  O   UNL     1       7.274   5.443  15.178  0.00  0.00    +0.000 OA
ATOM     11  H   UNL     1       8.066   4.877  15.064  0.00  0.00    +0.000 HD
ENDBRANCH   8  10
ENDBRANCH   1   8
BRANCH   3  12
ATOM     12  N   UNL     1       2.409   6.688  18.677  0.00  0.00    +0.000 N 
ATOM     13  H   UNL     1       1.428   6.430  18.580  0.00  0.00    +0.000 HD
BRANCH  12  14
ATOM     14  C   UNL     1       2.595   8.095  18.300  0.00  0.00    +0.000 C 
BRANCH  14  15
ATOM     15  C   UNL     1       1.476   8.964  18.843  0.00  0.00    +0.000 A 
ATOM     16  C   UNL     1       0.696   9.769  17.993  0.00  0.00    +0.000 A 
ATOM     17  C   UNL     1      -0.356  10.525  18.512  0.00  0.00    +0.000 A 
ATOM     18  C   UNL     1      -0.667  10.483  19.863  0.00  0.00    +0.000 A 
ATOM     19  C   UNL     1       0.077   9.669  20.717  0.00  0.00    +0.000 A 
ATOM     20  C   UNL     1       1.134   8.915  20.202  0.00  0.00    +0.000 A 
BRANCH  17  21
ATOM     21  O   UNL     1      -1.117  11.325  17.714  0.00  0.00    +0.000 OA
ATOM     22  H   UNL     1      -0.624  11.509  16.898  0.00  0.00    +0.000 HD
ENDBRANCH  17  21
BRANCH  20  23
ATOM     23  O   UNL     1       1.849   8.098  21.033  0.00  0.00    +0.000 OA
ATOM     24  H   UNL     1       1.350   7.977  21.859  0.00  0.00    +0.000 HD
ENDBRANCH  20  23
ENDBRANCH  14  15
ENDBRANCH  12  14
ENDBRANCH   3  12
BRANCH   6  25
ATOM     25  O   UNL     1       5.784   3.057  16.091  0.00  0.00    +0.000 OA
ATOM     26  H   UNL     1       5.265   2.326  15.714  0.00  0.00    +0.000 HD
ENDBRANCH   6  25
TORSDOF 8
ENDMDL
MODEL 6
REMARK VINA RESULT:      -6.8      4.288      6.564
REMARK  Name = 
REMARK  8 active torsions:
REMARK  status: ('A' for Active; 'I' for Inactive)
REMARK    1  A    between atoms: S_2  and  O_4
REMARK    2  A    between atoms: S_2  and  C_5
REMARK    3  A    between atoms: C_7  and  N_8
REMARK    4  A    between atoms: N_8  and  C_9
REMARK    5  A    between atoms: C_9  and  C_10
REMARK    6  A    between atoms: C_12  and  O_13
REMARK    7  A    between atoms: C_16  and  O_17
REMARK    8  A    between atoms: C_20  and  O_21
REMARK                            x       y       z     vdW  Elec       q    Type
REMARK                         _______ _______ _______ _____ _____    ______ ____
ROOT
ATOM      1  C   UNL     1       1.130   9.426  20.112  0.00  0.00    +0.000 A 
ATOM      2  C   UNL     1       1.484   8.204  20.704  0.00  0.00    +0.000 A 
ATOM      3  C   UNL     1       2.119   7.198  19.963  0.00  0.00    +0.000 A 
ATOM      4  C   UNL     1       2.316   7.425  18.596  0.00  0.00    +0.000 A 
ATOM      5  C   UNL     1       1.959   8.642  17.998  0.00  0.00    +0.000 A 
ATOM      6  C   UNL     1       1.372   9.647  18.761  0.00  0.00    +0.000 A 
ENDROOT
BRANCH   1   8
ATOM      7  O   UNL     1       0.444  10.308  22.485  0.00  0.00    +0.000 OA
ATOM      8  S   UNL     1       0.371  10.682  21.089  0.00  0.00    +0.000 S 
ATOM      9  O   UNL     1      -0.873  11.070  20.459  0.00  0.00    +0.000 OA
BRANCH   8  10
ATOM     10  O   UNL     1       1.341  11.971  20.968  0.00  0.00    +0.000 OA
ATOM     11  H   UNL     1       1.482  12.133  20.012  0.00  0.00    +0.000 HD
ENDBRANCH   8  10
ENDBRANCH   1   8
BRANCH   3  12
ATOM     12  N   UNL     1       2.387   5.972  20.591  0.00  0.00    +0.000 N 
ATOM     13  H   UNL     1       3.371   5.724  20.499  0.00  0.00    +0.000 HD
BRANCH  12  14
ATOM     14  C   UNL     1       1.546   4.818  20.249  0.00  0.00    +0.000 C 
BRANCH  14  15
ATOM     15  C   UNL     1       2.341   3.753  19.520  0.00  0.00    +0.000 A 
ATOM     16  C   UNL     1       3.405   3.075  20.145  0.00  0.00    +0.000 A 
ATOM     17  C   UNL     1       4.091   2.067  19.467  0.00  0.00    +0.000 A 
ATOM     18  C   UNL     1       3.729   1.698  18.179  0.00  0.00    +0.000 A 
ATOM     19  C   UNL     1       2.660   2.338  17.554  0.00  0.00    +0.000 A 
ATOM     20  C   UNL     1       1.974   3.351  18.227  0.00  0.00    +0.000 A 
BRANCH  17  21
ATOM     21  O   UNL     1       5.135   1.408  20.043  0.00  0.00    +0.000 OA
ATOM     22  H   UNL     1       5.825   1.275  19.374  0.00  0.00    +0.000 HD
ENDBRANCH  17  21
BRANCH  20  23
ATOM     23  O   UNL     1       0.910   3.963  17.624  0.00  0.00    +0.000 OA
ATOM     24  H   UNL     1       0.395   4.435  18.302  0.00  0.00    +0.000 HD
ENDBRANCH  20  23
ENDBRANCH  14  15
ENDBRANCH  12  14
ENDBRANCH   3  12
BRANCH   6  25
ATOM     25  O   UNL     1       1.033  10.831  18.179  0.00  0.00    +0.000 OA
ATOM     26  H   UNL     1       0.346  11.274  18.705  0.00  0.00    +0.000 HD
ENDBRANCH   6  25
TORSDOF 8
ENDMDL
MODEL 7
REMARK VINA RESULT:      -6.8      2.577      6.257
REMARK  Name = 
REMARK  8 active torsions:
REMARK  status: ('A' for Active; 'I' for Inactive)
REMARK    1  A    between atoms: S_2  and  O_4
REMARK    2  A    between atoms: S_2  and  C_5
REMARK    3  A    between atoms: C_7  and  N_8
REMARK    4  A    between atoms: N_8  and  C_9
REMARK    5  A    between atoms: C_9  and  C_10
REMARK    6  A    between atoms: C_12  and  O_13
REMARK    7  A    between atoms: C_16  and  O_17
REMARK    8  A    between atoms: C_20  and  O_21
REMARK                            x       y       z     vdW  Elec       q    Type
REMARK                         _______ _______ _______ _____ _____    ______ ____
ROOT
ATOM      1  C   UNL     1       2.624   4.004  19.207  0.00  0.00    +0.000 A 
ATOM      2  C   UNL     1       3.288   4.417  18.042  0.00  0.00    +0.000 A 
ATOM      3  C   UNL     1       3.833   3.484  17.150  0.00  0.00    +0.000 A 
ATOM      4  C   UNL     1       3.761   2.131  17.502  0.00  0.00    +0.000 A 
ATOM      5  C   UNL     1       3.105   1.713  18.668  0.00  0.00    +0.000 A 
ATOM      6  C   UNL     1       2.529   2.652  19.518  0.00  0.00    +0.000 A 
ENDROOT
BRANCH   1   8
ATOM      7  O   UNL     1       0.527   4.876  20.520  0.00  0.00    +0.000 OA
ATOM      8  S   UNL     1       1.915   5.208  20.282  0.00  0.00    +0.000 S 
ATOM      9  O   UNL     1       2.329   6.523  19.841  0.00  0.00    +0.000 OA
BRANCH   8  10
ATOM     10  O   UNL     1       2.631   4.985  21.716  0.00  0.00    +0.000 OA
ATOM     11  H   UNL     1       1.925   4.746  22.352  0.00  0.00    +0.000 HD
ENDBRANCH   8  10
ENDBRANCH   1   8
BRANCH   3  12
ATOM     12  N   UNL     1       4.544   3.957  16.037  0.00  0.00    +0.000 N 
ATOM     13  H   UNL     1       4.187   3.547  15.176  0.00  0.00    +0.000 HD
BRANCH  12  14
ATOM     14  C   UNL     1       6.010   3.872  16.061  0.00  0.00    +0.000 C 
BRANCH  14  15
ATOM     15  C   UNL     1       6.610   4.933  16.963  0.00  0.00    +0.000 A 
ATOM     16  C   UNL     1       7.362   4.588  18.101  0.00  0.00    +0.000 A 
ATOM     17  C   UNL     1       7.942   5.583  18.889  0.00  0.00    +0.000 A 
ATOM     18  C   UNL     1       7.808   6.924  18.558  0.00  0.00    +0.000 A 
ATOM     19  C   UNL     1       7.090   7.284  17.418  0.00  0.00    +0.000 A 
ATOM     20  C   UNL     1       6.504   6.291  16.630  0.00  0.00    +0.000 A 
BRANCH  17  21
ATOM     21  O   UNL     1       8.661   5.277  20.004  0.00  0.00    +0.000 OA
ATOM     22  H   UNL     1       8.486   5.950  20.681  0.00  0.00    +0.000 HD
ENDBRANCH  17  21
BRANCH  20  23
ATOM     23  O   UNL     1       5.820   6.641  15.499  0.00  0.00    +0.000 OA
ATOM     24  H   UNL     1       4.931   6.250  15.538  0.00  0.00    +0.000 HD
ENDBRANCH  20  23
ENDBRANCH  14  15
ENDBRANCH  12  14
ENDBRANCH   3  12
BRANCH   6  25
ATOM     25  O   UNL     1       1.885   2.243  20.646  0.00  0.00    +0.000 OA
ATOM     26  H   UNL     1       1.074   1.761  20.409  0.00  0.00    +0.000 HD
ENDBRANCH   6  25
TORSDOF 8
ENDMDL
MODEL 8
REMARK VINA RESULT:      -6.7      3.991      6.652
REMARK  Name = 
REMARK  8 active torsions:
REMARK  status: ('A' for Active; 'I' for Inactive)
REMARK    1  A    between atoms: S_2  and  O_4
REMARK    2  A    between atoms: S_2  and  C_5
REMARK    3  A    between atoms: C_7  and  N_8
REMARK    4  A    between atoms: N_8  and  C_9
REMARK    5  A    between atoms: C_9  and  C_10
REMARK    6  A    between atoms: C_12  and  O_13
REMARK    7  A    between atoms: C_16  and  O_17
REMARK    8  A    between atoms: C_20  and  O_21
REMARK                            x       y       z     vdW  Elec       q    Type
REMARK                         _______ _______ _______ _____ _____    ______ ____
ROOT
ATOM      1  C   UNL     1       1.008   9.659  20.113  0.00  0.00    +0.000 A 
ATOM      2  C   UNL     1       1.503   8.440  20.602  0.00  0.00    +0.000 A 
ATOM      3  C   UNL     1       2.154   7.532  19.756  0.00  0.00    +0.000 A 
ATOM      4  C   UNL     1       2.222   7.848  18.394  0.00  0.00    +0.000 A 
ATOM      5  C   UNL     1       1.723   9.061  17.899  0.00  0.00    +0.000 A 
ATOM      6  C   UNL     1       1.122   9.971  18.763  0.00  0.00    +0.000 A 
ENDROOT
BRANCH   1   8
ATOM      7  O   UNL     1       0.373  10.306  22.575  0.00  0.00    +0.000 OA
ATOM      8  S   UNL     1       0.233  10.793  21.218  0.00  0.00    +0.000 S 
ATOM      9  O   UNL     1      -1.048  11.176  20.665  0.00  0.00    +0.000 OA
BRANCH   8  10
ATOM     10  O   UNL     1       1.143  12.129  21.177  0.00  0.00    +0.000 OA
ATOM     11  H   UNL     1       0.928  12.595  20.342  0.00  0.00    +0.000 HD
ENDBRANCH   8  10
ENDBRANCH   1   8
BRANCH   3  12
ATOM     12  N   UNL     1       2.567   6.301  20.287  0.00  0.00    +0.000 N 
ATOM     13  H   UNL     1       2.780   6.385  21.280  0.00  0.00    +0.000 HD
BRANCH  12  14
ATOM     14  C   UNL     1       3.647   5.578  19.604  0.00  0.00    +0.000 C 
BRANCH  14  15
ATOM     15  C   UNL     1       3.214   4.178  19.212  0.00  0.00    +0.000 A 
ATOM     16  C   UNL     1       1.856   3.853  19.037  0.00  0.00    +0.000 A 
ATOM     17  C   UNL     1       1.486   2.570  18.633  0.00  0.00    +0.000 A 
ATOM     18  C   UNL     1       2.444   1.600  18.375  0.00  0.00    +0.000 A 
ATOM     19  C   UNL     1       3.796   1.910  18.516  0.00  0.00    +0.000 A 
ATOM     20  C   UNL     1       4.169   3.192  18.925  0.00  0.00    +0.000 A 
BRANCH  17  21
ATOM     21  O   UNL     1       0.179   2.225  18.472  0.00  0.00    +0.000 OA
ATOM     22  H   UNL     1      -0.374   2.995  18.681  0.00  0.00    +0.000 HD
ENDBRANCH  17  21
BRANCH  20  23
ATOM     23  O   UNL     1       5.495   3.506  19.040  0.00  0.00    +0.000 OA
ATOM     24  H   UNL     1       5.619   4.438  18.791  0.00  0.00    +0.000 HD
ENDBRANCH  20  23
ENDBRANCH  14  15
ENDBRANCH  12  14
ENDBRANCH   3  12
BRANCH   6  25
ATOM     25  O   UNL     1       0.646  11.153  18.281  0.00  0.00    +0.000 OA
ATOM     26  H   UNL     1       0.164  11.001  17.450  0.00  0.00    +0.000 HD
ENDBRANCH   6  25
TORSDOF 8
ENDMDL
MODEL 9
REMARK VINA RESULT:      -6.7      2.909      6.745
REMARK  Name = 
REMARK  8 active torsions:
REMARK  status: ('A' for Active; 'I' for Inactive)
REMARK    1  A    between atoms: S_2  and  O_4
REMARK    2  A    between atoms: S_2  and  C_5
REMARK    3  A    between atoms: C_7  and  N_8
REMARK    4  A    between atoms: N_8  and  C_9
REMARK    5  A    between atoms: C_9  and  C_10
REMARK    6  A    between atoms: C_12  and  O_13
REMARK    7  A    between atoms: C_16  and  O_17
REMARK    8  A    between atoms: C_20  and  O_21
REMARK                            x       y       z     vdW  Elec       q    Type
REMARK                         _______ _______ _______ _____ _____    ______ ____
ROOT
ATOM      1  C   UNL     1       2.624   4.344  19.182  0.00  0.00    +0.000 A 
ATOM      2  C   UNL     1       3.468   4.316  18.061  0.00  0.00    +0.000 A 
ATOM      3  C   UNL     1       3.952   5.501  17.489  0.00  0.00    +0.000 A 
ATOM      4  C   UNL     1       3.501   6.712  18.027  0.00  0.00    +0.000 A 
ATOM      5  C   UNL     1       2.654   6.746  19.143  0.00  0.00    +0.000 A 
ATOM      6  C   UNL     1       2.221   5.558  19.726  0.00  0.00    +0.000 A 
ENDROOT
BRANCH   1   8
ATOM      7  O   UNL     1       2.550   2.745  21.260  0.00  0.00    +0.000 OA
ATOM      8  S   UNL     1       2.072   2.830  19.896  0.00  0.00    +0.000 S 
ATOM      9  O   UNL     1       2.276   1.765  18.939  0.00  0.00    +0.000 OA
BRANCH   8  10
ATOM     10  O   UNL     1       0.468   2.981  20.045  0.00  0.00    +0.000 OA
ATOM     11  H   UNL     1       0.260   3.933  19.938  0.00  0.00    +0.000 HD
ENDBRANCH   8  10
ENDBRANCH   1   8
BRANCH   3  12
ATOM     12  N   UNL     1       4.736   5.413  16.329  0.00  0.00    +0.000 N 
ATOM     13  H   UNL     1       4.192   5.659  15.503  0.00  0.00    +0.000 HD
BRANCH  12  14
ATOM     14  C   UNL     1       5.479   4.170  16.085  0.00  0.00    +0.000 C 
BRANCH  14  15
ATOM     15  C   UNL     1       6.035   4.127  14.675  0.00  0.00    +0.000 A 
ATOM     16  C   UNL     1       5.457   3.312  13.683  0.00  0.00    +0.000 A 
ATOM     17  C   UNL     1       5.960   3.325  12.382  0.00  0.00    +0.000 A 
ATOM     18  C   UNL     1       7.020   4.150  12.035  0.00  0.00    +0.000 A 
ATOM     19  C   UNL     1       7.588   4.985  12.996  0.00  0.00    +0.000 A 
ATOM     20  C   UNL     1       7.091   4.971  14.301  0.00  0.00    +0.000 A 
BRANCH  17  21
ATOM     21  O   UNL     1       5.430   2.535  11.408  0.00  0.00    +0.000 OA
ATOM     22  H   UNL     1       4.466   2.648  11.406  0.00  0.00    +0.000 HD
ENDBRANCH  17  21
BRANCH  20  23
ATOM     23  O   UNL     1       7.631   5.806  15.239  0.00  0.00    +0.000 OA
ATOM     24  H   UNL     1       7.051   6.581  15.339  0.00  0.00    +0.000 HD
ENDBRANCH  20  23
ENDBRANCH  14  15
ENDBRANCH  12  14
ENDBRANCH   3  12
BRANCH   6  25
ATOM     25  O   UNL     1       1.404   5.594  20.815  0.00  0.00    +0.000 OA
ATOM     26  H   UNL     1       0.968   6.461  20.873  0.00  0.00    +0.000 HD
ENDBRANCH   6  25
TORSDOF 8
ENDMDL
