MODEL 1
REMARK VINA RESULT:      -7.7      0.000      0.000
REMARK  Name = 
REMARK  2 active torsions:
REMARK  status: ('A' for Active; 'I' for Inactive)
REMARK    1  A    between atoms: C_1  and  C_13
REMARK    2  A    between atoms: N_2  and  N_3
REMARK                            x       y       z     vdW  Elec       q    Type
REMARK                         _______ _______ _______ _____ _____    ______ ____
ROOT
ATOM      1  N   UNL     1       6.110   4.216  18.167  0.00  0.00    +0.000 N 
ATOM      2  C   UNL     1       4.807   3.895  18.511  0.00  0.00    +0.000 A 
ATOM      3  C   UNL     1       4.114   2.787  17.764  0.00  0.00    +0.000 A 
ATOM      4  C   UNL     1       2.841   2.499  18.053  0.00  0.00    +0.000 A 
ATOM      5  C   UNL     1       2.192   3.250  19.047  0.00  0.00    +0.000 A 
ATOM      6  N   UNL     1       0.969   3.230  19.528  0.00  0.00    +0.000 NA
ATOM      7  N   UNL     1       0.881   4.214  20.489  0.00  0.00    +0.000 NA
ATOM      8  C   UNL     1       2.056   4.800  20.565  0.00  0.00    +0.000 A 
ATOM      9  N   UNL     1       2.928   4.229  19.682  0.00  0.00    +0.000 N 
ATOM     10  N   UNL     1       4.232   4.583  19.466  0.00  0.00    +0.000 NA
ATOM     11  H   UNL     1       6.471   5.009  18.697  0.00  0.00    +0.000 HD
ENDROOT
BRANCH   1  13
ATOM     12  C   UNL     1       6.248   4.899  16.013  0.00  0.00    +0.000 C 
ATOM     13  N   UNL     1       6.572   4.015  16.900  0.00  0.00    +0.000 NA
BRANCH  12  14
ATOM     14  C   UNL     1       6.633   4.713  14.598  0.00  0.00    +0.000 A 
ATOM     15  C   UNL     1       5.929   3.826  13.789  0.00  0.00    +0.000 A 
ATOM     16  C   UNL     1       6.302   3.713  12.455  0.00  0.00    +0.000 A 
ATOM     17  C   UNL     1       7.359   4.483  11.982  0.00  0.00    +0.000 A 
ATOM     18  C   UNL     1       8.003   5.337  12.867  0.00  0.00    +0.000 A 
ATOM     19  N   UNL     1       7.664   5.476  14.168  0.00  0.00    +0.000 NA
ENDBRANCH  12  14
ENDBRANCH   1  13
TORSDOF 2
ENDMDL
MODEL 2
REMARK VINA RESULT:      -6.9      0.966      1.333
REMARK  Name = 
REMARK  2 active torsions:
REMARK  status: ('A' for Active; 'I' for Inactive)
REMARK    1  A    between atoms: C_1  and  C_13
REMARK    2  A    between atoms: N_2  and  N_3
REMARK                            x       y       z     vdW  Elec       q    Type
REMARK                         _______ _______ _______ _____ _____    ______ ____
ROOT
ATOM      1  N   UNL     1       5.598   4.076  17.755  0.00  0.00    +0.000 N 
ATOM      2  C   UNL     1       4.495   3.582  18.431  0.00  0.00    +0.000 A 
ATOM      3  C   UNL     1       3.786   2.377  17.874  0.00  0.00    +0.000 A 
ATOM      4  C   UNL     1       2.690   1.919  18.488  0.00  0.00    +0.000 A 
ATOM      5  C   UNL     1       2.237   2.588  19.637  0.00  0.00    +0.000 A 
ATOM      6  N   UNL     1       1.204   2.406  20.430  0.00  0.00    +0.000 NA
ATOM      7  N   UNL     1       1.245   3.383  21.401  0.00  0.00    +0.000 NA
ATOM      8  C   UNL     1       2.304   4.127  21.171  0.00  0.00    +0.000 A 
ATOM      9  N   UNL     1       2.975   3.670  20.073  0.00  0.00    +0.000 N 
ATOM     10  N   UNL     1       4.110   4.198  19.521  0.00  0.00    +0.000 NA
ATOM     11  H   UNL     1       5.977   4.919  18.187  0.00  0.00    +0.000 HD
ENDROOT
BRANCH   1  13
ATOM     12  C   UNL     1       6.687   4.568  15.832  0.00  0.00    +0.000 C 
ATOM     13  N   UNL     1       5.724   3.921  16.407  0.00  0.00    +0.000 NA
BRANCH  12  14
ATOM     14  C   UNL     1       6.842   4.527  14.363  0.00  0.00    +0.000 A 
ATOM     15  C   UNL     1       7.720   5.396  13.725  0.00  0.00    +0.000 A 
ATOM     16  C   UNL     1       7.863   5.294  12.346  0.00  0.00    +0.000 A 
ATOM     17  C   UNL     1       7.126   4.335  11.660  0.00  0.00    +0.000 A 
ATOM     18  C   UNL     1       6.271   3.514  12.385  0.00  0.00    +0.000 A 
ATOM     19  N   UNL     1       6.112   3.582  13.725  0.00  0.00    +0.000 NA
ENDBRANCH  12  14
ENDBRANCH   1  13
TORSDOF 2
ENDMDL
MODEL 3
REMARK VINA RESULT:      -6.7      6.607      8.800
REMARK  Name = 
REMARK  2 active torsions:
REMARK  status: ('A' for Active; 'I' for Inactive)
REMARK    1  A    between atoms: C_1  and  C_13
REMARK    2  A    between atoms: N_2  and  N_3
REMARK                            x       y       z     vdW  Elec       q    Type
REMARK                         _______ _______ _______ _____ _____    ______ ____
ROOT
ATOM      1  N   UNL     1       8.885   9.099  18.893  0.00  0.00    +0.000 N 
ATOM      2  C   UNL     1       9.301  10.406  18.704  0.00  0.00    +0.000 A 
ATOM      3  C   UNL     1       8.433  11.331  17.894  0.00  0.00    +0.000 A 
ATOM      4  C   UNL     1       8.847  12.581  17.662  0.00  0.00    +0.000 A 
ATOM      5  C   UNL     1      10.087  12.985  18.184  0.00  0.00    +0.000 A 
ATOM      6  N   UNL     1      10.766  14.109  18.110  0.00  0.00    +0.000 NA
ATOM      7  N   UNL     1      11.943  13.932  18.805  0.00  0.00    +0.000 NA
ATOM      8  C   UNL     1      11.942  12.707  19.283  0.00  0.00    +0.000 A 
ATOM      9  N   UNL     1      10.791  12.062  18.929  0.00  0.00    +0.000 N 
ATOM     10  N   UNL     1      10.443  10.773  19.230  0.00  0.00    +0.000 NA
ATOM     11  H   UNL     1       9.563   8.542  19.413  0.00  0.00    +0.000 HD
ENDROOT
BRANCH   1  13
ATOM     12  C   UNL     1       7.827   7.224  18.189  0.00  0.00    +0.000 C 
ATOM     13  N   UNL     1       8.096   8.472  17.974  0.00  0.00    +0.000 NA
BRANCH  12  14
ATOM     14  C   UNL     1       7.053   6.446  17.199  0.00  0.00    +0.000 A 
ATOM     15  C   UNL     1       5.764   6.837  16.852  0.00  0.00    +0.000 A 
ATOM     16  C   UNL     1       5.089   6.098  15.887  0.00  0.00    +0.000 A 
ATOM     17  C   UNL     1       5.722   5.002  15.311  0.00  0.00    +0.000 A 
ATOM     18  C   UNL     1       7.009   4.688  15.725  0.00  0.00    +0.000 A 
ATOM     19  N   UNL     1       7.697   5.388  16.656  0.00  0.00    +0.000 NA
ENDBRANCH  12  14
ENDBRANCH   1  13
TORSDOF 2
ENDMDL
MODEL 4
REMARK VINA RESULT:      -6.7      5.974      7.557
REMARK  Name = 
REMARK  2 active torsions:
REMARK  status: ('A' for Active; 'I' for Inactive)
REMARK    1  A    between atoms: C_1  and  C_13
REMARK    2  A    between atoms: N_2  and  N_3
REMARK                            x       y       z     vdW  Elec       q    Type
REMARK                         _______ _______ _______ _____ _____    ______ ____
ROOT
ATOM      1  N   UNL     1       7.352   8.940  17.656  0.00  0.00    +0.000 N 
ATOM      2  C   UNL     1       7.119   7.590  17.454  0.00  0.00    +0.000 A 
ATOM      3  C   UNL     1       7.797   6.596  18.359  0.00  0.00    +0.000 A 
ATOM      4  C   UNL     1       7.620   5.288  18.144  0.00  0.00    +0.000 A 
ATOM      5  C   UNL     1       6.804   4.889  17.072  0.00  0.00    +0.000 A 
ATOM      6  N   UNL     1       6.464   3.711  16.597  0.00  0.00    +0.000 NA
ATOM      7  N   UNL     1       5.647   3.920  15.507  0.00  0.00    +0.000 NA
ATOM      8  C   UNL     1       5.512   5.219  15.355  0.00  0.00    +0.000 A 
ATOM      9  N   UNL     1       6.216   5.884  16.319  0.00  0.00    +0.000 N 
ATOM     10  N   UNL     1       6.326   7.239  16.472  0.00  0.00    +0.000 NA
ATOM     11  H   UNL     1       6.886   9.526  16.964  0.00  0.00    +0.000 HD
ENDROOT
BRANCH   1  13
ATOM     12  C   UNL     1       8.691  10.659  18.271  0.00  0.00    +0.000 C 
ATOM     13  N   UNL     1       8.525   9.378  18.196  0.00  0.00    +0.000 NA
BRANCH  12  14
ATOM     14  C   UNL     1       9.968  11.220  18.762  0.00  0.00    +0.000 A 
ATOM     15  C   UNL     1      10.978  11.554  17.866  0.00  0.00    +0.000 A 
ATOM     16  C   UNL     1      12.146  12.115  18.370  0.00  0.00    +0.000 A 
ATOM     17  C   UNL     1      12.261  12.317  19.741  0.00  0.00    +0.000 A 
ATOM     18  C   UNL     1      11.199  11.947  20.556  0.00  0.00    +0.000 A 
ATOM     19  N   UNL     1      10.048  11.405  20.099  0.00  0.00    +0.000 NA
ENDBRANCH  12  14
ENDBRANCH   1  13
TORSDOF 2
ENDMDL
MODEL 5
REMARK VINA RESULT:      -6.6      3.960      8.221
REMARK  Name = 
REMARK  2 active torsions:
REMARK  status: ('A' for Active; 'I' for Inactive)
REMARK    1  A    between atoms: C_1  and  C_13
REMARK    2  A    between atoms: N_2  and  N_3
REMARK                            x       y       z     vdW  Elec       q    Type
REMARK                         _______ _______ _______ _____ _____    ______ ____
ROOT
ATOM      1  N   UNL     1       2.670   7.466  18.069  0.00  0.00    +0.000 N 
ATOM      2  C   UNL     1       3.765   6.620  18.113  0.00  0.00    +0.000 A 
ATOM      3  C   UNL     1       3.848   5.600  19.217  0.00  0.00    +0.000 A 
ATOM      4  C   UNL     1       4.923   4.811  19.301  0.00  0.00    +0.000 A 
ATOM      5  C   UNL     1       5.946   4.968  18.350  0.00  0.00    +0.000 A 
ATOM      6  N   UNL     1       7.110   4.379  18.183  0.00  0.00    +0.000 NA
ATOM      7  N   UNL     1       7.713   4.951  17.084  0.00  0.00    +0.000 NA
ATOM      8  C   UNL     1       6.895   5.868  16.614  0.00  0.00    +0.000 A 
ATOM      9  N   UNL     1       5.758   5.919  17.369  0.00  0.00    +0.000 N 
ATOM     10  N   UNL     1       4.691   6.758  17.196  0.00  0.00    +0.000 NA
ATOM     11  H   UNL     1       2.732   8.149  17.314  0.00  0.00    +0.000 HD
ENDROOT
BRANCH   1  13
ATOM     12  C   UNL     1       1.432   8.973  19.219  0.00  0.00    +0.000 C 
ATOM     13  N   UNL     1       2.001   7.811  19.206  0.00  0.00    +0.000 NA
BRANCH  12  14
ATOM     14  C   UNL     1       0.761   9.463  20.442  0.00  0.00    +0.000 A 
ATOM     15  C   UNL     1       1.015   8.861  21.670  0.00  0.00    +0.000 A 
ATOM     16  C   UNL     1       0.393   9.380  22.799  0.00  0.00    +0.000 A 
ATOM     17  C   UNL     1      -0.457  10.472  22.659  0.00  0.00    +0.000 A 
ATOM     18  C   UNL     1      -0.650  11.002  21.391  0.00  0.00    +0.000 A 
ATOM     19  N   UNL     1      -0.057  10.526  20.273  0.00  0.00    +0.000 NA
ENDBRANCH  12  14
ENDBRANCH   1  13
TORSDOF 2
ENDMDL
MODEL 6
REMARK VINA RESULT:      -6.6      4.492      8.574
REMARK  Name = 
REMARK  2 active torsions:
REMARK  status: ('A' for Active; 'I' for Inactive)
REMARK    1  A    between atoms: C_1  and  C_13
REMARK    2  A    between atoms: N_2  and  N_3
REMARK                            x       y       z     vdW  Elec       q    Type
REMARK                         _______ _______ _______ _____ _____    ______ ____
ROOT
ATOM      1  N   UNL     1       2.135   7.590  19.657  0.00  0.00    +0.000 N 
ATOM      2  C   UNL     1       2.448   6.251  19.822  0.00  0.00    +0.000 A 
ATOM      3  C   UNL     1       1.489   5.372  20.579  0.00  0.00    +0.000 A 
ATOM      4  C   UNL     1       1.802   4.090  20.789  0.00  0.00    +0.000 A 
ATOM      5  C   UNL     1       3.027   3.609  20.295  0.00  0.00    +0.000 A 
ATOM      6  N   UNL     1       3.619   2.437  20.359  0.00  0.00    +0.000 NA
ATOM      7  N   UNL     1       4.828   2.543  19.707  0.00  0.00    +0.000 NA
ATOM      8  C   UNL     1       4.932   3.777  19.263  0.00  0.00    +0.000 A 
ATOM      9  N   UNL     1       3.821   4.496  19.598  0.00  0.00    +0.000 N 
ATOM     10  N   UNL     1       3.578   5.814  19.322  0.00  0.00    +0.000 NA
ATOM     11  H   UNL     1       2.868   8.108  19.173  0.00  0.00    +0.000 HD
ENDROOT
BRANCH   1  13
ATOM     12  C   UNL     1       0.845   9.374  20.189  0.00  0.00    +0.000 C 
ATOM     13  N   UNL     1       1.364   8.250  20.567  0.00  0.00    +0.000 NA
BRANCH  12  14
ATOM     14  C   UNL     1       0.069  10.196  21.141  0.00  0.00    +0.000 A 
ATOM     15  C   UNL     1      -0.397  11.452  20.765  0.00  0.00    +0.000 A 
ATOM     16  C   UNL     1      -1.157  12.172  21.680  0.00  0.00    +0.000 A 
ATOM     17  C   UNL     1      -1.417  11.617  22.927  0.00  0.00    +0.000 A 
ATOM     18  C   UNL     1      -0.905  10.358  23.212  0.00  0.00    +0.000 A 
ATOM     19  N   UNL     1      -0.168   9.627  22.345  0.00  0.00    +0.000 NA
ENDBRANCH  12  14
ENDBRANCH   1  13
TORSDOF 2
ENDMDL
MODEL 7
REMARK VINA RESULT:      -6.5      1.367      1.491
REMARK  Name = 
REMARK  2 active torsions:
REMARK  status: ('A' for Active; 'I' for Inactive)
REMARK    1  A    between atoms: C_1  and  C_13
REMARK    2  A    between atoms: N_2  and  N_3
REMARK                            x       y       z     vdW  Elec       q    Type
REMARK                         _______ _______ _______ _____ _____    ______ ____
ROOT
ATOM      1  N   UNL     1       5.378   6.570  17.474  0.00  0.00    +0.000 N 
ATOM      2  C   UNL     1       4.779   5.652  18.321  0.00  0.00    +0.000 A 
ATOM      3  C   UNL     1       5.347   4.260  18.398  0.00  0.00    +0.000 A 
ATOM      4  C   UNL     1       4.749   3.351  19.174  0.00  0.00    +0.000 A 
ATOM      5  C   UNL     1       3.602   3.732  19.890  0.00  0.00    +0.000 A 
ATOM      6  N   UNL     1       2.792   3.079  20.696  0.00  0.00    +0.000 NA
ATOM      7  N   UNL     1       1.811   3.957  21.103  0.00  0.00    +0.000 NA
ATOM      8  C   UNL     1       2.056   5.117  20.536  0.00  0.00    +0.000 A 
ATOM      9  N   UNL     1       3.179   5.038  19.762  0.00  0.00    +0.000 N 
ATOM     10  N   UNL     1       3.732   6.037  19.009  0.00  0.00    +0.000 NA
ATOM     11  H   UNL     1       4.892   7.466  17.459  0.00  0.00    +0.000 HD
ENDROOT
BRANCH   1  13
ATOM     12  C   UNL     1       5.356   5.454  15.504  0.00  0.00    +0.000 C 
ATOM     13  N   UNL     1       6.032   6.165  16.348  0.00  0.00    +0.000 NA
BRANCH  12  14
ATOM     14  C   UNL     1       6.012   4.900  14.300  0.00  0.00    +0.000 A 
ATOM     15  C   UNL     1       5.393   3.896  13.563  0.00  0.00    +0.000 A 
ATOM     16  C   UNL     1       6.029   3.433  12.417  0.00  0.00    +0.000 A 
ATOM     17  C   UNL     1       7.251   3.986  12.053  0.00  0.00    +0.000 A 
ATOM     18  C   UNL     1       7.792   4.983  12.855  0.00  0.00    +0.000 A 
ATOM     19  N   UNL     1       7.199   5.459  13.973  0.00  0.00    +0.000 NA
ENDBRANCH  12  14
ENDBRANCH   1  13
TORSDOF 2
ENDMDL
MODEL 8
REMARK VINA RESULT:      -6.5      3.996      5.524
REMARK  Name = 
REMARK  2 active torsions:
REMARK  status: ('A' for Active; 'I' for Inactive)
REMARK    1  A    between atoms: C_1  and  C_13
REMARK    2  A    between atoms: N_2  and  N_3
REMARK                            x       y       z     vdW  Elec       q    Type
REMARK                         _______ _______ _______ _____ _____    ______ ____
ROOT
ATOM      1  N   UNL     1       2.459   6.464  19.987  0.00  0.00    +0.000 N 
ATOM      2  C   UNL     1       1.848   7.701  20.104  0.00  0.00    +0.000 A 
ATOM      3  C   UNL     1       1.718   8.562  18.877  0.00  0.00    +0.000 A 
ATOM      4  C   UNL     1       1.175   9.779  18.985  0.00  0.00    +0.000 A 
ATOM      5  C   UNL     1       0.748  10.213  20.251  0.00  0.00    +0.000 A 
ATOM      6  N   UNL     1       0.213  11.335  20.679  0.00  0.00    +0.000 NA
ATOM      7  N   UNL     1       0.011  11.211  22.037  0.00  0.00    +0.000 NA
ATOM      8  C   UNL     1       0.426  10.014  22.392  0.00  0.00    +0.000 A 
ATOM      9  N   UNL     1       0.896   9.334  21.305  0.00  0.00    +0.000 N 
ATOM     10  N   UNL     1       1.423   8.072  21.287  0.00  0.00    +0.000 NA
ATOM     11  H   UNL     1       2.540   5.981  20.882  0.00  0.00    +0.000 HD
ENDROOT
BRANCH   1  13
ATOM     12  C   UNL     1       4.120   5.163  19.166  0.00  0.00    +0.000 C 
ATOM     13  N   UNL     1       3.408   6.235  19.035  0.00  0.00    +0.000 NA
BRANCH  12  14
ATOM     14  C   UNL     1       5.228   4.883  18.229  0.00  0.00    +0.000 A 
ATOM     15  C   UNL     1       4.966   4.641  16.884  0.00  0.00    +0.000 A 
ATOM     16  C   UNL     1       6.042   4.423  16.032  0.00  0.00    +0.000 A 
ATOM     17  C   UNL     1       7.331   4.450  16.552  0.00  0.00    +0.000 A 
ATOM     18  C   UNL     1       7.492   4.696  17.909  0.00  0.00    +0.000 A 
ATOM     19  N   UNL     1       6.470   4.919  18.765  0.00  0.00    +0.000 NA
ENDBRANCH  12  14
ENDBRANCH   1  13
TORSDOF 2
ENDMDL
MODEL 9
REMARK VINA RESULT:      -6.5      4.711      8.502
REMARK  Name = 
REMARK  2 active torsions:
REMARK  status: ('A' for Active; 'I' for Inactive)
REMARK    1  A    between atoms: C_1  and  C_13
REMARK    2  A    between atoms: N_2  and  N_3
REMARK                            x       y       z     vdW  Elec       q    Type
REMARK                         _______ _______ _______ _____ _____    ______ ____
ROOT
ATOM      1  N   UNL     1       1.742   6.879  21.288  0.00  0.00    +0.000 N 
ATOM      2  C   UNL     1       1.952   6.043  20.204  0.00  0.00    +0.000 A 
ATOM      3  C   UNL     1       2.406   6.647  18.902  0.00  0.00    +0.000 A 
ATOM      4  C   UNL     1       2.564   5.858  17.835  0.00  0.00    +0.000 A 
ATOM      5  C   UNL     1       2.294   4.486  17.969  0.00  0.00    +0.000 A 
ATOM      6  N   UNL     1       2.327   3.481  17.122  0.00  0.00    +0.000 NA
ATOM      7  N   UNL     1       1.943   2.347  17.804  0.00  0.00    +0.000 NA
ATOM      8  C   UNL     1       1.692   2.697  19.046  0.00  0.00    +0.000 A 
ATOM      9  N   UNL     1       1.903   4.036  19.213  0.00  0.00    +0.000 N 
ATOM     10  N   UNL     1       1.729   4.761  20.360  0.00  0.00    +0.000 NA
ATOM     11  H   UNL     1       1.391   6.381  22.106  0.00  0.00    +0.000 HD
ENDROOT
BRANCH   1  13
ATOM     12  C   UNL     1       0.909   8.801  22.148  0.00  0.00    +0.000 C 
ATOM     13  N   UNL     1       1.376   8.181  21.112  0.00  0.00    +0.000 NA
BRANCH  12  14
ATOM     14  C   UNL     1       0.408  10.186  22.024  0.00  0.00    +0.000 A 
ATOM     15  C   UNL     1      -0.674  10.612  22.789  0.00  0.00    +0.000 A 
ATOM     16  C   UNL     1      -1.085  11.934  22.669  0.00  0.00    +0.000 A 
ATOM     17  C   UNL     1      -0.408  12.776  21.794  0.00  0.00    +0.000 A 
ATOM     18  C   UNL     1       0.659  12.258  21.071  0.00  0.00    +0.000 A 
ATOM     19  N   UNL     1       1.089  10.980  21.167  0.00  0.00    +0.000 NA
ENDBRANCH  12  14
ENDBRANCH   1  13
TORSDOF 2
ENDMDL
