MODEL 1
REMARK VINA RESULT:      -8.3      0.000      0.000
REMARK  Name = 
REMARK  12 active torsions:
REMARK  status: ('A' for Active; 'I' for Inactive)
REMARK    1  A    between atoms: C_1  and  O_2
REMARK    2  A    between atoms: O_2  and  C_3
REMARK    3  A    between atoms: C_6  and  C_7
REMARK    4  A    between atoms: C_7  and  N_8
REMARK    5  A    between atoms: C_9  and  C_12
REMARK    6  A    between atoms: N_10  and  O_11
REMARK    7  A    between atoms: C_15  and  O_16
REMARK    8  A    between atoms: O_16  and  C_17
REMARK    9  A    between atoms: C_19  and  C_20
REMARK   10  A    between atoms: C_22  and  C_23
REMARK   11  A    between atoms: C_23  and  C_24
REMARK   12  A    between atoms: C_23  and  C_25
REMARK                            x       y       z     vdW  Elec       q    Type
REMARK                         _______ _______ _______ _____ _____    ______ ____
ROOT
ATOM      1  C   UNL     1       2.230   7.455  19.073  0.00  0.00    +0.000 A 
ATOM      2  C   UNL     1       2.439   8.244  17.939  0.00  0.00    +0.000 A 
ATOM      3  C   UNL     1       1.993   9.568  17.931  0.00  0.00    +0.000 A 
ATOM      4  C   UNL     1       1.361  10.055  19.067  0.00  0.00    +0.000 A 
ATOM      5  N   UNL     1       1.200   9.324  20.195  0.00  0.00    +0.000 NA
ATOM      6  C   UNL     1       1.606   8.036  20.166  0.00  0.00    +0.000 A 
ENDROOT
BRANCH   1   8
ATOM      7  N   UNL     1       3.806   5.724  19.751  0.00  0.00    +0.000 N 
ATOM      8  C   UNL     1       2.616   6.007  19.103  0.00  0.00    +0.000 C 
ATOM      9  N   UNL     1       1.796   5.201  18.507  0.00  0.00    +0.000 NA
ATOM     10  H   UNL     1       3.829   6.030  20.718  0.00  0.00    +0.000 HD
BRANCH   9  11
ATOM     11  O   UNL     1       2.143   3.853  18.618  0.00  0.00    +0.000 OA
ATOM     12  H   UNL     1       2.151   3.562  17.687  0.00  0.00    +0.000 HD
ENDBRANCH   9  11
BRANCH   7  13
ATOM     13  C   UNL     1       4.619   4.556  19.503  0.00  0.00    +0.000 C 
BRANCH  13  17
ATOM     14  C   UNL     1       6.997   5.185  15.929  0.00  0.00    +0.000 A 
ATOM     15  C   UNL     1       5.983   4.226  15.948  0.00  0.00    +0.000 A 
ATOM     16  C   UNL     1       5.217   4.020  17.102  0.00  0.00    +0.000 A 
ATOM     17  C   UNL     1       5.462   4.766  18.263  0.00  0.00    +0.000 A 
ATOM     18  C   UNL     1       6.501   5.710  18.243  0.00  0.00    +0.000 A 
ATOM     19  C   UNL     1       7.260   5.921  17.084  0.00  0.00    +0.000 A 
BRANCH  14  21
ATOM     20  C   UNL     1       7.037   4.752  13.602  0.00  0.00    +0.000 C 
ATOM     21  O   UNL     1       7.689   5.283  14.751  0.00  0.00    +0.000 OA
ENDBRANCH  14  21
ENDBRANCH  13  17
ENDBRANCH   7  13
ENDBRANCH   1   8
BRANCH   4  22
ATOM     22  O   UNL     1       0.851  11.346  19.025  0.00  0.00    +0.000 OA
BRANCH  22  23
ATOM     23  C   UNL     1      -0.526  11.486  19.047  0.00  0.00    +0.000 A 
ATOM     24  C   UNL     1      -1.067  12.311  20.033  0.00  0.00    +0.000 A 
ATOM     25  C   UNL     1      -2.455  12.504  20.106  0.00  0.00    +0.000 A 
ATOM     26  C   UNL     1      -3.068  13.326  21.202  0.00  0.00    +0.000 C 
ATOM     27  C   UNL     1      -3.287  11.896  19.151  0.00  0.00    +0.000 A 
ATOM     28  C   UNL     1      -2.761  11.082  18.139  0.00  0.00    +0.000 A 
ATOM     29  C   UNL     1      -1.373  10.890  18.100  0.00  0.00    +0.000 A 
BRANCH  28  30
ATOM     30  C   UNL     1      -3.678  10.431  17.117  0.00  0.00    +0.000 C 
ATOM     31  C   UNL     1      -4.797  11.381  16.679  0.00  0.00    +0.000 C 
ATOM     32  C   UNL     1      -2.921   9.910  15.891  0.00  0.00    +0.000 C 
ENDBRANCH  28  30
ENDBRANCH  22  23
ENDBRANCH   4  22
TORSDOF 8
ENDMDL
MODEL 2
REMARK VINA RESULT:      -8.3      0.760      1.083
REMARK  Name = 
REMARK  12 active torsions:
REMARK  status: ('A' for Active; 'I' for Inactive)
REMARK    1  A    between atoms: C_1  and  O_2
REMARK    2  A    between atoms: O_2  and  C_3
REMARK    3  A    between atoms: C_6  and  C_7
REMARK    4  A    between atoms: C_7  and  N_8
REMARK    5  A    between atoms: C_9  and  C_12
REMARK    6  A    between atoms: N_10  and  O_11
REMARK    7  A    between atoms: C_15  and  O_16
REMARK    8  A    between atoms: O_16  and  C_17
REMARK    9  A    between atoms: C_19  and  C_20
REMARK   10  A    between atoms: C_22  and  C_23
REMARK   11  A    between atoms: C_23  and  C_24
REMARK   12  A    between atoms: C_23  and  C_25
REMARK                            x       y       z     vdW  Elec       q    Type
REMARK                         _______ _______ _______ _____ _____    ______ ____
ROOT
ATOM      1  C   UNL     1       2.048   7.058  19.811  0.00  0.00    +0.000 A 
ATOM      2  C   UNL     1       1.349   7.673  20.855  0.00  0.00    +0.000 A 
ATOM      3  C   UNL     1       0.915   8.992  20.707  0.00  0.00    +0.000 A 
ATOM      4  C   UNL     1       1.190   9.645  19.513  0.00  0.00    +0.000 A 
ATOM      5  N   UNL     1       1.814   9.048  18.470  0.00  0.00    +0.000 NA
ATOM      6  C   UNL     1       2.256   7.785  18.650  0.00  0.00    +0.000 A 
ENDROOT
BRANCH   1   8
ATOM      7  N   UNL     1       3.976   5.569  19.792  0.00  0.00    +0.000 N 
ATOM      8  C   UNL     1       2.605   5.674  19.949  0.00  0.00    +0.000 C 
ATOM      9  N   UNL     1       1.734   4.745  20.185  0.00  0.00    +0.000 NA
ATOM     10  H   UNL     1       4.508   6.140  20.441  0.00  0.00    +0.000 HD
BRANCH   9  11
ATOM     11  O   UNL     1       2.292   3.481  20.385  0.00  0.00    +0.000 OA
ATOM     12  H   UNL     1       2.969   3.439  19.683  0.00  0.00    +0.000 HD
ENDBRANCH   9  11
BRANCH   7  13
ATOM     13  C   UNL     1       4.668   4.364  19.394  0.00  0.00    +0.000 C 
BRANCH  13  17
ATOM     14  C   UNL     1       6.897   5.115  15.749  0.00  0.00    +0.000 A 
ATOM     15  C   UNL     1       5.829   4.217  15.757  0.00  0.00    +0.000 A 
ATOM     16  C   UNL     1       5.111   3.971  16.934  0.00  0.00    +0.000 A 
ATOM     17  C   UNL     1       5.458   4.615  18.128  0.00  0.00    +0.000 A 
ATOM     18  C   UNL     1       6.550   5.498  18.119  0.00  0.00    +0.000 A 
ATOM     19  C   UNL     1       7.262   5.750  16.937  0.00  0.00    +0.000 A 
BRANCH  14  21
ATOM     20  C   UNL     1       6.949   4.568  13.447  0.00  0.00    +0.000 C 
ATOM     21  O   UNL     1       7.533   5.260  14.546  0.00  0.00    +0.000 OA
ENDBRANCH  14  21
ENDBRANCH  13  17
ENDBRANCH   7  13
ENDBRANCH   1   8
BRANCH   4  22
ATOM     22  O   UNL     1       0.824  10.980  19.403  0.00  0.00    +0.000 OA
BRANCH  22  23
ATOM     23  C   UNL     1      -0.525  11.258  19.258  0.00  0.00    +0.000 A 
ATOM     24  C   UNL     1      -1.099  12.129  20.185  0.00  0.00    +0.000 A 
ATOM     25  C   UNL     1      -2.459  12.462  20.090  0.00  0.00    +0.000 A 
ATOM     26  C   UNL     1      -3.117  13.336  21.116  0.00  0.00    +0.000 C 
ATOM     27  C   UNL     1      -3.223  11.946  19.030  0.00  0.00    +0.000 A 
ATOM     28  C   UNL     1      -2.659  11.087  18.076  0.00  0.00    +0.000 A 
ATOM     29  C   UNL     1      -1.303  10.755  18.205  0.00  0.00    +0.000 A 
BRANCH  28  30
ATOM     30  C   UNL     1      -3.503  10.537  16.938  0.00  0.00    +0.000 C 
ATOM     31  C   UNL     1      -4.771  11.369  16.724  0.00  0.00    +0.000 C 
ATOM     32  C   UNL     1      -2.722  10.423  15.625  0.00  0.00    +0.000 C 
ENDBRANCH  28  30
ENDBRANCH  22  23
ENDBRANCH   4  22
TORSDOF 8
ENDMDL
MODEL 3
REMARK VINA RESULT:      -8.2      0.988      2.391
REMARK  Name = 
REMARK  12 active torsions:
REMARK  status: ('A' for Active; 'I' for Inactive)
REMARK    1  A    between atoms: C_1  and  O_2
REMARK    2  A    between atoms: O_2  and  C_3
REMARK    3  A    between atoms: C_6  and  C_7
REMARK    4  A    between atoms: C_7  and  N_8
REMARK    5  A    between atoms: C_9  and  C_12
REMARK    6  A    between atoms: N_10  and  O_11
REMARK    7  A    between atoms: C_15  and  O_16
REMARK    8  A    between atoms: O_16  and  C_17
REMARK    9  A    between atoms: C_19  and  C_20
REMARK   10  A    between atoms: C_22  and  C_23
REMARK   11  A    between atoms: C_23  and  C_24
REMARK   12  A    between atoms: C_23  and  C_25
REMARK                            x       y       z     vdW  Elec       q    Type
REMARK                         _______ _______ _______ _____ _____    ______ ____
ROOT
ATOM      1  C   UNL     1       1.974   7.495  19.786  0.00  0.00    +0.000 A 
ATOM      2  C   UNL     1       2.234   8.107  18.556  0.00  0.00    +0.000 A 
ATOM      3  C   UNL     1       1.749   9.394  18.312  0.00  0.00    +0.000 A 
ATOM      4  C   UNL     1       1.027  10.025  19.317  0.00  0.00    +0.000 A 
ATOM      5  N   UNL     1       0.814   9.472  20.534  0.00  0.00    +0.000 NA
ATOM      6  C   UNL     1       1.261   8.214  20.733  0.00  0.00    +0.000 A 
ENDROOT
BRANCH   1   8
ATOM      7  N   UNL     1       3.731   5.807  19.803  0.00  0.00    +0.000 N 
ATOM      8  C   UNL     1       2.402   6.087  20.067  0.00  0.00    +0.000 C 
ATOM      9  N   UNL     1       1.472   5.302  20.510  0.00  0.00    +0.000 NA
ATOM     10  H   UNL     1       4.383   6.394  20.313  0.00  0.00    +0.000 HD
BRANCH   9  11
ATOM     11  O   UNL     1       1.918   4.019  20.834  0.00  0.00    +0.000 OA
ATOM     12  H   UNL     1       1.112   3.602  21.193  0.00  0.00    +0.000 HD
ENDBRANCH   9  11
BRANCH   7  13
ATOM     13  C   UNL     1       4.253   4.490  19.518  0.00  0.00    +0.000 C 
BRANCH  13  17
ATOM     14  C   UNL     1       6.712   4.559  15.945  0.00  0.00    +0.000 A 
ATOM     15  C   UNL     1       7.274   4.802  17.199  0.00  0.00    +0.000 A 
ATOM     16  C   UNL     1       6.481   4.784  18.353  0.00  0.00    +0.000 A 
ATOM     17  C   UNL     1       5.105   4.531  18.268  0.00  0.00    +0.000 A 
ATOM     18  C   UNL     1       4.543   4.313  17.000  0.00  0.00    +0.000 A 
ATOM     19  C   UNL     1       5.341   4.323  15.847  0.00  0.00    +0.000 A 
BRANCH  14  21
ATOM     20  C   UNL     1       6.992   4.619  13.595  0.00  0.00    +0.000 C 
ATOM     21  O   UNL     1       7.583   4.622  14.890  0.00  0.00    +0.000 OA
ENDBRANCH  14  21
ENDBRANCH  13  17
ENDBRANCH   7  13
ENDBRANCH   1   8
BRANCH   4  22
ATOM     22  O   UNL     1       0.482  11.272  19.040  0.00  0.00    +0.000 OA
BRANCH  22  23
ATOM     23  C   UNL     1      -0.880  11.329  18.795  0.00  0.00    +0.000 A 
ATOM     24  C   UNL     1      -1.365  10.589  17.716  0.00  0.00    +0.000 A 
ATOM     25  C   UNL     1      -2.736  10.595  17.418  0.00  0.00    +0.000 A 
ATOM     26  C   UNL     1      -3.273   9.868  16.220  0.00  0.00    +0.000 C 
ATOM     27  C   UNL     1      -3.617  11.316  18.240  0.00  0.00    +0.000 A 
ATOM     28  C   UNL     1      -3.153  12.048  19.342  0.00  0.00    +0.000 A 
ATOM     29  C   UNL     1      -1.776  12.040  19.606  0.00  0.00    +0.000 A 
BRANCH  28  30
ATOM     30  C   UNL     1      -4.122  12.823  20.218  0.00  0.00    +0.000 C 
ATOM     31  C   UNL     1      -5.551  12.287  20.088  0.00  0.00    +0.000 C 
ATOM     32  C   UNL     1      -3.700  12.844  21.691  0.00  0.00    +0.000 C 
ENDBRANCH  28  30
ENDBRANCH  22  23
ENDBRANCH   4  22
TORSDOF 8
ENDMDL
MODEL 4
REMARK VINA RESULT:      -8.1      1.096      2.457
REMARK  Name = 
REMARK  12 active torsions:
REMARK  status: ('A' for Active; 'I' for Inactive)
REMARK    1  A    between atoms: C_1  and  O_2
REMARK    2  A    between atoms: O_2  and  C_3
REMARK    3  A    between atoms: C_6  and  C_7
REMARK    4  A    between atoms: C_7  and  N_8
REMARK    5  A    between atoms: C_9  and  C_12
REMARK    6  A    between atoms: N_10  and  O_11
REMARK    7  A    between atoms: C_15  and  O_16
REMARK    8  A    between atoms: O_16  and  C_17
REMARK    9  A    between atoms: C_19  and  C_20
REMARK   10  A    between atoms: C_22  and  C_23
REMARK   11  A    between atoms: C_23  and  C_24
REMARK   12  A    between atoms: C_23  and  C_25
REMARK                            x       y       z     vdW  Elec       q    Type
REMARK                         _______ _______ _______ _____ _____    ______ ____
ROOT
ATOM      1  C   UNL     1       1.926   7.207  19.991  0.00  0.00    +0.000 A 
ATOM      2  C   UNL     1       1.150   7.830  20.972  0.00  0.00    +0.000 A 
ATOM      3  C   UNL     1       0.663   9.121  20.745  0.00  0.00    +0.000 A 
ATOM      4  C   UNL     1       0.968   9.735  19.538  0.00  0.00    +0.000 A 
ATOM      5  N   UNL     1       1.670   9.126  18.554  0.00  0.00    +0.000 NA
ATOM      6  C   UNL     1       2.160   7.894  18.810  0.00  0.00    +0.000 A 
ENDROOT
BRANCH   1   8
ATOM      7  N   UNL     1       3.836   5.711  19.757  0.00  0.00    +0.000 N 
ATOM      8  C   UNL     1       2.539   5.858  20.217  0.00  0.00    +0.000 C 
ATOM      9  N   UNL     1       1.774   4.991  20.801  0.00  0.00    +0.000 NA
ATOM     10  H   UNL     1       4.490   6.375  20.158  0.00  0.00    +0.000 HD
BRANCH   9  11
ATOM     11  O   UNL     1       2.398   3.771  21.066  0.00  0.00    +0.000 OA
ATOM     12  H   UNL     1       2.263   3.671  22.028  0.00  0.00    +0.000 HD
ENDBRANCH   9  11
BRANCH   7  13
ATOM     13  C   UNL     1       4.447   4.449  19.408  0.00  0.00    +0.000 C 
BRANCH  13  17
ATOM     14  C   UNL     1       6.850   4.957  15.833  0.00  0.00    +0.000 A 
ATOM     15  C   UNL     1       5.460   4.867  15.748  0.00  0.00    +0.000 A 
ATOM     16  C   UNL     1       4.684   4.699  16.901  0.00  0.00    +0.000 A 
ATOM     17  C   UNL     1       5.289   4.609  18.161  0.00  0.00    +0.000 A 
ATOM     18  C   UNL     1       6.690   4.674  18.236  0.00  0.00    +0.000 A 
ATOM     19  C   UNL     1       7.465   4.851  17.081  0.00  0.00    +0.000 A 
BRANCH  14  21
ATOM     20  C   UNL     1       6.859   4.527  13.506  0.00  0.00    +0.000 C 
ATOM     21  O   UNL     1       7.503   5.101  14.638  0.00  0.00    +0.000 OA
ENDBRANCH  14  21
ENDBRANCH  13  17
ENDBRANCH   7  13
ENDBRANCH   1   8
BRANCH   4  22
ATOM     22  O   UNL     1       0.547  11.045  19.352  0.00  0.00    +0.000 OA
BRANCH  22  23
ATOM     23  C   UNL     1      -0.788  11.246  19.044  0.00  0.00    +0.000 A 
ATOM     24  C   UNL     1      -1.276  10.630  17.891  0.00  0.00    +0.000 A 
ATOM     25  C   UNL     1      -2.622  10.784  17.526  0.00  0.00    +0.000 A 
ATOM     26  C   UNL     1      -3.154  10.195  16.253  0.00  0.00    +0.000 C 
ATOM     27  C   UNL     1      -3.481  11.526  18.356  0.00  0.00    +0.000 A 
ATOM     28  C   UNL     1      -3.015  12.133  19.530  0.00  0.00    +0.000 A 
ATOM     29  C   UNL     1      -1.661  11.979  19.861  0.00  0.00    +0.000 A 
BRANCH  28  30
ATOM     30  C   UNL     1      -3.959  12.933  20.412  0.00  0.00    +0.000 C 
ATOM     31  C   UNL     1      -5.414  12.494  20.222  0.00  0.00    +0.000 C 
ATOM     32  C   UNL     1      -3.579  12.868  21.895  0.00  0.00    +0.000 C 
ENDBRANCH  28  30
ENDBRANCH  22  23
ENDBRANCH   4  22
TORSDOF 8
ENDMDL
MODEL 5
REMARK VINA RESULT:      -8.0      2.862      9.112
REMARK  Name = 
REMARK  12 active torsions:
REMARK  status: ('A' for Active; 'I' for Inactive)
REMARK    1  A    between atoms: C_1  and  O_2
REMARK    2  A    between atoms: O_2  and  C_3
REMARK    3  A    between atoms: C_6  and  C_7
REMARK    4  A    between atoms: C_7  and  N_8
REMARK    5  A    between atoms: C_9  and  C_12
REMARK    6  A    between atoms: N_10  and  O_11
REMARK    7  A    between atoms: C_15  and  O_16
REMARK    8  A    between atoms: O_16  and  C_17
REMARK    9  A    between atoms: C_19  and  C_20
REMARK   10  A    between atoms: C_22  and  C_23
REMARK   11  A    between atoms: C_23  and  C_24
REMARK   12  A    between atoms: C_23  and  C_25
REMARK                            x       y       z     vdW  Elec       q    Type
REMARK                         _______ _______ _______ _____ _____    ______ ____
ROOT
ATOM      1  C   UNL     1       1.657   7.838  20.201  0.00  0.00    +0.000 A 
ATOM      2  C   UNL     1       1.735   6.540  20.716  0.00  0.00    +0.000 A 
ATOM      3  C   UNL     1       2.226   5.510  19.911  0.00  0.00    +0.000 A 
ATOM      4  C   UNL     1       2.630   5.821  18.620  0.00  0.00    +0.000 A 
ATOM      5  N   UNL     1       2.616   7.080  18.122  0.00  0.00    +0.000 NA
ATOM      6  C   UNL     1       2.102   8.052  18.906  0.00  0.00    +0.000 A 
ENDROOT
BRANCH   1   8
ATOM      7  N   UNL     1       0.308   9.866  20.267  0.00  0.00    +0.000 N 
ATOM      8  C   UNL     1       1.062   8.962  20.994  0.00  0.00    +0.000 C 
ATOM      9  N   UNL     1       1.340   8.956  22.259  0.00  0.00    +0.000 NA
ATOM     10  H   UNL     1      -0.471   9.444  19.771  0.00  0.00    +0.000 HD
BRANCH   9  11
ATOM     11  O   UNL     1       0.710   9.971  22.982  0.00  0.00    +0.000 OA
ATOM     12  H   UNL     1       1.371  10.689  22.954  0.00  0.00    +0.000 HD
ENDBRANCH   9  11
BRANCH   7  13
ATOM     13  C   UNL     1       0.059  11.233  20.661  0.00  0.00    +0.000 C 
BRANCH  13  17
ATOM     14  C   UNL     1       3.024  13.869  18.906  0.00  0.00    +0.000 A 
ATOM     15  C   UNL     1       2.529  12.778  18.190  0.00  0.00    +0.000 A 
ATOM     16  C   UNL     1       1.575  11.924  18.756  0.00  0.00    +0.000 A 
ATOM     17  C   UNL     1       1.106  12.145  20.058  0.00  0.00    +0.000 A 
ATOM     18  C   UNL     1       1.627  13.229  20.782  0.00  0.00    +0.000 A 
ATOM     19  C   UNL     1       2.576  14.087  20.209  0.00  0.00    +0.000 A 
BRANCH  14  21
ATOM     20  C   UNL     1       3.469  15.709  17.486  0.00  0.00    +0.000 C 
ATOM     21  O   UNL     1       3.966  14.619  18.255  0.00  0.00    +0.000 OA
ENDBRANCH  14  21
ENDBRANCH  13  17
ENDBRANCH   7  13
ENDBRANCH   1   8
BRANCH   4  22
ATOM     22  O   UNL     1       3.045   4.779  17.800  0.00  0.00    +0.000 OA
BRANCH  22  23
ATOM     23  C   UNL     1       4.315   4.866  17.256  0.00  0.00    +0.000 A 
ATOM     24  C   UNL     1       4.486   4.386  15.957  0.00  0.00    +0.000 A 
ATOM     25  C   UNL     1       5.745   4.453  15.342  0.00  0.00    +0.000 A 
ATOM     26  C   UNL     1       5.973   3.877  13.975  0.00  0.00    +0.000 C 
ATOM     27  C   UNL     1       6.818   5.047  16.029  0.00  0.00    +0.000 A 
ATOM     28  C   UNL     1       6.661   5.555  17.326  0.00  0.00    +0.000 A 
ATOM     29  C   UNL     1       5.396   5.458  17.925  0.00  0.00    +0.000 A 
BRANCH  28  30
ATOM     30  C   UNL     1       7.834   6.191  18.052  0.00  0.00    +0.000 C 
ATOM     31  C   UNL     1       7.827   7.716  17.906  0.00  0.00    +0.000 C 
ATOM     32  C   UNL     1       7.890   5.806  19.534  0.00  0.00    +0.000 C 
ENDBRANCH  28  30
ENDBRANCH  22  23
ENDBRANCH   4  22
TORSDOF 8
ENDMDL
MODEL 6
REMARK VINA RESULT:      -8.0      0.515      1.120
REMARK  Name = 
REMARK  12 active torsions:
REMARK  status: ('A' for Active; 'I' for Inactive)
REMARK    1  A    between atoms: C_1  and  O_2
REMARK    2  A    between atoms: O_2  and  C_3
REMARK    3  A    between atoms: C_6  and  C_7
REMARK    4  A    between atoms: C_7  and  N_8
REMARK    5  A    between atoms: C_9  and  C_12
REMARK    6  A    between atoms: N_10  and  O_11
REMARK    7  A    between atoms: C_15  and  O_16
REMARK    8  A    between atoms: O_16  and  C_17
REMARK    9  A    between atoms: C_19  and  C_20
REMARK   10  A    between atoms: C_22  and  C_23
REMARK   11  A    between atoms: C_23  and  C_24
REMARK   12  A    between atoms: C_23  and  C_25
REMARK                            x       y       z     vdW  Elec       q    Type
REMARK                         _______ _______ _______ _____ _____    ______ ____
ROOT
ATOM      1  C   UNL     1       2.152   7.388  19.413  0.00  0.00    +0.000 A 
ATOM      2  C   UNL     1       2.353   8.159  18.265  0.00  0.00    +0.000 A 
ATOM      3  C   UNL     1       1.952   9.498  18.257  0.00  0.00    +0.000 A 
ATOM      4  C   UNL     1       1.371  10.016  19.406  0.00  0.00    +0.000 A 
ATOM      5  N   UNL     1       1.220   9.302  20.547  0.00  0.00    +0.000 NA
ATOM      6  C   UNL     1       1.582   8.001  20.518  0.00  0.00    +0.000 A 
ENDROOT
BRANCH   1   8
ATOM      7  N   UNL     1       3.801   5.631  19.773  0.00  0.00    +0.000 N 
ATOM      8  C   UNL     1       2.490   5.929  19.447  0.00  0.00    +0.000 C 
ATOM      9  N   UNL     1       1.516   5.126  19.153  0.00  0.00    +0.000 NA
ATOM     10  H   UNL     1       4.093   5.996  20.674  0.00  0.00    +0.000 HD
BRANCH   9  11
ATOM     11  O   UNL     1       1.841   3.773  19.267  0.00  0.00    +0.000 OA
ATOM     12  H   UNL     1       2.729   3.737  18.862  0.00  0.00    +0.000 HD
ENDBRANCH   9  11
BRANCH   7  13
ATOM     13  C   UNL     1       4.483   4.411  19.405  0.00  0.00    +0.000 C 
BRANCH  13  17
ATOM     14  C   UNL     1       6.756   4.972  15.751  0.00  0.00    +0.000 A 
ATOM     15  C   UNL     1       7.395   4.957  16.992  0.00  0.00    +0.000 A 
ATOM     16  C   UNL     1       6.663   4.781  18.172  0.00  0.00    +0.000 A 
ATOM     17  C   UNL     1       5.271   4.624  18.130  0.00  0.00    +0.000 A 
ATOM     18  C   UNL     1       4.631   4.666  16.880  0.00  0.00    +0.000 A 
ATOM     19  C   UNL     1       5.368   4.834  15.700  0.00  0.00    +0.000 A 
BRANCH  14  21
ATOM     20  C   UNL     1       7.106   4.647  13.434  0.00  0.00    +0.000 C 
ATOM     21  O   UNL     1       7.573   5.171  14.672  0.00  0.00    +0.000 OA
ENDBRANCH  14  21
ENDBRANCH  13  17
ENDBRANCH   7  13
ENDBRANCH   1   8
BRANCH   4  22
ATOM     22  O   UNL     1       0.904  11.323  19.366  0.00  0.00    +0.000 OA
BRANCH  22  23
ATOM     23  C   UNL     1      -0.462  11.506  19.238  0.00  0.00    +0.000 A 
ATOM     24  C   UNL     1      -1.139  12.040  20.335  0.00  0.00    +0.000 A 
ATOM     25  C   UNL     1      -2.523  12.260  20.269  0.00  0.00    +0.000 A 
ATOM     26  C   UNL     1      -3.287  12.764  21.459  0.00  0.00    +0.000 C 
ATOM     27  C   UNL     1      -3.210  11.979  19.076  0.00  0.00    +0.000 A 
ATOM     28  C   UNL     1      -2.545  11.463  17.956  0.00  0.00    +0.000 A 
ATOM     29  C   UNL     1      -1.165  11.235  18.055  0.00  0.00    +0.000 A 
BRANCH  28  30
ATOM     30  C   UNL     1      -3.307  11.164  16.676  0.00  0.00    +0.000 C 
ATOM     31  C   UNL     1      -2.975   9.769  16.136  0.00  0.00    +0.000 C 
ATOM     32  C   UNL     1      -4.822  11.317  16.841  0.00  0.00    +0.000 C 
ENDBRANCH  28  30
ENDBRANCH  22  23
ENDBRANCH   4  22
TORSDOF 8
ENDMDL
MODEL 7
REMARK VINA RESULT:      -8.0      1.427      1.536
REMARK  Name = 
REMARK  12 active torsions:
REMARK  status: ('A' for Active; 'I' for Inactive)
REMARK    1  A    between atoms: C_1  and  O_2
REMARK    2  A    between atoms: O_2  and  C_3
REMARK    3  A    between atoms: C_6  and  C_7
REMARK    4  A    between atoms: C_7  and  N_8
REMARK    5  A    between atoms: C_9  and  C_12
REMARK    6  A    between atoms: N_10  and  O_11
REMARK    7  A    between atoms: C_15  and  O_16
REMARK    8  A    between atoms: O_16  and  C_17
REMARK    9  A    between atoms: C_19  and  C_20
REMARK   10  A    between atoms: C_22  and  C_23
REMARK   11  A    between atoms: C_23  and  C_24
REMARK   12  A    between atoms: C_23  and  C_25
REMARK                            x       y       z     vdW  Elec       q    Type
REMARK                         _______ _______ _______ _____ _____    ______ ____
ROOT
ATOM      1  C   UNL     1       2.175   6.314  19.521  0.00  0.00    +0.000 A 
ATOM      2  C   UNL     1       2.392   7.404  18.673  0.00  0.00    +0.000 A 
ATOM      3  C   UNL     1       1.983   8.679  19.074  0.00  0.00    +0.000 A 
ATOM      4  C   UNL     1       1.379   8.813  20.317  0.00  0.00    +0.000 A 
ATOM      5  N   UNL     1       1.213   7.780  21.176  0.00  0.00    +0.000 NA
ATOM      6  C   UNL     1       1.582   6.553  20.750  0.00  0.00    +0.000 A 
ENDROOT
BRANCH   1   8
ATOM      7  N   UNL     1       3.736   4.443  19.569  0.00  0.00    +0.000 N 
ATOM      8  C   UNL     1       2.521   4.917  19.104  0.00  0.00    +0.000 C 
ATOM      9  N   UNL     1       1.647   4.329  18.350  0.00  0.00    +0.000 NA
ATOM     10  H   UNL     1       3.819   4.452  20.580  0.00  0.00    +0.000 HD
BRANCH   9  11
ATOM     11  O   UNL     1       1.961   3.004  18.043  0.00  0.00    +0.000 OA
ATOM     12  H   UNL     1       2.929   3.041  17.923  0.00  0.00    +0.000 HD
ENDBRANCH   9  11
BRANCH   7  13
ATOM     13  C   UNL     1       4.500   3.389  18.943  0.00  0.00    +0.000 C 
BRANCH  13  17
ATOM     14  C   UNL     1       6.885   5.057  15.726  0.00  0.00    +0.000 A 
ATOM     15  C   UNL     1       5.695   4.381  15.452  0.00  0.00    +0.000 A 
ATOM     16  C   UNL     1       4.926   3.839  16.489  0.00  0.00    +0.000 A 
ATOM     17  C   UNL     1       5.343   3.957  17.822  0.00  0.00    +0.000 A 
ATOM     18  C   UNL     1       6.554   4.616  18.087  0.00  0.00    +0.000 A 
ATOM     19  C   UNL     1       7.317   5.165  17.048  0.00  0.00    +0.000 A 
BRANCH  14  21
ATOM     20  C   UNL     1       7.339   4.818  13.416  0.00  0.00    +0.000 C 
ATOM     21  O   UNL     1       7.558   5.527  14.630  0.00  0.00    +0.000 OA
ENDBRANCH  14  21
ENDBRANCH  13  17
ENDBRANCH   7  13
ENDBRANCH   1   8
BRANCH   4  22
ATOM     22  O   UNL     1       0.906  10.069  20.677  0.00  0.00    +0.000 OA
BRANCH  22  23
ATOM     23  C   UNL     1       0.142  10.750  19.744  0.00  0.00    +0.000 A 
ATOM     24  C   UNL     1       0.298  12.135  19.682  0.00  0.00    +0.000 A 
ATOM     25  C   UNL     1      -0.439  12.886  18.753  0.00  0.00    +0.000 A 
ATOM     26  C   UNL     1      -0.346  14.383  18.716  0.00  0.00    +0.000 C 
ATOM     27  C   UNL     1      -1.298  12.225  17.859  0.00  0.00    +0.000 A 
ATOM     28  C   UNL     1      -1.452  10.832  17.890  0.00  0.00    +0.000 A 
ATOM     29  C   UNL     1      -0.718  10.108  18.841  0.00  0.00    +0.000 A 
BRANCH  28  30
ATOM     30  C   UNL     1      -2.388  10.137  16.916  0.00  0.00    +0.000 C 
ATOM     31  C   UNL     1      -3.600   9.534  17.632  0.00  0.00    +0.000 C 
ATOM     32  C   UNL     1      -2.851  11.058  15.783  0.00  0.00    +0.000 C 
ENDBRANCH  28  30
ENDBRANCH  22  23
ENDBRANCH   4  22
TORSDOF 8
ENDMDL
MODEL 8
REMARK VINA RESULT:      -8.0      1.776      9.427
REMARK  Name = 
REMARK  12 active torsions:
REMARK  status: ('A' for Active; 'I' for Inactive)
REMARK    1  A    between atoms: C_1  and  O_2
REMARK    2  A    between atoms: O_2  and  C_3
REMARK    3  A    between atoms: C_6  and  C_7
REMARK    4  A    between atoms: C_7  and  N_8
REMARK    5  A    between atoms: C_9  and  C_12
REMARK    6  A    between atoms: N_10  and  O_11
REMARK    7  A    between atoms: C_15  and  O_16
REMARK    8  A    between atoms: O_16  and  C_17
REMARK    9  A    between atoms: C_19  and  C_20
REMARK   10  A    between atoms: C_22  and  C_23
REMARK   11  A    between atoms: C_23  and  C_24
REMARK   12  A    between atoms: C_23  and  C_25
REMARK                            x       y       z     vdW  Elec       q    Type
REMARK                         _______ _______ _______ _____ _____    ______ ____
ROOT
ATOM      1  C   UNL     1       1.521   8.860  19.227  0.00  0.00    +0.000 A 
ATOM      2  C   UNL     1       1.677   7.926  20.255  0.00  0.00    +0.000 A 
ATOM      3  C   UNL     1       2.266   6.690  19.977  0.00  0.00    +0.000 A 
ATOM      4  C   UNL     1       2.685   6.440  18.677  0.00  0.00    +0.000 A 
ATOM      5  N   UNL     1       2.595   7.353  17.681  0.00  0.00    +0.000 NA
ATOM      6  C   UNL     1       1.989   8.525  17.966  0.00  0.00    +0.000 A 
ENDROOT
BRANCH   1   8
ATOM      7  N   UNL     1      -0.525  10.074  19.757  0.00  0.00    +0.000 N 
ATOM      8  C   UNL     1       0.823  10.166  19.454  0.00  0.00    +0.000 C 
ATOM      9  N   UNL     1       1.563  11.221  19.326  0.00  0.00    +0.000 NA
ATOM     10  H   UNL     1      -0.722   9.515  20.581  0.00  0.00    +0.000 HD
BRANCH   9  11
ATOM     11  O   UNL     1       0.904  12.417  19.619  0.00  0.00    +0.000 OA
ATOM     12  H   UNL     1       1.197  13.000  18.894  0.00  0.00    +0.000 HD
ENDBRANCH   9  11
BRANCH   7  13
ATOM     13  C   UNL     1      -1.491  11.126  19.536  0.00  0.00    +0.000 C 
BRANCH  13  17
ATOM     14  C   UNL     1      -3.541  10.520  15.761  0.00  0.00    +0.000 A 
ATOM     15  C   UNL     1      -4.088  11.349  16.743  0.00  0.00    +0.000 A 
ATOM     16  C   UNL     1      -3.429  11.541  17.963  0.00  0.00    +0.000 A 
ATOM     17  C   UNL     1      -2.212  10.899  18.225  0.00  0.00    +0.000 A 
ATOM     18  C   UNL     1      -1.681  10.047  17.243  0.00  0.00    +0.000 A 
ATOM     19  C   UNL     1      -2.338   9.862  16.019  0.00  0.00    +0.000 A 
BRANCH  14  21
ATOM     20  C   UNL     1      -3.598   9.879  13.484  0.00  0.00    +0.000 C 
ATOM     21  O   UNL     1      -4.285  10.395  14.619  0.00  0.00    +0.000 OA
ENDBRANCH  14  21
ENDBRANCH  13  17
ENDBRANCH   7  13
ENDBRANCH   1   8
BRANCH   4  22
ATOM     22  O   UNL     1       3.199   5.182  18.391  0.00  0.00    +0.000 OA
BRANCH  22  23
ATOM     23  C   UNL     1       4.494   5.120  17.905  0.00  0.00    +0.000 A 
ATOM     24  C   UNL     1       5.522   5.459  18.785  0.00  0.00    +0.000 A 
ATOM     25  C   UNL     1       6.858   5.409  18.361  0.00  0.00    +0.000 A 
ATOM     26  C   UNL     1       7.977   5.840  19.263  0.00  0.00    +0.000 C 
ATOM     27  C   UNL     1       7.152   4.972  17.058  0.00  0.00    +0.000 A 
ATOM     28  C   UNL     1       6.135   4.606  16.165  0.00  0.00    +0.000 A 
ATOM     29  C   UNL     1       4.807   4.683  16.609  0.00  0.00    +0.000 A 
BRANCH  28  30
ATOM     30  C   UNL     1       6.473   4.138  14.760  0.00  0.00    +0.000 C 
ATOM     31  C   UNL     1       5.214   3.962  13.906  0.00  0.00    +0.000 C 
ATOM     32  C   UNL     1       7.464   5.068  14.051  0.00  0.00    +0.000 C 
ENDBRANCH  28  30
ENDBRANCH  22  23
ENDBRANCH   4  22
TORSDOF 8
ENDMDL
MODEL 9
REMARK VINA RESULT:      -8.0      1.504      2.481
REMARK  Name = 
REMARK  12 active torsions:
REMARK  status: ('A' for Active; 'I' for Inactive)
REMARK    1  A    between atoms: C_1  and  O_2
REMARK    2  A    between atoms: O_2  and  C_3
REMARK    3  A    between atoms: C_6  and  C_7
REMARK    4  A    between atoms: C_7  and  N_8
REMARK    5  A    between atoms: C_9  and  C_12
REMARK    6  A    between atoms: N_10  and  O_11
REMARK    7  A    between atoms: C_15  and  O_16
REMARK    8  A    between atoms: O_16  and  C_17
REMARK    9  A    between atoms: C_19  and  C_20
REMARK   10  A    between atoms: C_22  and  C_23
REMARK   11  A    between atoms: C_23  and  C_24
REMARK   12  A    between atoms: C_23  and  C_25
REMARK                            x       y       z     vdW  Elec       q    Type
REMARK                         _______ _______ _______ _____ _____    ______ ____
ROOT
ATOM      1  C   UNL     1       1.590   8.243  19.675  0.00  0.00    +0.000 A 
ATOM      2  C   UNL     1       1.781   8.819  18.416  0.00  0.00    +0.000 A 
ATOM      3  C   UNL     1       1.086   9.983  18.080  0.00  0.00    +0.000 A 
ATOM      4  C   UNL     1       0.230  10.532  19.025  0.00  0.00    +0.000 A 
ATOM      5  N   UNL     1       0.074  10.022  20.269  0.00  0.00    +0.000 NA
ATOM      6  C   UNL     1       0.729   8.876  20.557  0.00  0.00    +0.000 A 
ENDROOT
BRANCH   1   8
ATOM      7  N   UNL     1       3.510   6.750  19.521  0.00  0.00    +0.000 N 
ATOM      8  C   UNL     1       2.249   6.951  20.055  0.00  0.00    +0.000 C 
ATOM      9  N   UNL     1       1.551   6.177  20.824  0.00  0.00    +0.000 NA
ATOM     10  H   UNL     1       4.178   7.475  19.763  0.00  0.00    +0.000 HD
BRANCH   9  11
ATOM     11  O   UNL     1       2.222   5.018  21.221  0.00  0.00    +0.000 OA
ATOM     12  H   UNL     1       1.906   4.898  22.137  0.00  0.00    +0.000 HD
ENDBRANCH   9  11
BRANCH   7  13
ATOM     13  C   UNL     1       4.121   5.456  19.322  0.00  0.00    +0.000 C 
BRANCH  13  17
ATOM     14  C   UNL     1       6.125   5.314  15.477  0.00  0.00    +0.000 A 
ATOM     15  C   UNL     1       6.431   4.385  16.473  0.00  0.00    +0.000 A 
ATOM     16  C   UNL     1       5.788   4.432  17.715  0.00  0.00    +0.000 A 
ATOM     17  C   UNL     1       4.831   5.420  17.986  0.00  0.00    +0.000 A 
ATOM     18  C   UNL     1       4.547   6.366  16.988  0.00  0.00    +0.000 A 
ATOM     19  C   UNL     1       5.186   6.311  15.741  0.00  0.00    +0.000 A 
BRANCH  14  21
ATOM     20  C   UNL     1       6.511   4.040  13.520  0.00  0.00    +0.000 C 
ATOM     21  O   UNL     1       6.831   5.178  14.312  0.00  0.00    +0.000 OA
ENDBRANCH  14  21
ENDBRANCH  13  17
ENDBRANCH   7  13
ENDBRANCH   1   8
BRANCH   4  22
ATOM     22  O   UNL     1      -0.516  11.645  18.657  0.00  0.00    +0.000 OA
BRANCH  22  23
ATOM     23  C   UNL     1      -1.778  11.418  18.134  0.00  0.00    +0.000 A 
ATOM     24  C   UNL     1      -1.848  10.858  16.858  0.00  0.00    +0.000 A 
ATOM     25  C   UNL     1      -3.095  10.594  16.272  0.00  0.00    +0.000 A 
ATOM     26  C   UNL     1      -3.199  10.062  14.873  0.00  0.00    +0.000 C 
ATOM     27  C   UNL     1      -4.268  10.856  17.000  0.00  0.00    +0.000 A 
ATOM     28  C   UNL     1      -4.219  11.397  18.292  0.00  0.00    +0.000 A 
ATOM     29  C   UNL     1      -2.960  11.670  18.846  0.00  0.00    +0.000 A 
BRANCH  28  30
ATOM     30  C   UNL     1      -5.499  11.675  19.062  0.00  0.00    +0.000 C 
ATOM     31  C   UNL     1      -5.775  13.178  19.172  0.00  0.00    +0.000 C 
ATOM     32  C   UNL     1      -6.715  10.961  18.463  0.00  0.00    +0.000 C 
ENDBRANCH  28  30
ENDBRANCH  22  23
ENDBRANCH   4  22
TORSDOF 8
ENDMDL
