MODEL 1
REMARK VINA RESULT:      -8.5      0.000      0.000
REMARK  Name = 
REMARK  6 active torsions:
REMARK  status: ('A' for Active; 'I' for Inactive)
REMARK    1  A    between atoms: C_1  and  C_2
REMARK    2  A    between atoms: C_4  and  C_5
REMARK    3  A    between atoms: C_8  and  O_9
REMARK    4  A    between atoms: O_9  and  C_10
REMARK    5  A    between atoms: N_12  and  C_13
REMARK    6  A    between atoms: C_16  and  C_17
REMARK                            x       y       z     vdW  Elec       q    Type
REMARK                         _______ _______ _______ _____ _____    ______ ____
ROOT
ATOM      1  C   UNL     1       2.460   5.534  20.050  0.00  0.00    +0.000 C 
ATOM      2  O   UNL     1       1.367   5.017  20.261  0.00  0.00    +0.000 OA
ATOM      3  N   UNL     1       2.693   6.867  19.790  0.00  0.00    +0.000 N 
ATOM      4  H   UNL     1       3.556   7.100  19.327  0.00  0.00    +0.000 HD
ENDROOT
BRANCH   3   5
ATOM      5  C   UNL     1       1.815   7.915  20.161  0.00  0.00    +0.000 A 
ATOM      6  C   UNL     1       1.355   8.055  21.470  0.00  0.00    +0.000 A 
ATOM      7  C   UNL     1       0.479   9.081  21.822  0.00  0.00    +0.000 A 
ATOM      8  C   UNL     1       0.045  10.024  20.882  0.00  0.00    +0.000 A 
ATOM      9  C   UNL     1       0.549   9.898  19.573  0.00  0.00    +0.000 A 
ATOM     10  C   UNL     1       1.432   8.866  19.216  0.00  0.00    +0.000 A 
BRANCH   8  11
ATOM     11  C   UNL     1      -0.887  11.102  21.262  0.00  0.00    +0.000 A 
ATOM     12  C   UNL     1      -1.191  11.401  22.604  0.00  0.00    +0.000 A 
ATOM     13  C   UNL     1      -2.058  12.432  22.920  0.00  0.00    +0.000 A 
ATOM     14  C   UNL     1      -2.620  13.167  21.893  0.00  0.00    +0.000 A 
ATOM     15  N   UNL     1      -2.373  12.927  20.586  0.00  0.00    +0.000 NA
ATOM     16  C   UNL     1      -1.525  11.907  20.309  0.00  0.00    +0.000 A 
ENDBRANCH   8  11
ENDBRANCH   3   5
BRANCH   1  17
ATOM     17  O   UNL     1       3.662   4.830  20.085  0.00  0.00    +0.000 OA
BRANCH  17  21
ATOM     18  C   UNL     1       5.348   4.482  16.202  0.00  0.00    +0.000 A 
ATOM     19  C   UNL     1       4.140   3.846  16.548  0.00  0.00    +0.000 A 
ATOM     20  C   UNL     1       3.605   3.932  17.844  0.00  0.00    +0.000 A 
ATOM     21  C   UNL     1       4.281   4.654  18.827  0.00  0.00    +0.000 A 
ATOM     22  C   UNL     1       5.465   5.317  18.505  0.00  0.00    +0.000 A 
ATOM     23  C   UNL     1       5.990   5.223  17.211  0.00  0.00    +0.000 A 
BRANCH  18  27
ATOM     24  C   UNL     1       5.393   2.633  11.508  0.00  0.00    +0.000 C 
ATOM     25  C   UNL     1       5.969   3.502  12.584  0.00  0.00    +0.000 A 
ATOM     26  C   UNL     1       5.371   3.574  13.843  0.00  0.00    +0.000 A 
ATOM     27  C   UNL     1       5.935   4.382  14.843  0.00  0.00    +0.000 A 
ATOM     28  C   UNL     1       7.092   5.095  14.500  0.00  0.00    +0.000 A 
ATOM     29  C   UNL     1       7.621   4.971  13.226  0.00  0.00    +0.000 A 
ATOM     30  N   UNL     1       7.087   4.193  12.266  0.00  0.00    +0.000 NA
ENDBRANCH  18  27
ENDBRANCH  17  21
ENDBRANCH   1  17
TORSDOF 5
ENDMDL
MODEL 2
REMARK VINA RESULT:      -8.2      0.679      1.570
REMARK  Name = 
REMARK  6 active torsions:
REMARK  status: ('A' for Active; 'I' for Inactive)
REMARK    1  A    between atoms: C_1  and  C_2
REMARK    2  A    between atoms: C_4  and  C_5
REMARK    3  A    between atoms: C_8  and  O_9
REMARK    4  A    between atoms: O_9  and  C_10
REMARK    5  A    between atoms: N_12  and  C_13
REMARK    6  A    between atoms: C_16  and  C_17
REMARK                            x       y       z     vdW  Elec       q    Type
REMARK                         _______ _______ _______ _____ _____    ______ ____
ROOT
ATOM      1  C   UNL     1       2.527   5.934  20.025  0.00  0.00    +0.000 C 
ATOM      2  O   UNL     1       1.537   5.360  20.468  0.00  0.00    +0.000 OA
ATOM      3  N   UNL     1       2.592   7.250  19.620  0.00  0.00    +0.000 N 
ATOM      4  H   UNL     1       3.339   7.500  18.994  0.00  0.00    +0.000 HD
ENDROOT
BRANCH   3   5
ATOM      5  C   UNL     1       1.699   8.260  20.053  0.00  0.00    +0.000 A 
ATOM      6  C   UNL     1       1.246   9.256  19.188  0.00  0.00    +0.000 A 
ATOM      7  C   UNL     1       0.379  10.255  19.628  0.00  0.00    +0.000 A 
ATOM      8  C   UNL     1      -0.089  10.286  20.948  0.00  0.00    +0.000 A 
ATOM      9  C   UNL     1       0.343   9.253  21.802  0.00  0.00    +0.000 A 
ATOM     10  C   UNL     1       1.214   8.244  21.361  0.00  0.00    +0.000 A 
BRANCH   8  11
ATOM     11  C   UNL     1      -1.000  11.352  21.406  0.00  0.00    +0.000 A 
ATOM     12  C   UNL     1      -1.888  12.013  20.537  0.00  0.00    +0.000 A 
ATOM     13  C   UNL     1      -2.740  12.996  21.009  0.00  0.00    +0.000 A 
ATOM     14  C   UNL     1      -2.706  13.316  22.354  0.00  0.00    +0.000 A 
ATOM     15  N   UNL     1      -1.874  12.722  23.237  0.00  0.00    +0.000 NA
ATOM     16  C   UNL     1      -1.048  11.768  22.743  0.00  0.00    +0.000 A 
ENDBRANCH   8  11
ENDBRANCH   3   5
BRANCH   1  17
ATOM     17  O   UNL     1       3.776   5.327  19.904  0.00  0.00    +0.000 OA
BRANCH  17  21
ATOM     18  C   UNL     1       5.364   4.732  16.010  0.00  0.00    +0.000 A 
ATOM     19  C   UNL     1       5.727   5.840  16.801  0.00  0.00    +0.000 A 
ATOM     20  C   UNL     1       5.171   6.053  18.073  0.00  0.00    +0.000 A 
ATOM     21  C   UNL     1       4.226   5.160  18.575  0.00  0.00    +0.000 A 
ATOM     22  C   UNL     1       3.869   4.040  17.827  0.00  0.00    +0.000 A 
ATOM     23  C   UNL     1       4.428   3.837  16.560  0.00  0.00    +0.000 A 
BRANCH  18  27
ATOM     24  C   UNL     1       5.250   2.557  11.460  0.00  0.00    +0.000 C 
ATOM     25  C   UNL     1       5.885   3.468  12.466  0.00  0.00    +0.000 A 
ATOM     26  C   UNL     1       5.308   3.661  13.723  0.00  0.00    +0.000 A 
ATOM     27  C   UNL     1       5.927   4.505  14.657  0.00  0.00    +0.000 A 
ATOM     28  C   UNL     1       7.116   5.130  14.253  0.00  0.00    +0.000 A 
ATOM     29  C   UNL     1       7.621   4.888  12.985  0.00  0.00    +0.000 A 
ATOM     30  N   UNL     1       7.033   4.074  12.089  0.00  0.00    +0.000 NA
ENDBRANCH  18  27
ENDBRANCH  17  21
ENDBRANCH   1  17
TORSDOF 5
ENDMDL
MODEL 3
REMARK VINA RESULT:      -8.1      0.645      1.092
REMARK  Name = 
REMARK  6 active torsions:
REMARK  status: ('A' for Active; 'I' for Inactive)
REMARK    1  A    between atoms: C_1  and  C_2
REMARK    2  A    between atoms: C_4  and  C_5
REMARK    3  A    between atoms: C_8  and  O_9
REMARK    4  A    between atoms: O_9  and  C_10
REMARK    5  A    between atoms: N_12  and  C_13
REMARK    6  A    between atoms: C_16  and  C_17
REMARK                            x       y       z     vdW  Elec       q    Type
REMARK                         _______ _______ _______ _____ _____    ______ ____
ROOT
ATOM      1  C   UNL     1       3.057   5.213  20.066  0.00  0.00    +0.000 C 
ATOM      2  O   UNL     1       2.189   4.719  20.780  0.00  0.00    +0.000 OA
ATOM      3  N   UNL     1       2.972   6.414  19.396  0.00  0.00    +0.000 N 
ATOM      4  H   UNL     1       3.592   6.547  18.613  0.00  0.00    +0.000 HD
ENDROOT
BRANCH   3   5
ATOM      5  C   UNL     1       2.100   7.469  19.760  0.00  0.00    +0.000 A 
ATOM      6  C   UNL     1       1.506   7.525  21.020  0.00  0.00    +0.000 A 
ATOM      7  C   UNL     1       0.636   8.559  21.364  0.00  0.00    +0.000 A 
ATOM      8  C   UNL     1       0.343   9.593  20.467  0.00  0.00    +0.000 A 
ATOM      9  C   UNL     1       0.980   9.549  19.212  0.00  0.00    +0.000 A 
ATOM     10  C   UNL     1       1.858   8.510  18.864  0.00  0.00    +0.000 A 
BRANCH   8  11
ATOM     11  C   UNL     1      -0.584  10.680  20.837  0.00  0.00    +0.000 A 
ATOM     12  C   UNL     1      -0.795  11.072  22.172  0.00  0.00    +0.000 A 
ATOM     13  C   UNL     1      -1.661  12.109  22.477  0.00  0.00    +0.000 A 
ATOM     14  C   UNL     1      -2.313  12.755  21.444  0.00  0.00    +0.000 A 
ATOM     15  N   UNL     1      -2.158  12.423  20.144  0.00  0.00    +0.000 NA
ATOM     16  C   UNL     1      -1.309  11.401  19.878  0.00  0.00    +0.000 A 
ENDBRANCH   8  11
ENDBRANCH   3   5
BRANCH   1  17
ATOM     17  O   UNL     1       4.305   4.629  19.860  0.00  0.00    +0.000 OA
BRANCH  17  21
ATOM     18  C   UNL     1       5.774   4.421  15.880  0.00  0.00    +0.000 A 
ATOM     19  C   UNL     1       6.561   4.913  16.940  0.00  0.00    +0.000 A 
ATOM     20  C   UNL     1       6.059   5.015  18.247  0.00  0.00    +0.000 A 
ATOM     21  C   UNL     1       4.746   4.635  18.518  0.00  0.00    +0.000 A 
ATOM     22  C   UNL     1       3.952   4.118  17.494  0.00  0.00    +0.000 A 
ATOM     23  C   UNL     1       4.462   4.021  16.194  0.00  0.00    +0.000 A 
BRANCH  18  27
ATOM     24  C   UNL     1       5.836   2.292  11.307  0.00  0.00    +0.000 C 
ATOM     25  C   UNL     1       6.324   3.314  12.288  0.00  0.00    +0.000 A 
ATOM     26  C   UNL     1       5.802   3.373  13.581  0.00  0.00    +0.000 A 
ATOM     27  C   UNL     1       6.284   4.327  14.490  0.00  0.00    +0.000 A 
ATOM     28  C   UNL     1       7.282   5.195  14.025  0.00  0.00    +0.000 A 
ATOM     29  C   UNL     1       7.744   5.073  12.725  0.00  0.00    +0.000 A 
ATOM     30  N   UNL     1       7.288   4.156  11.851  0.00  0.00    +0.000 NA
ENDBRANCH  18  27
ENDBRANCH  17  21
ENDBRANCH   1  17
TORSDOF 5
ENDMDL
MODEL 4
REMARK VINA RESULT:      -8.1      0.791      1.220
REMARK  Name = 
REMARK  6 active torsions:
REMARK  status: ('A' for Active; 'I' for Inactive)
REMARK    1  A    between atoms: C_1  and  C_2
REMARK    2  A    between atoms: C_4  and  C_5
REMARK    3  A    between atoms: C_8  and  O_9
REMARK    4  A    between atoms: O_9  and  C_10
REMARK    5  A    between atoms: N_12  and  C_13
REMARK    6  A    between atoms: C_16  and  C_17
REMARK                            x       y       z     vdW  Elec       q    Type
REMARK                         _______ _______ _______ _____ _____    ______ ____
ROOT
ATOM      1  C   UNL     1       3.226   5.507  19.999  0.00  0.00    +0.000 C 
ATOM      2  O   UNL     1       2.313   4.987  20.634  0.00  0.00    +0.000 OA
ATOM      3  N   UNL     1       3.153   6.683  19.285  0.00  0.00    +0.000 N 
ATOM      4  H   UNL     1       3.844   6.827  18.567  0.00  0.00    +0.000 HD
ENDROOT
BRANCH   3   5
ATOM      5  C   UNL     1       2.194   7.699  19.520  0.00  0.00    +0.000 A 
ATOM      6  C   UNL     1       1.809   8.588  18.518  0.00  0.00    +0.000 A 
ATOM      7  C   UNL     1       0.876   9.595  18.763  0.00  0.00    +0.000 A 
ATOM      8  C   UNL     1       0.271   9.738  20.018  0.00  0.00    +0.000 A 
ATOM      9  C   UNL     1       0.636   8.808  21.012  0.00  0.00    +0.000 A 
ATOM     10  C   UNL     1       1.575   7.793  20.766  0.00  0.00    +0.000 A 
BRANCH   8  11
ATOM     11  C   UNL     1      -0.710  10.810  20.271  0.00  0.00    +0.000 A 
ATOM     12  C   UNL     1      -0.864  11.411  21.534  0.00  0.00    +0.000 A 
ATOM     13  C   UNL     1      -1.785  12.427  21.726  0.00  0.00    +0.000 A 
ATOM     14  C   UNL     1      -2.549  12.844  20.652  0.00  0.00    +0.000 A 
ATOM     15  N   UNL     1      -2.451  12.305  19.418  0.00  0.00    +0.000 NA
ATOM     16  C   UNL     1      -1.546  11.308  19.263  0.00  0.00    +0.000 A 
ENDBRANCH   8  11
ENDBRANCH   3   5
BRANCH   1  17
ATOM     17  O   UNL     1       4.517   4.986  19.945  0.00  0.00    +0.000 OA
BRANCH  17  21
ATOM     18  C   UNL     1       5.840   4.528  15.934  0.00  0.00    +0.000 A 
ATOM     19  C   UNL     1       4.605   4.012  16.374  0.00  0.00    +0.000 A 
ATOM     20  C   UNL     1       4.188   4.133  17.710  0.00  0.00    +0.000 A 
ATOM     21  C   UNL     1       5.011   4.767  18.639  0.00  0.00    +0.000 A 
ATOM     22  C   UNL     1       6.226   5.312  18.226  0.00  0.00    +0.000 A 
ATOM     23  C   UNL     1       6.633   5.186  16.892  0.00  0.00    +0.000 A 
BRANCH  18  27
ATOM     24  C   UNL     1       5.666   2.331  11.396  0.00  0.00    +0.000 C 
ATOM     25  C   UNL     1       6.229   3.344  12.346  0.00  0.00    +0.000 A 
ATOM     26  C   UNL     1       5.750   3.446  13.653  0.00  0.00    +0.000 A 
ATOM     27  C   UNL     1       6.302   4.390  14.532  0.00  0.00    +0.000 A 
ATOM     28  C   UNL     1       7.324   5.204  14.023  0.00  0.00    +0.000 A 
ATOM     29  C   UNL     1       7.741   5.042  12.711  0.00  0.00    +0.000 A 
ATOM     30  N   UNL     1       7.217   4.133  11.867  0.00  0.00    +0.000 NA
ENDBRANCH  18  27
ENDBRANCH  17  21
ENDBRANCH   1  17
TORSDOF 5
ENDMDL
MODEL 5
REMARK VINA RESULT:      -8.0      1.339     10.135
REMARK  Name = 
REMARK  6 active torsions:
REMARK  status: ('A' for Active; 'I' for Inactive)
REMARK    1  A    between atoms: C_1  and  C_2
REMARK    2  A    between atoms: C_4  and  C_5
REMARK    3  A    between atoms: C_8  and  O_9
REMARK    4  A    between atoms: O_9  and  C_10
REMARK    5  A    between atoms: N_12  and  C_13
REMARK    6  A    between atoms: C_16  and  C_17
REMARK                            x       y       z     vdW  Elec       q    Type
REMARK                         _______ _______ _______ _____ _____    ______ ____
ROOT
ATOM      1  C   UNL     1       2.274   5.253  19.749  0.00  0.00    +0.000 C 
ATOM      2  O   UNL     1       1.472   4.661  19.032  0.00  0.00    +0.000 OA
ATOM      3  N   UNL     1       3.635   5.341  19.547  0.00  0.00    +0.000 N 
ATOM      4  H   UNL     1       4.203   5.566  20.347  0.00  0.00    +0.000 HD
ENDROOT
BRANCH   3   5
ATOM      5  C   UNL     1       4.265   5.169  18.291  0.00  0.00    +0.000 A 
ATOM      6  C   UNL     1       4.676   6.257  17.523  0.00  0.00    +0.000 A 
ATOM      7  C   UNL     1       5.283   6.078  16.280  0.00  0.00    +0.000 A 
ATOM      8  C   UNL     1       5.524   4.798  15.765  0.00  0.00    +0.000 A 
ATOM      9  C   UNL     1       5.143   3.705  16.567  0.00  0.00    +0.000 A 
ATOM     10  C   UNL     1       4.533   3.883  17.820  0.00  0.00    +0.000 A 
BRANCH   8  11
ATOM     11  C   UNL     1       6.160   4.617  14.446  0.00  0.00    +0.000 A 
ATOM     12  C   UNL     1       5.703   3.672  13.509  0.00  0.00    +0.000 A 
ATOM     13  C   UNL     1       6.316   3.545  12.275  0.00  0.00    +0.000 A 
ATOM     14  C   UNL     1       7.387   4.367  11.977  0.00  0.00    +0.000 A 
ATOM     15  N   UNL     1       7.876   5.290  12.834  0.00  0.00    +0.000 NA
ATOM     16  C   UNL     1       7.259   5.386  14.036  0.00  0.00    +0.000 A 
ENDBRANCH   8  11
ENDBRANCH   3   5
BRANCH   1  17
ATOM     17  O   UNL     1       1.904   5.978  20.879  0.00  0.00    +0.000 OA
BRANCH  17  21
ATOM     18  C   UNL     1       0.764   9.973  19.993  0.00  0.00    +0.000 A 
ATOM     19  C   UNL     1       1.484   9.183  19.076  0.00  0.00    +0.000 A 
ATOM     20  C   UNL     1       1.892   7.876  19.387  0.00  0.00    +0.000 A 
ATOM     21  C   UNL     1       1.593   7.335  20.637  0.00  0.00    +0.000 A 
ATOM     22  C   UNL     1       0.857   8.083  21.554  0.00  0.00    +0.000 A 
ATOM     23  C   UNL     1       0.456   9.386  21.235  0.00  0.00    +0.000 A 
BRANCH  18  27
ATOM     24  C   UNL     1      -2.370  13.888  20.534  0.00  0.00    +0.000 C 
ATOM     25  C   UNL     1      -1.152  13.252  19.937  0.00  0.00    +0.000 A 
ATOM     26  C   UNL     1      -0.790  11.946  20.269  0.00  0.00    +0.000 A 
ATOM     27  C   UNL     1       0.345  11.362  19.686  0.00  0.00    +0.000 A 
ATOM     28  C   UNL     1       1.073  12.156  18.789  0.00  0.00    +0.000 A 
ATOM     29  C   UNL     1       0.649  13.447  18.516  0.00  0.00    +0.000 A 
ATOM     30  N   UNL     1      -0.443  14.008  19.068  0.00  0.00    +0.000 NA
ENDBRANCH  18  27
ENDBRANCH  17  21
ENDBRANCH   1  17
TORSDOF 5
ENDMDL
MODEL 6
REMARK VINA RESULT:      -8.0      1.303     10.195
REMARK  Name = 
REMARK  6 active torsions:
REMARK  status: ('A' for Active; 'I' for Inactive)
REMARK    1  A    between atoms: C_1  and  C_2
REMARK    2  A    between atoms: C_4  and  C_5
REMARK    3  A    between atoms: C_8  and  O_9
REMARK    4  A    between atoms: O_9  and  C_10
REMARK    5  A    between atoms: N_12  and  C_13
REMARK    6  A    between atoms: C_16  and  C_17
REMARK                            x       y       z     vdW  Elec       q    Type
REMARK                         _______ _______ _______ _____ _____    ______ ____
ROOT
ATOM      1  C   UNL     1       2.339   5.293  19.795  0.00  0.00    +0.000 C 
ATOM      2  O   UNL     1       1.555   4.600  19.153  0.00  0.00    +0.000 OA
ATOM      3  N   UNL     1       3.681   5.459  19.533  0.00  0.00    +0.000 N 
ATOM      4  H   UNL     1       4.261   5.775  20.293  0.00  0.00    +0.000 HD
ENDROOT
BRANCH   3   5
ATOM      5  C   UNL     1       4.277   5.243  18.267  0.00  0.00    +0.000 A 
ATOM      6  C   UNL     1       4.496   3.958  17.771  0.00  0.00    +0.000 A 
ATOM      7  C   UNL     1       5.098   3.755  16.529  0.00  0.00    +0.000 A 
ATOM      8  C   UNL     1       5.484   4.832  15.722  0.00  0.00    +0.000 A 
ATOM      9  C   UNL     1       5.220   6.125  16.214  0.00  0.00    +0.000 A 
ATOM     10  C   UNL     1       4.613   6.332  17.463  0.00  0.00    +0.000 A 
BRANCH   8  11
ATOM     11  C   UNL     1       6.126   4.608  14.412  0.00  0.00    +0.000 A 
ATOM     12  C   UNL     1       5.611   3.706  13.462  0.00  0.00    +0.000 A 
ATOM     13  C   UNL     1       6.233   3.537  12.238  0.00  0.00    +0.000 A 
ATOM     14  C   UNL     1       7.370   4.274  11.962  0.00  0.00    +0.000 A 
ATOM     15  N   UNL     1       7.916   5.151  12.833  0.00  0.00    +0.000 NA
ATOM     16  C   UNL     1       7.288   5.289  14.026  0.00  0.00    +0.000 A 
ENDBRANCH   8  11
ENDBRANCH   3   5
BRANCH   1  17
ATOM     17  O   UNL     1       1.959   6.067  20.890  0.00  0.00    +0.000 OA
BRANCH  17  21
ATOM     18  C   UNL     1       0.613  10.013  20.079  0.00  0.00    +0.000 A 
ATOM     19  C   UNL     1       0.251   9.331  21.256  0.00  0.00    +0.000 A 
ATOM     20  C   UNL     1       0.667   8.012  21.503  0.00  0.00    +0.000 A 
ATOM     21  C   UNL     1       1.451   7.344  20.564  0.00  0.00    +0.000 A 
ATOM     22  C   UNL     1       1.848   8.005  19.402  0.00  0.00    +0.000 A 
ATOM     23  C   UNL     1       1.427   9.319  19.164  0.00  0.00    +0.000 A 
BRANCH  18  27
ATOM     24  C   UNL     1      -2.520  13.901  20.797  0.00  0.00    +0.000 C 
ATOM     25  C   UNL     1      -1.334  13.275  20.130  0.00  0.00    +0.000 A 
ATOM     26  C   UNL     1      -0.940  11.973  20.443  0.00  0.00    +0.000 A 
ATOM     27  C   UNL     1       0.164  11.398  19.795  0.00  0.00    +0.000 A 
ATOM     28  C   UNL     1       0.830  12.197  18.854  0.00  0.00    +0.000 A 
ATOM     29  C   UNL     1       0.378  13.483  18.604  0.00  0.00    +0.000 A 
ATOM     30  N   UNL     1      -0.685  14.035  19.219  0.00  0.00    +0.000 NA
ENDBRANCH  18  27
ENDBRANCH  17  21
ENDBRANCH   1  17
TORSDOF 5
ENDMDL
MODEL 7
REMARK VINA RESULT:      -8.0      1.734     10.173
REMARK  Name = 
REMARK  6 active torsions:
REMARK  status: ('A' for Active; 'I' for Inactive)
REMARK    1  A    between atoms: C_1  and  C_2
REMARK    2  A    between atoms: C_4  and  C_5
REMARK    3  A    between atoms: C_8  and  O_9
REMARK    4  A    between atoms: O_9  and  C_10
REMARK    5  A    between atoms: N_12  and  C_13
REMARK    6  A    between atoms: C_16  and  C_17
REMARK                            x       y       z     vdW  Elec       q    Type
REMARK                         _______ _______ _______ _____ _____    ______ ____
ROOT
ATOM      1  C   UNL     1       2.369   5.476  19.745  0.00  0.00    +0.000 C 
ATOM      2  O   UNL     1       1.574   4.782  19.117  0.00  0.00    +0.000 OA
ATOM      3  N   UNL     1       3.714   5.612  19.483  0.00  0.00    +0.000 N 
ATOM      4  H   UNL     1       4.298   5.936  20.237  0.00  0.00    +0.000 HD
ENDROOT
BRANCH   3   5
ATOM      5  C   UNL     1       4.309   5.356  18.224  0.00  0.00    +0.000 A 
ATOM      6  C   UNL     1       4.611   6.387  17.334  0.00  0.00    +0.000 A 
ATOM      7  C   UNL     1       5.182   6.125  16.090  0.00  0.00    +0.000 A 
ATOM      8  C   UNL     1       5.498   4.819  15.694  0.00  0.00    +0.000 A 
ATOM      9  C   UNL     1       5.227   3.789  16.616  0.00  0.00    +0.000 A 
ATOM     10  C   UNL     1       4.653   4.052  17.870  0.00  0.00    +0.000 A 
BRANCH   8  11
ATOM     11  C   UNL     1       6.096   4.550  14.372  0.00  0.00    +0.000 A 
ATOM     12  C   UNL     1       5.550   3.617  13.470  0.00  0.00    +0.000 A 
ATOM     13  C   UNL     1       6.131   3.406  12.232  0.00  0.00    +0.000 A 
ATOM     14  C   UNL     1       7.259   4.131  11.895  0.00  0.00    +0.000 A 
ATOM     15  N   UNL     1       7.833   5.036  12.717  0.00  0.00    +0.000 NA
ATOM     16  C   UNL     1       7.245   5.216  13.924  0.00  0.00    +0.000 A 
ENDBRANCH   8  11
ENDBRANCH   3   5
BRANCH   1  17
ATOM     17  O   UNL     1       2.000   6.281  20.821  0.00  0.00    +0.000 OA
BRANCH  17  21
ATOM     18  C   UNL     1       0.950  10.289  19.881  0.00  0.00    +0.000 A 
ATOM     19  C   UNL     1       0.749   9.748  21.166  0.00  0.00    +0.000 A 
ATOM     20  C   UNL     1       1.063   8.412  21.463  0.00  0.00    +0.000 A 
ATOM     21  C   UNL     1       1.577   7.582  20.467  0.00  0.00    +0.000 A 
ATOM     22  C   UNL     1       1.812   8.098  19.193  0.00  0.00    +0.000 A 
ATOM     23  C   UNL     1       1.495   9.431  18.907  0.00  0.00    +0.000 A 
BRANCH  18  27
ATOM     24  C   UNL     1       1.401  15.263  20.593  0.00  0.00    +0.000 C 
ATOM     25  C   UNL     1       0.811  14.085  19.878  0.00  0.00    +0.000 A 
ATOM     26  C   UNL     1       1.180  12.782  20.218  0.00  0.00    +0.000 A 
ATOM     27  C   UNL     1       0.604  11.692  19.548  0.00  0.00    +0.000 A 
ATOM     28  C   UNL     1      -0.325  11.989  18.541  0.00  0.00    +0.000 A 
ATOM     29  C   UNL     1      -0.634  13.311  18.262  0.00  0.00    +0.000 A 
ATOM     30  N   UNL     1      -0.088  14.359  18.906  0.00  0.00    +0.000 NA
ENDBRANCH  18  27
ENDBRANCH  17  21
ENDBRANCH   1  17
TORSDOF 5
ENDMDL
MODEL 8
REMARK VINA RESULT:      -8.0      1.605     10.152
REMARK  Name = 
REMARK  6 active torsions:
REMARK  status: ('A' for Active; 'I' for Inactive)
REMARK    1  A    between atoms: C_1  and  C_2
REMARK    2  A    between atoms: C_4  and  C_5
REMARK    3  A    between atoms: C_8  and  O_9
REMARK    4  A    between atoms: O_9  and  C_10
REMARK    5  A    between atoms: N_12  and  C_13
REMARK    6  A    between atoms: C_16  and  C_17
REMARK                            x       y       z     vdW  Elec       q    Type
REMARK                         _______ _______ _______ _____ _____    ______ ____
ROOT
ATOM      1  C   UNL     1       2.272   5.309  19.757  0.00  0.00    +0.000 C 
ATOM      2  O   UNL     1       1.446   4.732  19.054  0.00  0.00    +0.000 OA
ATOM      3  N   UNL     1       3.631   5.365  19.536  0.00  0.00    +0.000 N 
ATOM      4  H   UNL     1       4.215   5.579  20.327  0.00  0.00    +0.000 HD
ENDROOT
BRANCH   3   5
ATOM      5  C   UNL     1       4.240   5.173  18.273  0.00  0.00    +0.000 A 
ATOM      6  C   UNL     1       4.551   3.899  17.797  0.00  0.00    +0.000 A 
ATOM      7  C   UNL     1       5.165   3.720  16.558  0.00  0.00    +0.000 A 
ATOM      8  C   UNL     1       5.472   4.810  15.733  0.00  0.00    +0.000 A 
ATOM      9  C   UNL     1       5.117   6.088  16.205  0.00  0.00    +0.000 A 
ATOM     10  C   UNL     1       4.497   6.270  17.452  0.00  0.00    +0.000 A 
BRANCH   8  11
ATOM     11  C   UNL     1       6.129   4.611  14.426  0.00  0.00    +0.000 A 
ATOM     12  C   UNL     1       5.671   3.671  13.485  0.00  0.00    +0.000 A 
ATOM     13  C   UNL     1       6.304   3.527  12.262  0.00  0.00    +0.000 A 
ATOM     14  C   UNL     1       7.395   4.328  11.980  0.00  0.00    +0.000 A 
ATOM     15  N   UNL     1       7.885   5.246  12.842  0.00  0.00    +0.000 NA
ATOM     16  C   UNL     1       7.248   5.358  14.033  0.00  0.00    +0.000 A 
ENDBRANCH   8  11
ENDBRANCH   3   5
BRANCH   1  17
ATOM     17  O   UNL     1       1.933   6.047  20.889  0.00  0.00    +0.000 OA
BRANCH  17  21
ATOM     18  C   UNL     1       0.802  10.044  20.005  0.00  0.00    +0.000 A 
ATOM     19  C   UNL     1       1.445   9.226  19.057  0.00  0.00    +0.000 A 
ATOM     20  C   UNL     1       1.851   7.917  19.365  0.00  0.00    +0.000 A 
ATOM     21  C   UNL     1       1.629   7.404  20.642  0.00  0.00    +0.000 A 
ATOM     22  C   UNL     1       0.970   8.182  21.593  0.00  0.00    +0.000 A 
ATOM     23  C   UNL     1       0.570   9.486  21.276  0.00  0.00    +0.000 A 
BRANCH  18  27
ATOM     24  C   UNL     1       0.600  14.963  21.110  0.00  0.00    +0.000 C 
ATOM     25  C   UNL     1       0.282  13.801  20.218  0.00  0.00    +0.000 A 
ATOM     26  C   UNL     1       0.709  12.512  20.541  0.00  0.00    +0.000 A 
ATOM     27  C   UNL     1       0.386  11.435  19.700  0.00  0.00    +0.000 A 
ATOM     28  C   UNL     1      -0.357  11.733  18.549  0.00  0.00    +0.000 A 
ATOM     29  C   UNL     1      -0.739  13.041  18.300  0.00  0.00    +0.000 A 
ATOM     30  N   UNL     1      -0.437  14.076  19.106  0.00  0.00    +0.000 NA
ENDBRANCH  18  27
ENDBRANCH  17  21
ENDBRANCH   1  17
TORSDOF 5
ENDMDL
MODEL 9
REMARK VINA RESULT:      -8.0      4.111      6.323
REMARK  Name = 
REMARK  6 active torsions:
REMARK  status: ('A' for Active; 'I' for Inactive)
REMARK    1  A    between atoms: C_1  and  C_2
REMARK    2  A    between atoms: C_4  and  C_5
REMARK    3  A    between atoms: C_8  and  O_9
REMARK    4  A    between atoms: O_9  and  C_10
REMARK    5  A    between atoms: N_12  and  C_13
REMARK    6  A    between atoms: C_16  and  C_17
REMARK                            x       y       z     vdW  Elec       q    Type
REMARK                         _______ _______ _______ _____ _____    ______ ____
ROOT
ATOM      1  C   UNL     1      -0.178  11.022  18.614  0.00  0.00    +0.000 C 
ATOM      2  O   UNL     1      -0.972  10.248  18.086  0.00  0.00    +0.000 OA
ATOM      3  N   UNL     1      -0.501  12.122  19.378  0.00  0.00    +0.000 N 
ATOM      4  H   UNL     1       0.203  12.835  19.476  0.00  0.00    +0.000 HD
ENDROOT
BRANCH   3   5
ATOM      5  C   UNL     1      -1.737  12.290  20.049  0.00  0.00    +0.000 A 
ATOM      6  C   UNL     1      -2.939  12.401  19.352  0.00  0.00    +0.000 A 
ATOM      7  C   UNL     1      -4.149  12.582  20.021  0.00  0.00    +0.000 A 
ATOM      8  C   UNL     1      -4.208  12.635  21.419  0.00  0.00    +0.000 A 
ATOM      9  C   UNL     1      -2.993  12.480  22.115  0.00  0.00    +0.000 A 
ATOM     10  C   UNL     1      -1.774  12.297  21.444  0.00  0.00    +0.000 A 
BRANCH   8  11
ATOM     11  C   UNL     1      -5.492  12.833  22.118  0.00  0.00    +0.000 A 
ATOM     12  C   UNL     1      -6.733  12.743  21.460  0.00  0.00    +0.000 A 
ATOM     13  C   UNL     1      -7.917  12.919  22.156  0.00  0.00    +0.000 A 
ATOM     14  C   UNL     1      -7.859  13.181  23.512  0.00  0.00    +0.000 A 
ATOM     15  N   UNL     1      -6.700  13.285  24.199  0.00  0.00    +0.000 NA
ATOM     16  C   UNL     1      -5.558  13.114  23.490  0.00  0.00    +0.000 A 
ENDBRANCH   8  11
ENDBRANCH   3   5
BRANCH   1  17
ATOM     17  O   UNL     1       1.205  10.866  18.548  0.00  0.00    +0.000 OA
BRANCH  17  21
ATOM     18  C   UNL     1       2.344   6.874  19.448  0.00  0.00    +0.000 A 
ATOM     19  C   UNL     1       1.710   7.699  20.396  0.00  0.00    +0.000 A 
ATOM     20  C   UNL     1       1.368   9.030  20.107  0.00  0.00    +0.000 A 
ATOM     21  C   UNL     1       1.669   9.567  18.857  0.00  0.00    +0.000 A 
ATOM     22  C   UNL     1       2.272   8.766  17.888  0.00  0.00    +0.000 A 
ATOM     23  C   UNL     1       2.609   7.440  18.187  0.00  0.00    +0.000 A 
BRANCH  18  27
ATOM     24  C   UNL     1       1.607   2.469  21.794  0.00  0.00    +0.000 C 
ATOM     25  C   UNL     1       2.387   3.350  20.866  0.00  0.00    +0.000 A 
ATOM     26  C   UNL     1       1.976   4.658  20.605  0.00  0.00    +0.000 A 
ATOM     27  C   UNL     1       2.730   5.473  19.746  0.00  0.00    +0.000 A 
ATOM     28  C   UNL     1       3.877   4.901  19.178  0.00  0.00    +0.000 A 
ATOM     29  C   UNL     1       4.214   3.593  19.486  0.00  0.00    +0.000 A 
ATOM     30  N   UNL     1       3.497   2.810  20.314  0.00  0.00    +0.000 NA
ENDBRANCH  18  27
ENDBRANCH  17  21
ENDBRANCH   1  17
TORSDOF 5
ENDMDL
