MODEL 1
REMARK VINA RESULT:      -7.0      0.000      0.000
REMARK  Name = 
REMARK  9 active torsions:
REMARK  status: ('A' for Active; 'I' for Inactive)
REMARK    1  A    between atoms: C_4  and  C_5
REMARK    2  A    between atoms: C_8  and  O_9
REMARK    3  A    between atoms: O_9  and  C_10
REMARK    4  A    between atoms: C_10  and  C_11
REMARK    5  A    between atoms: C_11  and  C_12
REMARK    6  A    between atoms: C_12  and  O_13
REMARK    7  A    between atoms: C_15  and  O_16
REMARK    8  A    between atoms: C_22  and  O_23
REMARK    9  A    between atoms: C_24  and  O_25
REMARK                            x       y       z     vdW  Elec       q    Type
REMARK                         _______ _______ _______ _____ _____    ______ ____
ROOT
ATOM      1  O   UNL     1       2.445   8.167  18.012  0.00  0.00    +0.000 OA
ATOM      2  C   UNL     1       1.946   8.128  19.107  0.00  0.00    +0.000 C 
ATOM      3  C   UNL     1       1.931   7.043  20.145  0.00  0.00    +0.000 C 
ATOM      4  C   UNL     1       2.510   5.836  20.116  0.00  0.00    +0.000 C 
ATOM      5  O   UNL     1       1.185   7.453  21.254  0.00  0.00    +0.000 OA
ATOM      6  C   UNL     1       0.751   8.725  20.978  0.00  0.00    +0.000 A 
ATOM      7  C   UNL     1       1.153   9.190  19.733  0.00  0.00    +0.000 A 
ATOM      8  C   UNL     1       0.805  10.447  19.259  0.00  0.00    +0.000 A 
ATOM      9  C   UNL     1       0.022  11.259  20.091  0.00  0.00    +0.000 A 
ATOM     10  C   UNL     1      -0.378  10.789  21.353  0.00  0.00    +0.000 A 
ATOM     11  C   UNL     1      -0.013   9.517  21.800  0.00  0.00    +0.000 A 
ENDROOT
BRANCH   4  12
ATOM     12  C   UNL     1       3.353   5.317  19.038  0.00  0.00    +0.000 A 
ATOM     13  C   UNL     1       4.733   5.535  19.071  0.00  0.00    +0.000 A 
ATOM     14  C   UNL     1       5.561   4.969  18.095  0.00  0.00    +0.000 A 
ATOM     15  C   UNL     1       5.017   4.220  17.049  0.00  0.00    +0.000 A 
ATOM     16  C   UNL     1       3.635   4.037  16.985  0.00  0.00    +0.000 A 
ATOM     17  C   UNL     1       2.815   4.585  17.975  0.00  0.00    +0.000 A 
BRANCH  17  18
ATOM     18  O   UNL     1       1.457   4.413  17.895  0.00  0.00    +0.000 OA
ATOM     19  H   UNL     1       1.242   3.533  18.242  0.00  0.00    +0.000 HD
ENDBRANCH  17  18
BRANCH  15  20
ATOM     20  O   UNL     1       5.924   3.693  16.167  0.00  0.00    +0.000 OA
BRANCH  20  21
ATOM     21  C   UNL     1       6.963   4.581  15.746  0.00  0.00    +0.000 C 
BRANCH  21  22
ATOM     22  C   UNL     1       6.871   4.800  14.240  0.00  0.00    +0.000 C 
BRANCH  22  23
ATOM     23  C   UNL     1       5.970   3.753  13.598  0.00  0.00    +0.000 C 
BRANCH  23  24
ATOM     24  O   UNL     1       6.591   3.210  12.440  0.00  0.00    +0.000 OA
ATOM     25  H   UNL     1       5.940   3.245  11.719  0.00  0.00    +0.000 HD
ENDBRANCH  23  24
ENDBRANCH  22  23
ENDBRANCH  21  22
ENDBRANCH  20  21
ENDBRANCH  15  20
ENDBRANCH   4  12
BRANCH  10  26
ATOM     26  O   UNL     1      -1.143  11.552  22.194  0.00  0.00    +0.000 OA
ATOM     27  H   UNL     1      -1.863  11.957  21.680  0.00  0.00    +0.000 HD
ENDBRANCH  10  26
BRANCH  11  28
ATOM     28  O   UNL     1      -0.413   9.080  23.027  0.00  0.00    +0.000 OA
ATOM     29  H   UNL     1      -0.997   8.318  22.848  0.00  0.00    +0.000 HD
ENDBRANCH  11  28
TORSDOF 9
ENDMDL
MODEL 2
REMARK VINA RESULT:      -6.9      1.252      1.824
REMARK  Name = 
REMARK  9 active torsions:
REMARK  status: ('A' for Active; 'I' for Inactive)
REMARK    1  A    between atoms: C_4  and  C_5
REMARK    2  A    between atoms: C_8  and  O_9
REMARK    3  A    between atoms: O_9  and  C_10
REMARK    4  A    between atoms: C_10  and  C_11
REMARK    5  A    between atoms: C_11  and  C_12
REMARK    6  A    between atoms: C_12  and  O_13
REMARK    7  A    between atoms: C_15  and  O_16
REMARK    8  A    between atoms: C_22  and  O_23
REMARK    9  A    between atoms: C_24  and  O_25
REMARK                            x       y       z     vdW  Elec       q    Type
REMARK                         _______ _______ _______ _____ _____    ______ ____
ROOT
ATOM      1  O   UNL     1       3.092   7.700  17.285  0.00  0.00    +0.000 OA
ATOM      2  C   UNL     1       2.589   7.722  18.380  0.00  0.00    +0.000 C 
ATOM      3  C   UNL     1       2.621   6.722  19.498  0.00  0.00    +0.000 C 
ATOM      4  C   UNL     1       3.258   5.546  19.566  0.00  0.00    +0.000 C 
ATOM      5  O   UNL     1       1.849   7.180  20.570  0.00  0.00    +0.000 OA
ATOM      6  C   UNL     1       1.355   8.403  20.195  0.00  0.00    +0.000 A 
ATOM      7  C   UNL     1       1.741   8.789  18.918  0.00  0.00    +0.000 A 
ATOM      8  C   UNL     1       1.335   9.987  18.347  0.00  0.00    +0.000 A 
ATOM      9  C   UNL     1       0.508  10.822  19.111  0.00  0.00    +0.000 A 
ATOM     10  C   UNL     1       0.124  10.432  20.405  0.00  0.00    +0.000 A 
ATOM     11  C   UNL     1       0.548   9.218  20.951  0.00  0.00    +0.000 A 
ENDROOT
BRANCH   4  12
ATOM     12  C   UNL     1       4.132   4.986  18.533  0.00  0.00    +0.000 A 
ATOM     13  C   UNL     1       3.572   4.349  17.422  0.00  0.00    +0.000 A 
ATOM     14  C   UNL     1       4.391   3.889  16.385  0.00  0.00    +0.000 A 
ATOM     15  C   UNL     1       5.780   4.016  16.465  0.00  0.00    +0.000 A 
ATOM     16  C   UNL     1       6.348   4.611  17.593  0.00  0.00    +0.000 A 
ATOM     17  C   UNL     1       5.524   5.089  18.616  0.00  0.00    +0.000 A 
BRANCH  17  18
ATOM     18  O   UNL     1       6.092   5.657  19.727  0.00  0.00    +0.000 OA
ATOM     19  H   UNL     1       6.313   6.579  19.517  0.00  0.00    +0.000 HD
ENDBRANCH  17  18
BRANCH  15  20
ATOM     20  O   UNL     1       6.478   3.554  15.381  0.00  0.00    +0.000 OA
BRANCH  20  21
ATOM     21  C   UNL     1       6.467   4.406  14.232  0.00  0.00    +0.000 C 
BRANCH  21  22
ATOM     22  C   UNL     1       5.615   3.778  13.136  0.00  0.00    +0.000 C 
BRANCH  22  23
ATOM     23  C   UNL     1       6.494   3.218  12.025  0.00  0.00    +0.000 C 
BRANCH  23  24
ATOM     24  O   UNL     1       6.098   1.891  11.704  0.00  0.00    +0.000 OA
ATOM     25  H   UNL     1       6.051   1.828  10.735  0.00  0.00    +0.000 HD
ENDBRANCH  23  24
ENDBRANCH  22  23
ENDBRANCH  21  22
ENDBRANCH  20  21
ENDBRANCH  15  20
ENDBRANCH   4  12
BRANCH  10  26
ATOM     26  O   UNL     1      -0.682  11.220  21.182  0.00  0.00    +0.000 OA
ATOM     27  H   UNL     1      -1.167  11.835  20.605  0.00  0.00    +0.000 HD
ENDBRANCH  10  26
BRANCH  11  28
ATOM     28  O   UNL     1       0.162   8.859  22.208  0.00  0.00    +0.000 OA
ATOM     29  H   UNL     1      -0.109   9.692  22.638  0.00  0.00    +0.000 HD
ENDBRANCH  11  28
TORSDOF 9
ENDMDL
MODEL 3
REMARK VINA RESULT:      -6.9      1.384      1.952
REMARK  Name = 
REMARK  9 active torsions:
REMARK  status: ('A' for Active; 'I' for Inactive)
REMARK    1  A    between atoms: C_4  and  C_5
REMARK    2  A    between atoms: C_8  and  O_9
REMARK    3  A    between atoms: O_9  and  C_10
REMARK    4  A    between atoms: C_10  and  C_11
REMARK    5  A    between atoms: C_11  and  C_12
REMARK    6  A    between atoms: C_12  and  O_13
REMARK    7  A    between atoms: C_15  and  O_16
REMARK    8  A    between atoms: C_22  and  O_23
REMARK    9  A    between atoms: C_24  and  O_25
REMARK                            x       y       z     vdW  Elec       q    Type
REMARK                         _______ _______ _______ _____ _____    ______ ____
ROOT
ATOM      1  O   UNL     1       3.035   7.753  17.257  0.00  0.00    +0.000 OA
ATOM      2  C   UNL     1       2.565   7.753  18.367  0.00  0.00    +0.000 C 
ATOM      3  C   UNL     1       2.653   6.743  19.474  0.00  0.00    +0.000 C 
ATOM      4  C   UNL     1       3.318   5.581  19.510  0.00  0.00    +0.000 C 
ATOM      5  O   UNL     1       1.905   7.173  20.574  0.00  0.00    +0.000 OA
ATOM      6  C   UNL     1       1.373   8.389  20.226  0.00  0.00    +0.000 A 
ATOM      7  C   UNL     1       1.711   8.796  18.942  0.00  0.00    +0.000 A 
ATOM      8  C   UNL     1       1.261   9.989  18.397  0.00  0.00    +0.000 A 
ATOM      9  C   UNL     1       0.440  10.799  19.194  0.00  0.00    +0.000 A 
ATOM     10  C   UNL     1       0.105  10.388  20.494  0.00  0.00    +0.000 A 
ATOM     11  C   UNL     1       0.572   9.179  21.015  0.00  0.00    +0.000 A 
ENDROOT
BRANCH   4  12
ATOM     12  C   UNL     1       4.172   5.051  18.445  0.00  0.00    +0.000 A 
ATOM     13  C   UNL     1       3.590   4.496  17.301  0.00  0.00    +0.000 A 
ATOM     14  C   UNL     1       4.391   4.067  16.238  0.00  0.00    +0.000 A 
ATOM     15  C   UNL     1       5.784   4.143  16.322  0.00  0.00    +0.000 A 
ATOM     16  C   UNL     1       6.373   4.654  17.480  0.00  0.00    +0.000 A 
ATOM     17  C   UNL     1       5.567   5.102  18.530  0.00  0.00    +0.000 A 
BRANCH  17  18
ATOM     18  O   UNL     1       6.154   5.587  19.670  0.00  0.00    +0.000 OA
ATOM     19  H   UNL     1       7.078   5.291  19.684  0.00  0.00    +0.000 HD
ENDBRANCH  17  18
BRANCH  15  20
ATOM     20  O   UNL     1       6.466   3.720  15.211  0.00  0.00    +0.000 OA
BRANCH  20  21
ATOM     21  C   UNL     1       5.840   4.003  13.958  0.00  0.00    +0.000 C 
BRANCH  21  22
ATOM     22  C   UNL     1       6.854   3.848  12.830  0.00  0.00    +0.000 C 
BRANCH  22  23
ATOM     23  C   UNL     1       7.642   5.137  12.635  0.00  0.00    +0.000 C 
BRANCH  23  24
ATOM     24  O   UNL     1       8.089   5.638  13.888  0.00  0.00    +0.000 OA
ATOM     25  H   UNL     1       7.498   6.370  14.135  0.00  0.00    +0.000 HD
ENDBRANCH  23  24
ENDBRANCH  22  23
ENDBRANCH  21  22
ENDBRANCH  20  21
ENDBRANCH  15  20
ENDBRANCH   4  12
BRANCH  10  26
ATOM     26  O   UNL     1      -0.694  11.150  21.304  0.00  0.00    +0.000 OA
ATOM     27  H   UNL     1      -1.037  10.589  22.021  0.00  0.00    +0.000 HD
ENDBRANCH  10  26
BRANCH  11  28
ATOM     28  O   UNL     1       0.233   8.799  22.279  0.00  0.00    +0.000 OA
ATOM     29  H   UNL     1       0.209   9.627  22.795  0.00  0.00    +0.000 HD
ENDBRANCH  11  28
TORSDOF 9
ENDMDL
MODEL 4
REMARK VINA RESULT:      -6.6      4.429      7.011
REMARK  Name = 
REMARK  9 active torsions:
REMARK  status: ('A' for Active; 'I' for Inactive)
REMARK    1  A    between atoms: C_4  and  C_5
REMARK    2  A    between atoms: C_8  and  O_9
REMARK    3  A    between atoms: O_9  and  C_10
REMARK    4  A    between atoms: C_10  and  C_11
REMARK    5  A    between atoms: C_11  and  C_12
REMARK    6  A    between atoms: C_12  and  O_13
REMARK    7  A    between atoms: C_15  and  O_16
REMARK    8  A    between atoms: C_22  and  O_23
REMARK    9  A    between atoms: C_24  and  O_25
REMARK                            x       y       z     vdW  Elec       q    Type
REMARK                         _______ _______ _______ _____ _____    ______ ____
ROOT
ATOM      1  O   UNL     1       4.433   6.406  19.615  0.00  0.00    +0.000 OA
ATOM      2  C   UNL     1       4.193   5.431  18.949  0.00  0.00    +0.000 C 
ATOM      3  C   UNL     1       4.939   4.814  17.802  0.00  0.00    +0.000 C 
ATOM      4  C   UNL     1       6.098   5.190  17.244  0.00  0.00    +0.000 C 
ATOM      5  O   UNL     1       4.244   3.700  17.324  0.00  0.00    +0.000 OA
ATOM      6  C   UNL     1       3.126   3.577  18.109  0.00  0.00    +0.000 A 
ATOM      7  C   UNL     1       3.023   4.560  19.085  0.00  0.00    +0.000 A 
ATOM      8  C   UNL     1       1.958   4.620  19.972  0.00  0.00    +0.000 A 
ATOM      9  C   UNL     1       0.964   3.637  19.861  0.00  0.00    +0.000 A 
ATOM     10  C   UNL     1       1.074   2.640  18.879  0.00  0.00    +0.000 A 
ATOM     11  C   UNL     1       2.158   2.608  17.998  0.00  0.00    +0.000 A 
ENDROOT
BRANCH   4  12
ATOM     12  C   UNL     1       6.938   6.304  17.687  0.00  0.00    +0.000 A 
ATOM     13  C   UNL     1       6.828   7.548  17.060  0.00  0.00    +0.000 A 
ATOM     14  C   UNL     1       7.560   8.643  17.530  0.00  0.00    +0.000 A 
ATOM     15  C   UNL     1       8.446   8.500  18.601  0.00  0.00    +0.000 A 
ATOM     16  C   UNL     1       8.594   7.249  19.203  0.00  0.00    +0.000 A 
ATOM     17  C   UNL     1       7.844   6.163  18.744  0.00  0.00    +0.000 A 
BRANCH  17  18
ATOM     18  O   UNL     1       8.009   4.935  19.331  0.00  0.00    +0.000 OA
ATOM     19  H   UNL     1       8.626   4.420  18.786  0.00  0.00    +0.000 HD
ENDBRANCH  17  18
BRANCH  15  20
ATOM     20  O   UNL     1       9.088   9.645  18.993  0.00  0.00    +0.000 OA
BRANCH  20  21
ATOM     21  C   UNL     1       9.215  10.656  17.989  0.00  0.00    +0.000 C 
BRANCH  21  22
ATOM     22  C   UNL     1       9.982  11.846  18.553  0.00  0.00    +0.000 C 
BRANCH  22  23
ATOM     23  C   UNL     1      11.467  11.524  18.665  0.00  0.00    +0.000 C 
BRANCH  23  24
ATOM     24  O   UNL     1      12.121  11.769  17.427  0.00  0.00    +0.000 OA
ATOM     25  H   UNL     1      13.076  11.667  17.578  0.00  0.00    +0.000 HD
ENDBRANCH  23  24
ENDBRANCH  22  23
ENDBRANCH  21  22
ENDBRANCH  20  21
ENDBRANCH  15  20
ENDBRANCH   4  12
BRANCH  10  26
ATOM     26  O   UNL     1       0.126   1.662  18.738  0.00  0.00    +0.000 OA
ATOM     27  H   UNL     1      -0.078   1.559  17.793  0.00  0.00    +0.000 HD
ENDBRANCH  10  26
BRANCH  11  28
ATOM     28  O   UNL     1       2.244   1.632  17.050  0.00  0.00    +0.000 OA
ATOM     29  H   UNL     1       2.754   0.913  17.471  0.00  0.00    +0.000 HD
ENDBRANCH  11  28
TORSDOF 9
ENDMDL
MODEL 5
REMARK VINA RESULT:      -6.5      1.266      1.696
REMARK  Name = 
REMARK  9 active torsions:
REMARK  status: ('A' for Active; 'I' for Inactive)
REMARK    1  A    between atoms: C_4  and  C_5
REMARK    2  A    between atoms: C_8  and  O_9
REMARK    3  A    between atoms: O_9  and  C_10
REMARK    4  A    between atoms: C_10  and  C_11
REMARK    5  A    between atoms: C_11  and  C_12
REMARK    6  A    between atoms: C_12  and  O_13
REMARK    7  A    between atoms: C_15  and  O_16
REMARK    8  A    between atoms: C_22  and  O_23
REMARK    9  A    between atoms: C_24  and  O_25
REMARK                            x       y       z     vdW  Elec       q    Type
REMARK                         _______ _______ _______ _____ _____    ______ ____
ROOT
ATOM      1  O   UNL     1       2.127   8.146  18.403  0.00  0.00    +0.000 OA
ATOM      2  C   UNL     1       1.694   8.135  19.527  0.00  0.00    +0.000 C 
ATOM      3  C   UNL     1       1.576   7.021  20.525  0.00  0.00    +0.000 C 
ATOM      4  C   UNL     1       1.960   5.742  20.418  0.00  0.00    +0.000 C 
ATOM      5  O   UNL     1       0.969   7.489  21.695  0.00  0.00    +0.000 OA
ATOM      6  C   UNL     1       0.719   8.822  21.492  0.00  0.00    +0.000 A 
ATOM      7  C   UNL     1       1.112   9.276  20.239  0.00  0.00    +0.000 A 
ATOM      8  C   UNL     1       0.933  10.590  19.833  0.00  0.00    +0.000 A 
ATOM      9  C   UNL     1       0.334  11.474  20.741  0.00  0.00    +0.000 A 
ATOM     10  C   UNL     1      -0.057  11.015  22.010  0.00  0.00    +0.000 A 
ATOM     11  C   UNL     1       0.135   9.684  22.389  0.00  0.00    +0.000 A 
ENDROOT
BRANCH   4  12
ATOM     12  C   UNL     1       2.648   5.150  19.269  0.00  0.00    +0.000 A 
ATOM     13  C   UNL     1       1.913   4.454  18.305  0.00  0.00    +0.000 A 
ATOM     14  C   UNL     1       2.543   3.960  17.158  0.00  0.00    +0.000 A 
ATOM     15  C   UNL     1       3.921   4.112  16.982  0.00  0.00    +0.000 A 
ATOM     16  C   UNL     1       4.668   4.766  17.963  0.00  0.00    +0.000 A 
ATOM     17  C   UNL     1       4.030   5.277  19.096  0.00  0.00    +0.000 A 
BRANCH  17  18
ATOM     18  O   UNL     1       4.774   5.904  20.063  0.00  0.00    +0.000 OA
ATOM     19  H   UNL     1       4.685   5.399  20.888  0.00  0.00    +0.000 HD
ENDBRANCH  17  18
BRANCH  15  20
ATOM     20  O   UNL     1       4.425   3.612  15.810  0.00  0.00    +0.000 OA
BRANCH  20  21
ATOM     21  C   UNL     1       5.781   3.963  15.522  0.00  0.00    +0.000 C 
BRANCH  21  22
ATOM     22  C   UNL     1       5.992   4.001  14.013  0.00  0.00    +0.000 C 
BRANCH  22  23
ATOM     23  C   UNL     1       7.221   4.831  13.663  0.00  0.00    +0.000 C 
BRANCH  23  24
ATOM     24  O   UNL     1       7.726   5.478  14.823  0.00  0.00    +0.000 OA
ATOM     25  H   UNL     1       8.456   4.933  15.165  0.00  0.00    +0.000 HD
ENDBRANCH  23  24
ENDBRANCH  22  23
ENDBRANCH  21  22
ENDBRANCH  20  21
ENDBRANCH  15  20
ENDBRANCH   4  12
BRANCH  10  26
ATOM     26  O   UNL     1      -0.644  11.847  22.925  0.00  0.00    +0.000 OA
ATOM     27  H   UNL     1      -1.568  11.568  23.053  0.00  0.00    +0.000 HD
ENDBRANCH  10  26
BRANCH  11  28
ATOM     28  O   UNL     1      -0.253   9.259  23.624  0.00  0.00    +0.000 OA
ATOM     29  H   UNL     1       0.497   9.470  24.212  0.00  0.00    +0.000 HD
ENDBRANCH  11  28
TORSDOF 9
ENDMDL
MODEL 6
REMARK VINA RESULT:      -6.5      2.907      8.239
REMARK  Name = 
REMARK  9 active torsions:
REMARK  status: ('A' for Active; 'I' for Inactive)
REMARK    1  A    between atoms: C_4  and  C_5
REMARK    2  A    between atoms: C_8  and  O_9
REMARK    3  A    between atoms: O_9  and  C_10
REMARK    4  A    between atoms: C_10  and  C_11
REMARK    5  A    between atoms: C_11  and  C_12
REMARK    6  A    between atoms: C_12  and  O_13
REMARK    7  A    between atoms: C_15  and  O_16
REMARK    8  A    between atoms: C_22  and  O_23
REMARK    9  A    between atoms: C_24  and  O_25
REMARK                            x       y       z     vdW  Elec       q    Type
REMARK                         _______ _______ _______ _____ _____    ______ ____
ROOT
ATOM      1  O   UNL     1       0.817   6.077  20.428  0.00  0.00    +0.000 OA
ATOM      2  C   UNL     1       1.901   5.794  19.983  0.00  0.00    +0.000 C 
ATOM      3  C   UNL     1       2.834   6.568  19.097  0.00  0.00    +0.000 C 
ATOM      4  C   UNL     1       2.699   7.803  18.597  0.00  0.00    +0.000 C 
ATOM      5  O   UNL     1       3.970   5.803  18.817  0.00  0.00    +0.000 OA
ATOM      6  C   UNL     1       3.809   4.615  19.483  0.00  0.00    +0.000 A 
ATOM      7  C   UNL     1       2.615   4.531  20.188  0.00  0.00    +0.000 A 
ATOM      8  C   UNL     1       2.257   3.406  20.916  0.00  0.00    +0.000 A 
ATOM      9  C   UNL     1       3.153   2.328  20.927  0.00  0.00    +0.000 A 
ATOM     10  C   UNL     1       4.363   2.417  20.220  0.00  0.00    +0.000 A 
ATOM     11  C   UNL     1       4.694   3.564  19.493  0.00  0.00    +0.000 A 
ENDROOT
BRANCH   4  12
ATOM     12  C   UNL     1       1.584   8.714  18.860  0.00  0.00    +0.000 A 
ATOM     13  C   UNL     1       0.839   9.225  17.793  0.00  0.00    +0.000 A 
ATOM     14  C   UNL     1      -0.283  10.025  18.033  0.00  0.00    +0.000 A 
ATOM     15  C   UNL     1      -0.647  10.365  19.338  0.00  0.00    +0.000 A 
ATOM     16  C   UNL     1       0.119   9.896  20.407  0.00  0.00    +0.000 A 
ATOM     17  C   UNL     1       1.225   9.078  20.162  0.00  0.00    +0.000 A 
BRANCH  17  18
ATOM     18  O   UNL     1       1.981   8.635  21.217  0.00  0.00    +0.000 OA
ATOM     19  H   UNL     1       1.430   8.049  21.759  0.00  0.00    +0.000 HD
ENDBRANCH  17  18
BRANCH  15  20
ATOM     20  O   UNL     1      -1.778  11.131  19.455  0.00  0.00    +0.000 OA
BRANCH  20  21
ATOM     21  C   UNL     1      -2.303  11.646  18.229  0.00  0.00    +0.000 C 
BRANCH  21  22
ATOM     22  C   UNL     1      -3.475  10.785  17.771  0.00  0.00    +0.000 C 
BRANCH  22  23
ATOM     23  C   UNL     1      -4.163  11.412  16.565  0.00  0.00    +0.000 C 
BRANCH  23  24
ATOM     24  O   UNL     1      -3.237  11.578  15.499  0.00  0.00    +0.000 OA
ATOM     25  H   UNL     1      -3.739  11.888  14.725  0.00  0.00    +0.000 HD
ENDBRANCH  23  24
ENDBRANCH  22  23
ENDBRANCH  21  22
ENDBRANCH  20  21
ENDBRANCH  15  20
ENDBRANCH   4  12
BRANCH  10  26
ATOM     26  O   UNL     1       5.265   1.387  20.206  0.00  0.00    +0.000 OA
ATOM     27  H   UNL     1       5.534   1.196  21.122  0.00  0.00    +0.000 HD
ENDBRANCH  10  26
BRANCH  11  28
ATOM     28  O   UNL     1       5.873   3.629  18.812  0.00  0.00    +0.000 OA
ATOM     29  H   UNL     1       5.800   4.426  18.253  0.00  0.00    +0.000 HD
ENDBRANCH  11  28
TORSDOF 9
ENDMDL
MODEL 7
REMARK VINA RESULT:      -6.4      2.279      9.190
REMARK  Name = 
REMARK  9 active torsions:
REMARK  status: ('A' for Active; 'I' for Inactive)
REMARK    1  A    between atoms: C_4  and  C_5
REMARK    2  A    between atoms: C_8  and  O_9
REMARK    3  A    between atoms: O_9  and  C_10
REMARK    4  A    between atoms: C_10  and  C_11
REMARK    5  A    between atoms: C_11  and  C_12
REMARK    6  A    between atoms: C_12  and  O_13
REMARK    7  A    between atoms: C_15  and  O_16
REMARK    8  A    between atoms: C_22  and  O_23
REMARK    9  A    between atoms: C_24  and  O_25
REMARK                            x       y       z     vdW  Elec       q    Type
REMARK                         _______ _______ _______ _____ _____    ______ ____
ROOT
ATOM      1  O   UNL     1       1.499   7.528  20.314  0.00  0.00    +0.000 OA
ATOM      2  C   UNL     1       2.214   7.458  19.347  0.00  0.00    +0.000 C 
ATOM      3  C   UNL     1       2.364   8.371  18.165  0.00  0.00    +0.000 C 
ATOM      4  C   UNL     1       1.746   9.530  17.906  0.00  0.00    +0.000 C 
ATOM      5  O   UNL     1       3.305   7.847  17.273  0.00  0.00    +0.000 OA
ATOM      6  C   UNL     1       3.757   6.679  17.832  0.00  0.00    +0.000 A 
ATOM      7  C   UNL     1       3.161   6.379  19.050  0.00  0.00    +0.000 A 
ATOM      8  C   UNL     1       3.470   5.234  19.769  0.00  0.00    +0.000 A 
ATOM      9  C   UNL     1       4.429   4.366  19.227  0.00  0.00    +0.000 A 
ATOM     10  C   UNL     1       5.036   4.675  17.999  0.00  0.00    +0.000 A 
ATOM     11  C   UNL     1       4.700   5.835  17.296  0.00  0.00    +0.000 A 
ENDROOT
BRANCH   4  12
ATOM     12  C   UNL     1       0.785  10.201  18.783  0.00  0.00    +0.000 A 
ATOM     13  C   UNL     1       1.209  10.714  20.012  0.00  0.00    +0.000 A 
ATOM     14  C   UNL     1       0.324  11.435  20.821  0.00  0.00    +0.000 A 
ATOM     15  C   UNL     1      -1.008  11.612  20.435  0.00  0.00    +0.000 A 
ATOM     16  C   UNL     1      -1.449  11.063  19.230  0.00  0.00    +0.000 A 
ATOM     17  C   UNL     1      -0.555  10.363  18.416  0.00  0.00    +0.000 A 
BRANCH  17  18
ATOM     18  O   UNL     1      -1.001   9.813  17.242  0.00  0.00    +0.000 OA
ATOM     19  H   UNL     1      -0.294   9.895  16.581  0.00  0.00    +0.000 HD
ENDBRANCH  17  18
BRANCH  15  20
ATOM     20  O   UNL     1      -1.776  12.357  21.291  0.00  0.00    +0.000 OA
BRANCH  20  21
ATOM     21  C   UNL     1      -1.273  12.479  22.623  0.00  0.00    +0.000 C 
BRANCH  21  22
ATOM     22  C   UNL     1      -2.277  13.238  23.483  0.00  0.00    +0.000 C 
BRANCH  22  23
ATOM     23  C   UNL     1      -3.479  12.359  23.808  0.00  0.00    +0.000 C 
BRANCH  23  24
ATOM     24  O   UNL     1      -4.376  12.322  22.706  0.00  0.00    +0.000 OA
ATOM     25  H   UNL     1      -5.250  12.594  23.034  0.00  0.00    +0.000 HD
ENDBRANCH  23  24
ENDBRANCH  22  23
ENDBRANCH  21  22
ENDBRANCH  20  21
ENDBRANCH  15  20
ENDBRANCH   4  12
BRANCH  10  26
ATOM     26  O   UNL     1       5.976   3.854  17.436  0.00  0.00    +0.000 OA
ATOM     27  H   UNL     1       6.776   3.871  17.989  0.00  0.00    +0.000 HD
ENDBRANCH  10  26
BRANCH  11  28
ATOM     28  O   UNL     1       5.301   6.115  16.105  0.00  0.00    +0.000 OA
ATOM     29  H   UNL     1       4.567   6.294  15.487  0.00  0.00    +0.000 HD
ENDBRANCH  11  28
TORSDOF 9
ENDMDL
MODEL 8
REMARK VINA RESULT:      -6.4      3.457      8.388
REMARK  Name = 
REMARK  9 active torsions:
REMARK  status: ('A' for Active; 'I' for Inactive)
REMARK    1  A    between atoms: C_4  and  C_5
REMARK    2  A    between atoms: C_8  and  O_9
REMARK    3  A    between atoms: O_9  and  C_10
REMARK    4  A    between atoms: C_10  and  C_11
REMARK    5  A    between atoms: C_11  and  C_12
REMARK    6  A    between atoms: C_12  and  O_13
REMARK    7  A    between atoms: C_15  and  O_16
REMARK    8  A    between atoms: C_22  and  O_23
REMARK    9  A    between atoms: C_24  and  O_25
REMARK                            x       y       z     vdW  Elec       q    Type
REMARK                         _______ _______ _______ _____ _____    ______ ____
ROOT
ATOM      1  O   UNL     1       4.011   3.778  16.042  0.00  0.00    +0.000 OA
ATOM      2  C   UNL     1       4.998   4.352  15.656  0.00  0.00    +0.000 C 
ATOM      3  C   UNL     1       5.859   5.385  16.321  0.00  0.00    +0.000 C 
ATOM      4  C   UNL     1       5.756   5.914  17.547  0.00  0.00    +0.000 C 
ATOM      5  O   UNL     1       6.883   5.783  15.456  0.00  0.00    +0.000 OA
ATOM      6  C   UNL     1       6.721   5.052  14.306  0.00  0.00    +0.000 A 
ATOM      7  C   UNL     1       5.632   4.191  14.344  0.00  0.00    +0.000 A 
ATOM      8  C   UNL     1       5.289   3.376  13.276  0.00  0.00    +0.000 A 
ATOM      9  C   UNL     1       6.091   3.439  12.127  0.00  0.00    +0.000 A 
ATOM     10  C   UNL     1       7.196   4.305  12.093  0.00  0.00    +0.000 A 
ATOM     11  C   UNL     1       7.514   5.117  13.186  0.00  0.00    +0.000 A 
ENDROOT
BRANCH   4  12
ATOM     12  C   UNL     1       4.762   5.542  18.557  0.00  0.00    +0.000 A 
ATOM     13  C   UNL     1       3.660   6.372  18.782  0.00  0.00    +0.000 A 
ATOM     14  C   UNL     1       2.658   5.987  19.679  0.00  0.00    +0.000 A 
ATOM     15  C   UNL     1       2.766   4.793  20.397  0.00  0.00    +0.000 A 
ATOM     16  C   UNL     1       3.887   3.982  20.210  0.00  0.00    +0.000 A 
ATOM     17  C   UNL     1       4.874   4.360  19.296  0.00  0.00    +0.000 A 
BRANCH  17  18
ATOM     18  O   UNL     1       5.980   3.566  19.131  0.00  0.00    +0.000 OA
ATOM     19  H   UNL     1       6.459   3.874  18.345  0.00  0.00    +0.000 HD
ENDBRANCH  17  18
BRANCH  15  20
ATOM     20  O   UNL     1       1.714   4.505  21.225  0.00  0.00    +0.000 OA
BRANCH  20  21
ATOM     21  C   UNL     1       1.147   3.201  21.072  0.00  0.00    +0.000 C 
BRANCH  21  22
ATOM     22  C   UNL     1       0.411   3.115  19.740  0.00  0.00    +0.000 C 
BRANCH  22  23
ATOM     23  C   UNL     1       1.130   2.166  18.789  0.00  0.00    +0.000 C 
BRANCH  23  24
ATOM     24  O   UNL     1       1.664   2.884  17.685  0.00  0.00    +0.000 OA
ATOM     25  H   UNL     1       1.439   2.387  16.879  0.00  0.00    +0.000 HD
ENDBRANCH  23  24
ENDBRANCH  22  23
ENDBRANCH  21  22
ENDBRANCH  20  21
ENDBRANCH  15  20
ENDBRANCH   4  12
BRANCH  10  26
ATOM     26  O   UNL     1       8.004   4.396  10.992  0.00  0.00    +0.000 OA
ATOM     27  H   UNL     1       7.643   5.075  10.396  0.00  0.00    +0.000 HD
ENDBRANCH  10  26
BRANCH  11  28
ATOM     28  O   UNL     1       8.590   5.951  13.131  0.00  0.00    +0.000 OA
ATOM     29  H   UNL     1       8.622   6.383  14.006  0.00  0.00    +0.000 HD
ENDBRANCH  11  28
TORSDOF 9
ENDMDL
MODEL 9
REMARK VINA RESULT:      -6.4      2.267      8.726
REMARK  Name = 
REMARK  9 active torsions:
REMARK  status: ('A' for Active; 'I' for Inactive)
REMARK    1  A    between atoms: C_4  and  C_5
REMARK    2  A    between atoms: C_8  and  O_9
REMARK    3  A    between atoms: O_9  and  C_10
REMARK    4  A    between atoms: C_10  and  C_11
REMARK    5  A    between atoms: C_11  and  C_12
REMARK    6  A    between atoms: C_12  and  O_13
REMARK    7  A    between atoms: C_15  and  O_16
REMARK    8  A    between atoms: C_22  and  O_23
REMARK    9  A    between atoms: C_24  and  O_25
REMARK                            x       y       z     vdW  Elec       q    Type
REMARK                         _______ _______ _______ _____ _____    ______ ____
ROOT
ATOM      1  O   UNL     1       1.457   7.880  20.310  0.00  0.00    +0.000 OA
ATOM      2  C   UNL     1       2.143   7.662  19.344  0.00  0.00    +0.000 C 
ATOM      3  C   UNL     1       2.369   8.463  18.096  0.00  0.00    +0.000 C 
ATOM      4  C   UNL     1       1.873   9.660  17.755  0.00  0.00    +0.000 C 
ATOM      5  O   UNL     1       3.232   7.776  17.237  0.00  0.00    +0.000 OA
ATOM      6  C   UNL     1       3.568   6.611  17.878  0.00  0.00    +0.000 A 
ATOM      7  C   UNL     1       2.964   6.468  19.121  0.00  0.00    +0.000 A 
ATOM      8  C   UNL     1       3.163   5.353  19.922  0.00  0.00    +0.000 A 
ATOM      9  C   UNL     1       4.014   4.350  19.438  0.00  0.00    +0.000 A 
ATOM     10  C   UNL     1       4.629   4.500  18.184  0.00  0.00    +0.000 A 
ATOM     11  C   UNL     1       4.406   5.634  17.399  0.00  0.00    +0.000 A 
ENDROOT
BRANCH   4  12
ATOM     12  C   UNL     1       1.005  10.494  18.588  0.00  0.00    +0.000 A 
ATOM     13  C   UNL     1       1.558  11.251  19.625  0.00  0.00    +0.000 A 
ATOM     14  C   UNL     1       0.754  12.119  20.372  0.00  0.00    +0.000 A 
ATOM     15  C   UNL     1      -0.618  12.207  20.125  0.00  0.00    +0.000 A 
ATOM     16  C   UNL     1      -1.184  11.420  19.121  0.00  0.00    +0.000 A 
ATOM     17  C   UNL     1      -0.374  10.571  18.363  0.00  0.00    +0.000 A 
BRANCH  17  18
ATOM     18  O   UNL     1      -0.941   9.789  17.390  0.00  0.00    +0.000 OA
ATOM     19  H   UNL     1      -1.896   9.739  17.560  0.00  0.00    +0.000 HD
ENDBRANCH  17  18
BRANCH  15  20
ATOM     20  O   UNL     1      -1.300  13.110  20.898  0.00  0.00    +0.000 OA
BRANCH  20  21
ATOM     21  C   UNL     1      -2.183  12.545  21.871  0.00  0.00    +0.000 C 
BRANCH  21  22
ATOM     22  C   UNL     1      -1.388  12.120  23.100  0.00  0.00    +0.000 C 
BRANCH  22  23
ATOM     23  C   UNL     1      -1.268  10.603  23.165  0.00  0.00    +0.000 C 
BRANCH  23  24
ATOM     24  O   UNL     1       0.066  10.226  23.481  0.00  0.00    +0.000 OA
ATOM     25  H   UNL     1       0.295  10.652  24.325  0.00  0.00    +0.000 HD
ENDBRANCH  23  24
ENDBRANCH  22  23
ENDBRANCH  21  22
ENDBRANCH  20  21
ENDBRANCH  15  20
ENDBRANCH   4  12
BRANCH  10  26
ATOM     26  O   UNL     1       5.466   3.543  17.676  0.00  0.00    +0.000 OA
ATOM     27  H   UNL     1       4.927   2.827  17.295  0.00  0.00    +0.000 HD
ENDBRANCH  10  26
BRANCH  11  28
ATOM     28  O   UNL     1       5.011   5.758  16.184  0.00  0.00    +0.000 OA
ATOM     29  H   UNL     1       4.296   5.638  15.530  0.00  0.00    +0.000 HD
ENDBRANCH  11  28
TORSDOF 9
ENDMDL
