MODEL 1
REMARK VINA RESULT:      -8.7      0.000      0.000
REMARK  Name = 
REMARK  5 active torsions:
REMARK  status: ('A' for Active; 'I' for Inactive)
REMARK    1  A    between atoms: C_1  and  C_2
REMARK    2  A    between atoms: C_5  and  C_6
REMARK    3  A    between atoms: N_10  and  C_11
REMARK    4  A    between atoms: C_11  and  C_12
REMARK    5  A    between atoms: C_14  and  C_15
REMARK                            x       y       z     vdW  Elec       q    Type
REMARK                         _______ _______ _______ _____ _____    ______ ____
ROOT
ATOM      1  C   UNL     1       2.414   4.299  19.697  0.00  0.00    +0.000 C 
ATOM      2  C   UNL     1       1.975   3.948  21.114  0.00  0.00    +0.000 C 
ATOM      3  C   UNL     1       2.561   2.567  21.326  0.00  0.00    +0.000 C 
ATOM      4  C   UNL     1       3.844   2.569  20.507  0.00  0.00    +0.000 C 
ATOM      5  N   UNL     1       3.737   3.669  19.536  0.00  0.00    +0.000 NA
ENDROOT
BRANCH   1  10
ATOM      6  C   UNL     1       1.860   9.919  18.175  0.00  0.00    +0.000 C 
ATOM      7  C   UNL     1       2.004   8.475  18.559  0.00  0.00    +0.000 A 
ATOM      8  C   UNL     1       2.270   7.506  17.590  0.00  0.00    +0.000 A 
ATOM      9  C   UNL     1       2.398   6.164  17.943  0.00  0.00    +0.000 A 
ATOM     10  C   UNL     1       2.263   5.746  19.276  0.00  0.00    +0.000 A 
ATOM     11  C   UNL     1       1.977   6.727  20.245  0.00  0.00    +0.000 A 
ATOM     12  C   UNL     1       1.853   8.075  19.889  0.00  0.00    +0.000 A 
ENDBRANCH   1  10
BRANCH   5  13
ATOM     13  C   UNL     1       4.926   4.537  19.480  0.00  0.00    +0.000 C 
BRANCH  13  14
ATOM     14  C   UNL     1       5.849   4.406  18.308  0.00  0.00    +0.000 A 
ATOM     15  N   UNL     1       5.587   4.205  17.034  0.00  0.00    +0.000 NA
ATOM     16  C   UNL     1       6.799   4.463  16.440  0.00  0.00    +0.000 A 
ATOM     17  N   UNL     1       7.793   4.733  17.297  0.00  0.00    +0.000 NA
ATOM     18  O   UNL     1       7.162   4.701  18.543  0.00  0.00    +0.000 OA
BRANCH  16  19
ATOM     19  C   UNL     1       6.949   4.525  14.958  0.00  0.00    +0.000 A 
ATOM     20  C   UNL     1       6.216   3.777  14.054  0.00  0.00    +0.000 A 
ATOM     21  C   UNL     1       6.624   4.180  12.760  0.00  0.00    +0.000 A 
ATOM     22  C   UNL     1       7.583   5.146  12.949  0.00  0.00    +0.000 A 
ATOM     23  O   UNL     1       7.794   5.357  14.274  0.00  0.00    +0.000 OA
ENDBRANCH  16  19
ENDBRANCH  13  14
ENDBRANCH   5  13
TORSDOF 4
ENDMDL
MODEL 2
REMARK VINA RESULT:      -8.6      0.309      1.047
REMARK  Name = 
REMARK  5 active torsions:
REMARK  status: ('A' for Active; 'I' for Inactive)
REMARK    1  A    between atoms: C_1  and  C_2
REMARK    2  A    between atoms: C_5  and  C_6
REMARK    3  A    between atoms: N_10  and  C_11
REMARK    4  A    between atoms: C_11  and  C_12
REMARK    5  A    between atoms: C_14  and  C_15
REMARK                            x       y       z     vdW  Elec       q    Type
REMARK                         _______ _______ _______ _____ _____    ______ ____
ROOT
ATOM      1  C   UNL     1       2.331   4.619  19.748  0.00  0.00    +0.000 C 
ATOM      2  C   UNL     1       2.030   4.214  21.187  0.00  0.00    +0.000 C 
ATOM      3  C   UNL     1       2.599   2.813  21.278  0.00  0.00    +0.000 C 
ATOM      4  C   UNL     1       3.792   2.824  20.332  0.00  0.00    +0.000 C 
ATOM      5  N   UNL     1       3.614   3.969  19.424  0.00  0.00    +0.000 NA
ENDROOT
BRANCH   1  10
ATOM      6  C   UNL     1       1.707  10.257  18.320  0.00  0.00    +0.000 C 
ATOM      7  C   UNL     1       1.865   8.811  18.693  0.00  0.00    +0.000 A 
ATOM      8  C   UNL     1       1.605   8.381  19.996  0.00  0.00    +0.000 A 
ATOM      9  C   UNL     1       1.757   7.041  20.346  0.00  0.00    +0.000 A 
ATOM     10  C   UNL     1       2.174   6.086  19.406  0.00  0.00    +0.000 A 
ATOM     11  C   UNL     1       2.451   6.530  18.098  0.00  0.00    +0.000 A 
ATOM     12  C   UNL     1       2.294   7.876  17.748  0.00  0.00    +0.000 A 
ENDBRANCH   1  10
BRANCH   5  13
ATOM     13  C   UNL     1       4.813   4.813  19.282  0.00  0.00    +0.000 C 
BRANCH  13  14
ATOM     14  C   UNL     1       5.738   4.548  18.135  0.00  0.00    +0.000 A 
ATOM     15  N   UNL     1       5.497   4.475  16.844  0.00  0.00    +0.000 NA
ATOM     16  C   UNL     1       6.762   4.498  16.306  0.00  0.00    +0.000 A 
ATOM     17  N   UNL     1       7.751   4.503  17.210  0.00  0.00    +0.000 NA
ATOM     18  O   UNL     1       7.073   4.543  18.430  0.00  0.00    +0.000 OA
BRANCH  16  19
ATOM     19  C   UNL     1       6.987   4.603  14.836  0.00  0.00    +0.000 A 
ATOM     20  C   UNL     1       6.317   3.868  13.875  0.00  0.00    +0.000 A 
ATOM     21  C   UNL     1       6.785   4.314  12.616  0.00  0.00    +0.000 A 
ATOM     22  C   UNL     1       7.714   5.291  12.881  0.00  0.00    +0.000 A 
ATOM     23  O   UNL     1       7.851   5.469  14.221  0.00  0.00    +0.000 OA
ENDBRANCH  16  19
ENDBRANCH  13  14
ENDBRANCH   5  13
TORSDOF 4
ENDMDL
MODEL 3
REMARK VINA RESULT:      -7.9      2.430      6.949
REMARK  Name = 
REMARK  5 active torsions:
REMARK  status: ('A' for Active; 'I' for Inactive)
REMARK    1  A    between atoms: C_1  and  C_2
REMARK    2  A    between atoms: C_5  and  C_6
REMARK    3  A    between atoms: N_10  and  C_11
REMARK    4  A    between atoms: C_11  and  C_12
REMARK    5  A    between atoms: C_14  and  C_15
REMARK                            x       y       z     vdW  Elec       q    Type
REMARK                         _______ _______ _______ _____ _____    ______ ____
ROOT
ATOM      1  C   UNL     1       7.301   5.472  16.221  0.00  0.00    +0.000 C 
ATOM      2  C   UNL     1       7.527   4.603  17.453  0.00  0.00    +0.000 C 
ATOM      3  C   UNL     1       7.709   5.617  18.564  0.00  0.00    +0.000 C 
ATOM      4  C   UNL     1       6.833   6.793  18.153  0.00  0.00    +0.000 C 
ATOM      5  N   UNL     1       6.571   6.655  16.712  0.00  0.00    +0.000 NA
ENDROOT
BRANCH   1  10
ATOM      6  C   UNL     1       5.364   2.787  11.399  0.00  0.00    +0.000 C 
ATOM      7  C   UNL     1       5.857   3.473  12.641  0.00  0.00    +0.000 A 
ATOM      8  C   UNL     1       5.194   3.300  13.857  0.00  0.00    +0.000 A 
ATOM      9  C   UNL     1       5.645   3.941  15.009  0.00  0.00    +0.000 A 
ATOM     10  C   UNL     1       6.773   4.776  14.984  0.00  0.00    +0.000 A 
ATOM     11  C   UNL     1       7.426   4.959  13.749  0.00  0.00    +0.000 A 
ATOM     12  C   UNL     1       6.973   4.311  12.594  0.00  0.00    +0.000 A 
ENDBRANCH   1  10
BRANCH   5  13
ATOM     13  C   UNL     1       5.153   6.808  16.343  0.00  0.00    +0.000 C 
BRANCH  13  14
ATOM     14  C   UNL     1       4.110   6.373  17.325  0.00  0.00    +0.000 A 
ATOM     15  N   UNL     1       3.867   5.188  17.842  0.00  0.00    +0.000 NA
ATOM     16  C   UNL     1       2.998   5.485  18.865  0.00  0.00    +0.000 A 
ATOM     17  N   UNL     1       2.648   6.776  18.939  0.00  0.00    +0.000 NA
ATOM     18  O   UNL     1       3.391   7.372  17.918  0.00  0.00    +0.000 OA
BRANCH  16  19
ATOM     19  C   UNL     1       2.570   4.456  19.854  0.00  0.00    +0.000 A 
ATOM     20  C   UNL     1       1.295   4.340  20.378  0.00  0.00    +0.000 A 
ATOM     21  C   UNL     1       1.299   3.206  21.225  0.00  0.00    +0.000 A 
ATOM     22  C   UNL     1       2.575   2.699  21.172  0.00  0.00    +0.000 A 
ATOM     23  O   UNL     1       3.355   3.451  20.352  0.00  0.00    +0.000 OA
ENDBRANCH  16  19
ENDBRANCH  13  14
ENDBRANCH   5  13
TORSDOF 4
ENDMDL
MODEL 4
REMARK VINA RESULT:      -7.9      2.479      6.885
REMARK  Name = 
REMARK  5 active torsions:
REMARK  status: ('A' for Active; 'I' for Inactive)
REMARK    1  A    between atoms: C_1  and  C_2
REMARK    2  A    between atoms: C_5  and  C_6
REMARK    3  A    between atoms: N_10  and  C_11
REMARK    4  A    between atoms: C_11  and  C_12
REMARK    5  A    between atoms: C_14  and  C_15
REMARK                            x       y       z     vdW  Elec       q    Type
REMARK                         _______ _______ _______ _____ _____    ______ ____
ROOT
ATOM      1  C   UNL     1       7.367   5.439  16.220  0.00  0.00    +0.000 C 
ATOM      2  C   UNL     1       7.519   4.561  17.457  0.00  0.00    +0.000 C 
ATOM      3  C   UNL     1       7.701   5.568  18.575  0.00  0.00    +0.000 C 
ATOM      4  C   UNL     1       6.882   6.774  18.137  0.00  0.00    +0.000 C 
ATOM      5  N   UNL     1       6.664   6.647  16.688  0.00  0.00    +0.000 NA
ENDROOT
BRANCH   1  10
ATOM      6  C   UNL     1       5.290   2.821  11.420  0.00  0.00    +0.000 C 
ATOM      7  C   UNL     1       5.827   3.496  12.648  0.00  0.00    +0.000 A 
ATOM      8  C   UNL     1       6.925   4.355  12.562  0.00  0.00    +0.000 A 
ATOM      9  C   UNL     1       7.430   4.978  13.702  0.00  0.00    +0.000 A 
ATOM     10  C   UNL     1       6.855   4.763  14.964  0.00  0.00    +0.000 A 
ATOM     11  C   UNL     1       5.759   3.882  15.045  0.00  0.00    +0.000 A 
ATOM     12  C   UNL     1       5.252   3.260  13.898  0.00  0.00    +0.000 A 
ENDBRANCH   1  10
BRANCH   5  13
ATOM     13  C   UNL     1       5.266   6.851  16.272  0.00  0.00    +0.000 C 
BRANCH  13  14
ATOM     14  C   UNL     1       4.175   6.418  17.202  0.00  0.00    +0.000 A 
ATOM     15  N   UNL     1       3.833   5.216  17.614  0.00  0.00    +0.000 NA
ATOM     16  C   UNL     1       2.971   5.493  18.648  0.00  0.00    +0.000 A 
ATOM     17  N   UNL     1       2.718   6.797  18.827  0.00  0.00    +0.000 NA
ATOM     18  O   UNL     1       3.523   7.417  17.869  0.00  0.00    +0.000 OA
BRANCH  16  19
ATOM     19  C   UNL     1       2.447   4.421  19.542  0.00  0.00    +0.000 A 
ATOM     20  C   UNL     1       2.049   4.605  20.854  0.00  0.00    +0.000 A 
ATOM     21  C   UNL     1       1.566   3.357  21.316  0.00  0.00    +0.000 A 
ATOM     22  C   UNL     1       1.701   2.486  20.262  0.00  0.00    +0.000 A 
ATOM     23  O   UNL     1       2.241   3.115  19.186  0.00  0.00    +0.000 OA
ENDBRANCH  16  19
ENDBRANCH  13  14
ENDBRANCH   5  13
TORSDOF 4
ENDMDL
MODEL 5
REMARK VINA RESULT:      -7.8      3.200      7.002
REMARK  Name = 
REMARK  5 active torsions:
REMARK  status: ('A' for Active; 'I' for Inactive)
REMARK    1  A    between atoms: C_1  and  C_2
REMARK    2  A    between atoms: C_5  and  C_6
REMARK    3  A    between atoms: N_10  and  C_11
REMARK    4  A    between atoms: C_11  and  C_12
REMARK    5  A    between atoms: C_14  and  C_15
REMARK                            x       y       z     vdW  Elec       q    Type
REMARK                         _______ _______ _______ _____ _____    ______ ____
ROOT
ATOM      1  C   UNL     1       4.145   4.277  16.633  0.00  0.00    +0.000 C 
ATOM      2  C   UNL     1       5.465   3.576  16.328  0.00  0.00    +0.000 C 
ATOM      3  C   UNL     1       6.080   4.448  15.253  0.00  0.00    +0.000 C 
ATOM      4  C   UNL     1       5.594   5.854  15.580  0.00  0.00    +0.000 C 
ATOM      5  N   UNL     1       4.423   5.714  16.459  0.00  0.00    +0.000 NA
ENDROOT
BRANCH   1  10
ATOM      6  C   UNL     1       1.427   2.617  21.538  0.00  0.00    +0.000 C 
ATOM      7  C   UNL     1       2.118   3.045  20.277  0.00  0.00    +0.000 A 
ATOM      8  C   UNL     1       1.385   3.551  19.202  0.00  0.00    +0.000 A 
ATOM      9  C   UNL     1       2.024   3.943  18.027  0.00  0.00    +0.000 A 
ATOM     10  C   UNL     1       3.417   3.842  17.888  0.00  0.00    +0.000 A 
ATOM     11  C   UNL     1       4.147   3.315  18.970  0.00  0.00    +0.000 A 
ATOM     12  C   UNL     1       3.504   2.925  20.150  0.00  0.00    +0.000 A 
ENDBRANCH   1  10
BRANCH   5  13
ATOM     13  C   UNL     1       4.466   6.570  17.657  0.00  0.00    +0.000 C 
BRANCH  13  14
ATOM     14  C   UNL     1       3.274   7.421  17.968  0.00  0.00    +0.000 A 
ATOM     15  N   UNL     1       2.540   7.494  19.058  0.00  0.00    +0.000 NA
ATOM     16  C   UNL     1       1.800   8.632  18.839  0.00  0.00    +0.000 A 
ATOM     17  N   UNL     1       1.998   9.202  17.643  0.00  0.00    +0.000 NA
ATOM     18  O   UNL     1       2.984   8.402  17.062  0.00  0.00    +0.000 OA
BRANCH  16  19
ATOM     19  C   UNL     1       0.928   9.216  19.897  0.00  0.00    +0.000 A 
ATOM     20  C   UNL     1       0.889   8.797  21.215  0.00  0.00    +0.000 A 
ATOM     21  C   UNL     1      -0.018   9.648  21.891  0.00  0.00    +0.000 A 
ATOM     22  C   UNL     1      -0.482  10.532  20.947  0.00  0.00    +0.000 A 
ATOM     23  O   UNL     1       0.077  10.276  19.736  0.00  0.00    +0.000 OA
ENDBRANCH  16  19
ENDBRANCH  13  14
ENDBRANCH   5  13
TORSDOF 4
ENDMDL
MODEL 6
REMARK VINA RESULT:      -7.7      1.037      1.546
REMARK  Name = 
REMARK  5 active torsions:
REMARK  status: ('A' for Active; 'I' for Inactive)
REMARK    1  A    between atoms: C_1  and  C_2
REMARK    2  A    between atoms: C_5  and  C_6
REMARK    3  A    between atoms: N_10  and  C_11
REMARK    4  A    between atoms: C_11  and  C_12
REMARK    5  A    between atoms: C_14  and  C_15
REMARK                            x       y       z     vdW  Elec       q    Type
REMARK                         _______ _______ _______ _____ _____    ______ ____
ROOT
ATOM      1  C   UNL     1       2.615   4.416  19.553  0.00  0.00    +0.000 C 
ATOM      2  C   UNL     1       2.321   3.932  20.969  0.00  0.00    +0.000 C 
ATOM      3  C   UNL     1       2.980   2.568  21.012  0.00  0.00    +0.000 C 
ATOM      4  C   UNL     1       4.183   2.699  20.088  0.00  0.00    +0.000 C 
ATOM      5  N   UNL     1       3.943   3.867  19.226  0.00  0.00    +0.000 NA
ENDROOT
BRANCH   1  10
ATOM      6  C   UNL     1       1.622  10.055  18.355  0.00  0.00    +0.000 C 
ATOM      7  C   UNL     1       1.875   8.609  18.669  0.00  0.00    +0.000 A 
ATOM      8  C   UNL     1       1.807   8.146  19.984  0.00  0.00    +0.000 A 
ATOM      9  C   UNL     1       2.048   6.805  20.279  0.00  0.00    +0.000 A 
ATOM     10  C   UNL     1       2.366   5.884  19.270  0.00  0.00    +0.000 A 
ATOM     11  C   UNL     1       2.450   6.362  17.948  0.00  0.00    +0.000 A 
ATOM     12  C   UNL     1       2.204   7.708  17.654  0.00  0.00    +0.000 A 
ENDBRANCH   1  10
BRANCH   5  13
ATOM     13  C   UNL     1       5.085   4.793  19.139  0.00  0.00    +0.000 C 
BRANCH  13  14
ATOM     14  C   UNL     1       5.716   5.023  17.801  0.00  0.00    +0.000 A 
ATOM     15  N   UNL     1       5.890   4.202  16.788  0.00  0.00    +0.000 NA
ATOM     16  C   UNL     1       6.254   5.057  15.775  0.00  0.00    +0.000 A 
ATOM     17  N   UNL     1       6.382   6.337  16.147  0.00  0.00    +0.000 NA
ATOM     18  O   UNL     1       6.019   6.320  17.495  0.00  0.00    +0.000 OA
BRANCH  16  19
ATOM     19  C   UNL     1       6.396   4.589  14.367  0.00  0.00    +0.000 A 
ATOM     20  C   UNL     1       7.413   4.959  13.505  0.00  0.00    +0.000 A 
ATOM     21  C   UNL     1       7.209   4.249  12.298  0.00  0.00    +0.000 A 
ATOM     22  C   UNL     1       6.079   3.491  12.491  0.00  0.00    +0.000 A 
ATOM     23  O   UNL     1       5.573   3.694  13.735  0.00  0.00    +0.000 OA
ENDBRANCH  16  19
ENDBRANCH  13  14
ENDBRANCH   5  13
TORSDOF 4
ENDMDL
MODEL 7
REMARK VINA RESULT:      -7.7      3.196      7.078
REMARK  Name = 
REMARK  5 active torsions:
REMARK  status: ('A' for Active; 'I' for Inactive)
REMARK    1  A    between atoms: C_1  and  C_2
REMARK    2  A    between atoms: C_5  and  C_6
REMARK    3  A    between atoms: N_10  and  C_11
REMARK    4  A    between atoms: C_11  and  C_12
REMARK    5  A    between atoms: C_14  and  C_15
REMARK                            x       y       z     vdW  Elec       q    Type
REMARK                         _______ _______ _______ _____ _____    ______ ____
ROOT
ATOM      1  C   UNL     1       4.046   4.351  16.721  0.00  0.00    +0.000 C 
ATOM      2  C   UNL     1       5.358   3.672  16.344  0.00  0.00    +0.000 C 
ATOM      3  C   UNL     1       5.901   4.555  15.240  0.00  0.00    +0.000 C 
ATOM      4  C   UNL     1       5.412   5.952  15.596  0.00  0.00    +0.000 C 
ATOM      5  N   UNL     1       4.291   5.793  16.536  0.00  0.00    +0.000 NA
ENDROOT
BRANCH   1  10
ATOM      6  C   UNL     1       1.429   2.603  21.651  0.00  0.00    +0.000 C 
ATOM      7  C   UNL     1       2.106   3.049  20.388  0.00  0.00    +0.000 A 
ATOM      8  C   UNL     1       3.491   2.942  20.250  0.00  0.00    +0.000 A 
ATOM      9  C   UNL     1       4.124   3.362  19.081  0.00  0.00    +0.000 A 
ATOM     10  C   UNL     1       3.393   3.903  18.012  0.00  0.00    +0.000 A 
ATOM     11  C   UNL     1       1.998   4.024  18.166  0.00  0.00    +0.000 A 
ATOM     12  C   UNL     1       1.365   3.599  19.340  0.00  0.00    +0.000 A 
ENDBRANCH   1  10
BRANCH   5  13
ATOM     13  C   UNL     1       4.386   6.648  17.732  0.00  0.00    +0.000 C 
BRANCH  13  14
ATOM     14  C   UNL     1       3.177   7.427  18.148  0.00  0.00    +0.000 A 
ATOM     15  N   UNL     1       2.538   7.460  19.298  0.00  0.00    +0.000 NA
ATOM     16  C   UNL     1       1.715   8.551  19.146  0.00  0.00    +0.000 A 
ATOM     17  N   UNL     1       1.772   9.127  17.938  0.00  0.00    +0.000 NA
ATOM     18  O   UNL     1       2.749   8.385  17.272  0.00  0.00    +0.000 OA
BRANCH  16  19
ATOM     19  C   UNL     1       0.906   9.086  20.278  0.00  0.00    +0.000 A 
ATOM     20  C   UNL     1       0.460   8.344  21.357  0.00  0.00    +0.000 A 
ATOM     21  C   UNL     1      -0.212   9.239  22.223  0.00  0.00    +0.000 A 
ATOM     22  C   UNL     1      -0.140  10.473  21.622  0.00  0.00    +0.000 A 
ATOM     23  O   UNL     1       0.526  10.391  20.441  0.00  0.00    +0.000 OA
ENDBRANCH  16  19
ENDBRANCH  13  14
ENDBRANCH   5  13
TORSDOF 4
ENDMDL
MODEL 8
REMARK VINA RESULT:      -7.5      3.836      5.680
REMARK  Name = 
REMARK  5 active torsions:
REMARK  status: ('A' for Active; 'I' for Inactive)
REMARK    1  A    between atoms: C_1  and  C_2
REMARK    2  A    between atoms: C_5  and  C_6
REMARK    3  A    between atoms: N_10  and  C_11
REMARK    4  A    between atoms: C_11  and  C_12
REMARK    5  A    between atoms: C_14  and  C_15
REMARK                            x       y       z     vdW  Elec       q    Type
REMARK                         _______ _______ _______ _____ _____    ______ ____
ROOT
ATOM      1  C   UNL     1       4.591   4.256  16.172  0.00  0.00    +0.000 C 
ATOM      2  C   UNL     1       5.865   3.433  16.012  0.00  0.00    +0.000 C 
ATOM      3  C   UNL     1       6.615   4.165  14.918  0.00  0.00    +0.000 C 
ATOM      4  C   UNL     1       6.227   5.626  15.103  0.00  0.00    +0.000 C 
ATOM      5  N   UNL     1       4.996   5.649  15.909  0.00  0.00    +0.000 NA
ENDROOT
BRANCH   1  10
ATOM      6  C   UNL     1       1.448   3.222  20.996  0.00  0.00    +0.000 C 
ATOM      7  C   UNL     1       2.249   3.490  19.755  0.00  0.00    +0.000 A 
ATOM      8  C   UNL     1       1.619   3.900  18.578  0.00  0.00    +0.000 A 
ATOM      9  C   UNL     1       2.360   4.143  17.423  0.00  0.00    +0.000 A 
ATOM     10  C   UNL     1       3.754   3.983  17.405  0.00  0.00    +0.000 A 
ATOM     11  C   UNL     1       4.380   3.552  18.591  0.00  0.00    +0.000 A 
ATOM     12  C   UNL     1       3.635   3.312  19.751  0.00  0.00    +0.000 A 
ENDBRANCH   1  10
BRANCH   5  13
ATOM     13  C   UNL     1       5.037   6.594  17.038  0.00  0.00    +0.000 C 
BRANCH  13  14
ATOM     14  C   UNL     1       6.346   7.228  17.391  0.00  0.00    +0.000 A 
ATOM     15  N   UNL     1       6.745   8.477  17.283  0.00  0.00    +0.000 NA
ATOM     16  C   UNL     1       7.905   8.481  18.020  0.00  0.00    +0.000 A 
ATOM     17  N   UNL     1       8.263   7.282  18.500  0.00  0.00    +0.000 NA
ATOM     18  O   UNL     1       7.224   6.446  18.088  0.00  0.00    +0.000 OA
BRANCH  16  19
ATOM     19  C   UNL     1       8.637   9.743  18.325  0.00  0.00    +0.000 A 
ATOM     20  C   UNL     1       9.441   9.948  19.432  0.00  0.00    +0.000 A 
ATOM     21  C   UNL     1       9.988  11.247  19.309  0.00  0.00    +0.000 A 
ATOM     22  C   UNL     1       9.483  11.761  18.139  0.00  0.00    +0.000 A 
ATOM     23  O   UNL     1       8.658  10.864  17.539  0.00  0.00    +0.000 OA
ENDBRANCH  16  19
ENDBRANCH  13  14
ENDBRANCH   5  13
TORSDOF 4
ENDMDL
MODEL 9
REMARK VINA RESULT:      -7.4      4.192      6.045
REMARK  Name = 
REMARK  5 active torsions:
REMARK  status: ('A' for Active; 'I' for Inactive)
REMARK    1  A    between atoms: C_1  and  C_2
REMARK    2  A    between atoms: C_5  and  C_6
REMARK    3  A    between atoms: N_10  and  C_11
REMARK    4  A    between atoms: C_11  and  C_12
REMARK    5  A    between atoms: C_14  and  C_15
REMARK                            x       y       z     vdW  Elec       q    Type
REMARK                         _______ _______ _______ _____ _____    ______ ____
ROOT
ATOM      1  C   UNL     1       5.220   5.045  15.935  0.00  0.00    +0.000 C 
ATOM      2  C   UNL     1       5.476   3.684  15.296  0.00  0.00    +0.000 C 
ATOM      3  C   UNL     1       6.521   3.988  14.242  0.00  0.00    +0.000 C 
ATOM      4  C   UNL     1       7.334   5.133  14.831  0.00  0.00    +0.000 C 
ATOM      5  N   UNL     1       6.519   5.741  15.894  0.00  0.00    +0.000 NA
ENDROOT
BRANCH   1  10
ATOM      6  C   UNL     1       2.192   5.146  20.938  0.00  0.00    +0.000 C 
ATOM      7  C   UNL     1       2.970   5.114  19.655  0.00  0.00    +0.000 A 
ATOM      8  C   UNL     1       3.684   3.972  19.287  0.00  0.00    +0.000 A 
ATOM      9  C   UNL     1       4.414   3.941  18.099  0.00  0.00    +0.000 A 
ATOM     10  C   UNL     1       4.454   5.051  17.242  0.00  0.00    +0.000 A 
ATOM     11  C   UNL     1       3.745   6.205  17.628  0.00  0.00    +0.000 A 
ATOM     12  C   UNL     1       3.011   6.232  18.819  0.00  0.00    +0.000 A 
ENDBRANCH   1  10
BRANCH   5  13
ATOM     13  C   UNL     1       7.244   5.950  17.160  0.00  0.00    +0.000 C 
BRANCH  13  14
ATOM     14  C   UNL     1       7.495   7.355  17.613  0.00  0.00    +0.000 A 
ATOM     15  N   UNL     1       8.364   7.828  18.481  0.00  0.00    +0.000 NA
ATOM     16  C   UNL     1       8.303   9.182  18.251  0.00  0.00    +0.000 A 
ATOM     17  N   UNL     1       7.390   9.551  17.343  0.00  0.00    +0.000 NA
ATOM     18  O   UNL     1       6.853   8.336  16.912  0.00  0.00    +0.000 OA
BRANCH  16  19
ATOM     19  C   UNL     1       9.252  10.131  18.899  0.00  0.00    +0.000 A 
ATOM     20  C   UNL     1      10.174  10.915  18.229  0.00  0.00    +0.000 A 
ATOM     21  C   UNL     1      10.826  11.707  19.204  0.00  0.00    +0.000 A 
ATOM     22  C   UNL     1      10.269  11.358  20.410  0.00  0.00    +0.000 A 
ATOM     23  O   UNL     1       9.322  10.399  20.240  0.00  0.00    +0.000 OA
ENDBRANCH  16  19
ENDBRANCH  13  14
ENDBRANCH   5  13
TORSDOF 4
ENDMDL
