MODEL 1
REMARK VINA RESULT:      -8.1      0.000      0.000
REMARK  Name = 
REMARK  6 active torsions:
REMARK  status: ('A' for Active; 'I' for Inactive)
REMARK    1  A    between atoms: C_2  and  C_18
REMARK    2  A    between atoms: N_3  and  CA_4
REMARK    3  A    between atoms: CA_4  and  CB_5
REMARK    4  A    between atoms: CA_4  and  C_15
REMARK    5  A    between atoms: CB_5  and  CG_6
REMARK    6  A    between atoms: C_15  and  OXT_17
REMARK                            x       y       z     vdW  Elec       q    Type
REMARK                         _______ _______ _______ _____ _____    ______ ____
ROOT
ATOM      1  CA  TRP A   1       4.595   5.329  17.998  0.00  0.00    +0.000 C 
ENDROOT
BRANCH   1   4
ATOM      2  O   UNK A   0       6.338   6.636  16.175  0.00  0.00    +0.000 OA
ATOM      3  C   UNK A   0       5.864   5.559  15.844  0.00  0.00    +0.000 C 
ATOM      4  N   TRP A   1       4.987   4.869  16.653  0.00  0.00    +0.000 N 
ATOM      5  H   TRP A   1       4.527   4.030  16.319  0.00  0.00    +0.000 HD
BRANCH   3   6
ATOM      6  C   UNK A   0       6.195   4.962  14.519  0.00  0.00    +0.000 A 
ATOM      7  C   UNK A   0       5.419   3.960  13.929  0.00  0.00    +0.000 A 
ATOM      8  C   UNK A   0       5.846   3.358  12.728  0.00  0.00    +0.000 A 
ATOM      9  C   UNK A   0       7.043   3.765  12.143  0.00  0.00    +0.000 A 
ATOM     10  F   UNK A   0       7.463   3.160  11.022  0.00  0.00    +0.000 F 
ATOM     11  C   UNK A   0       7.808   4.769  12.706  0.00  0.00    +0.000 A 
ATOM     12  C   UNK A   0       7.390   5.372  13.897  0.00  0.00    +0.000 A 
ENDBRANCH   3   6
ENDBRANCH   1   4
BRANCH   1  13
ATOM     13  C   TRP A   1       5.495   4.574  18.994  0.00  0.00    +0.000 C 
ATOM     14  O   TRP A   1       6.318   5.125  19.719  0.00  0.00    +0.000 OA
BRANCH  13  15
ATOM     15  OXT TRP A   1       5.274   3.240  19.072  0.00  0.00    +0.000 OA
ATOM     16  HXT TRP A   1       4.550   2.973  19.668  0.00  0.00    +0.000 HD
ENDBRANCH  13  15
ENDBRANCH   1  13
BRANCH   1  17
ATOM     17  CB  TRP A   1       3.091   5.188  18.331  0.00  0.00    +0.000 C 
BRANCH  17  18
ATOM     18  CG  TRP A   1       2.608   6.211  19.308  0.00  0.00    +0.000 A 
ATOM     19  CD1 TRP A   1       2.224   5.978  20.613  0.00  0.00    +0.000 A 
ATOM     20  NE1 TRP A   1       1.596   7.105  21.075  0.00  0.00    +0.000 N 
ATOM     21  CE2 TRP A   1       1.560   8.063  20.089  0.00  0.00    +0.000 A 
ATOM     22  CZ2 TRP A   1       0.883   9.286  20.039  0.00  0.00    +0.000 A 
ATOM     23  CH2 TRP A   1       1.028  10.055  18.878  0.00  0.00    +0.000 A 
ATOM     24  CZ3 TRP A   1       1.885   9.657  17.857  0.00  0.00    +0.000 A 
ATOM     25  CE3 TRP A   1       2.561   8.438  17.930  0.00  0.00    +0.000 A 
ATOM     26  CD2 TRP A   1       2.332   7.587  19.030  0.00  0.00    +0.000 A 
ATOM     27  HE1 TRP A   1       1.143   7.194  21.975  0.00  0.00    +0.000 HD
ENDBRANCH  17  18
ENDBRANCH   1  17
TORSDOF 6
ENDMDL
MODEL 2
REMARK VINA RESULT:      -8.0      2.183      3.417
REMARK  Name = 
REMARK  6 active torsions:
REMARK  status: ('A' for Active; 'I' for Inactive)
REMARK    1  A    between atoms: C_2  and  C_18
REMARK    2  A    between atoms: N_3  and  CA_4
REMARK    3  A    between atoms: CA_4  and  CB_5
REMARK    4  A    between atoms: CA_4  and  C_15
REMARK    5  A    between atoms: CB_5  and  CG_6
REMARK    6  A    between atoms: C_15  and  OXT_17
REMARK                            x       y       z     vdW  Elec       q    Type
REMARK                         _______ _______ _______ _____ _____    ______ ____
ROOT
ATOM      1  CA  TRP A   1       6.435   5.887  18.351  0.00  0.00    +0.000 C 
ENDROOT
BRANCH   1   4
ATOM      2  O   UNK A   0       4.811   6.313  16.060  0.00  0.00    +0.000 OA
ATOM      3  C   UNK A   0       5.810   5.620  15.935  0.00  0.00    +0.000 C 
ATOM      4  N   TRP A   1       6.639   5.337  16.998  0.00  0.00    +0.000 N 
ATOM      5  H   TRP A   1       7.403   4.679  16.896  0.00  0.00    +0.000 HD
BRANCH   3   6
ATOM      6  C   UNK A   0       6.152   5.019  14.614  0.00  0.00    +0.000 A 
ATOM      7  C   UNK A   0       5.356   4.048  14.000  0.00  0.00    +0.000 A 
ATOM      8  C   UNK A   0       5.789   3.437  12.806  0.00  0.00    +0.000 A 
ATOM      9  C   UNK A   0       7.014   3.805  12.251  0.00  0.00    +0.000 A 
ATOM     10  F   UNK A   0       7.438   3.191  11.137  0.00  0.00    +0.000 F 
ATOM     11  C   UNK A   0       7.800   4.778  12.838  0.00  0.00    +0.000 A 
ATOM     12  C   UNK A   0       7.375   5.389  14.023  0.00  0.00    +0.000 A 
ENDBRANCH   3   6
ENDBRANCH   1   4
BRANCH   1  13
ATOM     13  C   TRP A   1       7.826   6.305  18.863  0.00  0.00    +0.000 C 
ATOM     14  O   TRP A   1       8.372   7.362  18.560  0.00  0.00    +0.000 OA
BRANCH  13  15
ATOM     15  OXT TRP A   1       8.398   5.448  19.742  0.00  0.00    +0.000 OA
ATOM     16  HXT TRP A   1       7.815   5.134  20.456  0.00  0.00    +0.000 HD
ENDBRANCH  13  15
ENDBRANCH   1  13
BRANCH   1  17
ATOM     17  CB  TRP A   1       5.695   4.952  19.338  0.00  0.00    +0.000 C 
BRANCH  17  18
ATOM     18  CG  TRP A   1       4.207   5.046  19.230  0.00  0.00    +0.000 A 
ATOM     19  CD1 TRP A   1       3.419   6.086  19.681  0.00  0.00    +0.000 A 
ATOM     20  NE1 TRP A   1       2.114   5.671  19.645  0.00  0.00    +0.000 N 
ATOM     21  CE2 TRP A   1       2.042   4.378  19.184  0.00  0.00    +0.000 A 
ATOM     22  CZ2 TRP A   1       0.961   3.491  19.139  0.00  0.00    +0.000 A 
ATOM     23  CH2 TRP A   1       1.198   2.213  18.619  0.00  0.00    +0.000 A 
ATOM     24  CZ3 TRP A   1       2.437   1.875  18.085  0.00  0.00    +0.000 A 
ATOM     25  CE3 TRP A   1       3.502   2.777  18.129  0.00  0.00    +0.000 A 
ATOM     26  CD2 TRP A   1       3.323   4.023  18.763  0.00  0.00    +0.000 A 
ATOM     27  HE1 TRP A   1       1.324   6.200  19.990  0.00  0.00    +0.000 HD
ENDBRANCH  17  18
ENDBRANCH   1  17
TORSDOF 6
ENDMDL
MODEL 3
REMARK VINA RESULT:      -8.0      0.199      1.004
REMARK  Name = 
REMARK  6 active torsions:
REMARK  status: ('A' for Active; 'I' for Inactive)
REMARK    1  A    between atoms: C_2  and  C_18
REMARK    2  A    between atoms: N_3  and  CA_4
REMARK    3  A    between atoms: CA_4  and  CB_5
REMARK    4  A    between atoms: CA_4  and  C_15
REMARK    5  A    between atoms: CB_5  and  CG_6
REMARK    6  A    between atoms: C_15  and  OXT_17
REMARK                            x       y       z     vdW  Elec       q    Type
REMARK                         _______ _______ _______ _____ _____    ______ ____
ROOT
ATOM      1  CA  TRP A   1       4.694   5.394  17.984  0.00  0.00    +0.000 C 
ENDROOT
BRANCH   1   4
ATOM      2  O   UNK A   0       6.702   6.555  16.345  0.00  0.00    +0.000 OA
ATOM      3  C   UNK A   0       6.151   5.539  15.946  0.00  0.00    +0.000 C 
ATOM      4  N   TRP A   1       5.148   4.925  16.662  0.00  0.00    +0.000 N 
ATOM      5  H   TRP A   1       4.636   4.144  16.267  0.00  0.00    +0.000 HD
BRANCH   3   6
ATOM      6  C   UNK A   0       6.530   4.940  14.634  0.00  0.00    +0.000 A 
ATOM      7  C   UNK A   0       7.579   5.436  13.855  0.00  0.00    +0.000 A 
ATOM      8  C   UNK A   0       7.817   4.898  12.574  0.00  0.00    +0.000 A 
ATOM      9  C   UNK A   0       6.998   3.879  12.094  0.00  0.00    +0.000 A 
ATOM     10  F   UNK A   0       7.204   3.399  10.859  0.00  0.00    +0.000 F 
ATOM     11  C   UNK A   0       5.970   3.366  12.863  0.00  0.00    +0.000 A 
ATOM     12  C   UNK A   0       5.730   3.894  14.137  0.00  0.00    +0.000 A 
ENDBRANCH   3   6
ENDBRANCH   1   4
BRANCH   1  13
ATOM     13  C   TRP A   1       5.538   4.637  19.025  0.00  0.00    +0.000 C 
ATOM     14  O   TRP A   1       6.367   5.178  19.752  0.00  0.00    +0.000 OA
BRANCH  13  15
ATOM     15  OXT TRP A   1       5.260   3.316  19.143  0.00  0.00    +0.000 OA
ATOM     16  HXT TRP A   1       5.290   2.964  20.052  0.00  0.00    +0.000 HD
ENDBRANCH  13  15
ENDBRANCH   1  13
BRANCH   1  17
ATOM     17  CB  TRP A   1       3.173   5.264  18.244  0.00  0.00    +0.000 C 
BRANCH  17  18
ATOM     18  CG  TRP A   1       2.666   6.245  19.251  0.00  0.00    +0.000 A 
ATOM     19  CD1 TRP A   1       2.300   5.966  20.552  0.00  0.00    +0.000 A 
ATOM     20  NE1 TRP A   1       1.638   7.059  21.048  0.00  0.00    +0.000 N 
ATOM     21  CE2 TRP A   1       1.564   8.040  20.087  0.00  0.00    +0.000 A 
ATOM     22  CZ2 TRP A   1       0.847   9.242  20.075  0.00  0.00    +0.000 A 
ATOM     23  CH2 TRP A   1       0.957  10.045  18.934  0.00  0.00    +0.000 A 
ATOM     24  CZ3 TRP A   1       1.818   9.702  17.896  0.00  0.00    +0.000 A 
ATOM     25  CE3 TRP A   1       2.534   8.504  17.932  0.00  0.00    +0.000 A 
ATOM     26  CD2 TRP A   1       2.342   7.618  19.011  0.00  0.00    +0.000 A 
ATOM     27  HE1 TRP A   1       1.190   7.109  21.953  0.00  0.00    +0.000 HD
ENDBRANCH  17  18
ENDBRANCH   1  17
TORSDOF 6
ENDMDL
MODEL 4
REMARK VINA RESULT:      -8.0      0.892      1.000
REMARK  Name = 
REMARK  6 active torsions:
REMARK  status: ('A' for Active; 'I' for Inactive)
REMARK    1  A    between atoms: C_2  and  C_18
REMARK    2  A    between atoms: N_3  and  CA_4
REMARK    3  A    between atoms: CA_4  and  CB_5
REMARK    4  A    between atoms: CA_4  and  C_15
REMARK    5  A    between atoms: CB_5  and  CG_6
REMARK    6  A    between atoms: C_15  and  OXT_17
REMARK                            x       y       z     vdW  Elec       q    Type
REMARK                         _______ _______ _______ _____ _____    ______ ____
ROOT
ATOM      1  CA  TRP A   1       4.187   4.239  18.007  0.00  0.00    +0.000 C 
ENDROOT
BRANCH   1   4
ATOM      2  O   UNK A   0       5.141   6.215  16.203  0.00  0.00    +0.000 OA
ATOM      3  C   UNK A   0       5.217   5.042  15.864  0.00  0.00    +0.000 C 
ATOM      4  N   TRP A   1       4.754   4.021  16.663  0.00  0.00    +0.000 N 
ATOM      5  H   TRP A   1       4.733   3.067  16.321  0.00  0.00    +0.000 HD
BRANCH   3   6
ATOM      6  C   UNK A   0       5.793   4.676  14.539  0.00  0.00    +0.000 A 
ATOM      7  C   UNK A   0       5.163   3.786  13.664  0.00  0.00    +0.000 A 
ATOM      8  C   UNK A   0       5.810   3.392  12.476  0.00  0.00    +0.000 A 
ATOM      9  C   UNK A   0       7.078   3.892  12.186  0.00  0.00    +0.000 A 
ATOM     10  F   UNK A   0       7.704   3.483  11.073  0.00  0.00    +0.000 F 
ATOM     11  C   UNK A   0       7.702   4.789  13.032  0.00  0.00    +0.000 A 
ATOM     12  C   UNK A   0       7.065   5.185  14.214  0.00  0.00    +0.000 A 
ENDBRANCH   3   6
ENDBRANCH   1   4
BRANCH   1  13
ATOM     13  C   TRP A   1       4.360   2.912  18.770  0.00  0.00    +0.000 C 
ATOM     14  O   TRP A   1       4.779   2.839  19.921  0.00  0.00    +0.000 OA
BRANCH  13  15
ATOM     15  OXT TRP A   1       3.948   1.807  18.103  0.00  0.00    +0.000 OA
ATOM     16  HXT TRP A   1       4.041   0.968  18.591  0.00  0.00    +0.000 HD
ENDBRANCH  13  15
ENDBRANCH   1  13
BRANCH   1  17
ATOM     17  CB  TRP A   1       2.728   4.754  18.033  0.00  0.00    +0.000 C 
BRANCH  17  18
ATOM     18  CG  TRP A   1       2.490   5.785  19.089  0.00  0.00    +0.000 A 
ATOM     19  CD1 TRP A   1       2.250   5.543  20.427  0.00  0.00    +0.000 A 
ATOM     20  NE1 TRP A   1       1.814   6.712  20.994  0.00  0.00    +0.000 N 
ATOM     21  CE2 TRP A   1       1.761   7.706  20.045  0.00  0.00    +0.000 A 
ATOM     22  CZ2 TRP A   1       1.223   8.996  20.114  0.00  0.00    +0.000 A 
ATOM     23  CH2 TRP A   1       1.304   9.789  18.963  0.00  0.00    +0.000 A 
ATOM     24  CZ3 TRP A   1       1.976   9.342  17.830  0.00  0.00    +0.000 A 
ATOM     25  CE3 TRP A   1       2.516   8.055  17.784  0.00  0.00    +0.000 A 
ATOM     26  CD2 TRP A   1       2.335   7.192  18.883  0.00  0.00    +0.000 A 
ATOM     27  HE1 TRP A   1       1.491   6.814  21.947  0.00  0.00    +0.000 HD
ENDBRANCH  17  18
ENDBRANCH   1  17
TORSDOF 6
ENDMDL
MODEL 5
REMARK VINA RESULT:      -7.9      4.233      8.227
REMARK  Name = 
REMARK  6 active torsions:
REMARK  status: ('A' for Active; 'I' for Inactive)
REMARK    1  A    between atoms: C_2  and  C_18
REMARK    2  A    between atoms: N_3  and  CA_4
REMARK    3  A    between atoms: CA_4  and  CB_5
REMARK    4  A    between atoms: CA_4  and  C_15
REMARK    5  A    between atoms: CB_5  and  CG_6
REMARK    6  A    between atoms: C_15  and  OXT_17
REMARK                            x       y       z     vdW  Elec       q    Type
REMARK                         _______ _______ _______ _____ _____    ______ ____
ROOT
ATOM      1  CA  TRP A   1       2.093   5.215  20.150  0.00  0.00    +0.000 C 
ENDROOT
BRANCH   1   4
ATOM      2  O   UNK A   0       2.082   7.876  19.155  0.00  0.00    +0.000 OA
ATOM      3  C   UNK A   0       1.590   7.672  20.256  0.00  0.00    +0.000 C 
ATOM      4  N   TRP A   1       1.577   6.419  20.828  0.00  0.00    +0.000 N 
ATOM      5  H   TRP A   1       1.257   6.290  21.781  0.00  0.00    +0.000 HD
BRANCH   3   6
ATOM      6  C   UNK A   0       1.008   8.796  21.043  0.00  0.00    +0.000 A 
ATOM      7  C   UNK A   0       0.599   8.653  22.372  0.00  0.00    +0.000 A 
ATOM      8  C   UNK A   0      -0.046   9.720  23.028  0.00  0.00    +0.000 A 
ATOM      9  C   UNK A   0      -0.275  10.911  22.340  0.00  0.00    +0.000 A 
ATOM     10  F   UNK A   0      -0.924  11.908  22.957  0.00  0.00    +0.000 F 
ATOM     11  C   UNK A   0       0.143  11.072  21.032  0.00  0.00    +0.000 A 
ATOM     12  C   UNK A   0       0.785  10.016  20.376  0.00  0.00    +0.000 A 
ENDBRANCH   3   6
ENDBRANCH   1   4
BRANCH   1  13
ATOM     13  C   TRP A   1       1.683   4.016  21.025  0.00  0.00    +0.000 C 
ATOM     14  O   TRP A   1       2.270   3.693  22.053  0.00  0.00    +0.000 OA
BRANCH  13  15
ATOM     15  OXT TRP A   1       0.568   3.362  20.621  0.00  0.00    +0.000 OA
ATOM     16  HXT TRP A   1       0.725   2.519  20.158  0.00  0.00    +0.000 HD
ENDBRANCH  13  15
ENDBRANCH   1  13
BRANCH   1  17
ATOM     17  CB  TRP A   1       3.608   5.232  19.837  0.00  0.00    +0.000 C 
BRANCH  17  18
ATOM     18  CG  TRP A   1       3.964   4.439  18.621  0.00  0.00    +0.000 A 
ATOM     19  CD1 TRP A   1       4.048   3.064  18.537  0.00  0.00    +0.000 A 
ATOM     20  NE1 TRP A   1       4.662   2.750  17.353  0.00  0.00    +0.000 N 
ATOM     21  CE2 TRP A   1       4.983   3.899  16.669  0.00  0.00    +0.000 A 
ATOM     22  CZ2 TRP A   1       5.757   4.082  15.519  0.00  0.00    +0.000 A 
ATOM     23  CH2 TRP A   1       5.923   5.392  15.055  0.00  0.00    +0.000 A 
ATOM     24  CZ3 TRP A   1       5.265   6.456  15.664  0.00  0.00    +0.000 A 
ATOM     25  CE3 TRP A   1       4.486   6.253  16.805  0.00  0.00    +0.000 A 
ATOM     26  CD2 TRP A   1       4.409   4.962  17.365  0.00  0.00    +0.000 A 
ATOM     27  HE1 TRP A   1       4.924   1.818  17.060  0.00  0.00    +0.000 HD
ENDBRANCH  17  18
ENDBRANCH   1  17
TORSDOF 6
ENDMDL
MODEL 6
REMARK VINA RESULT:      -7.9      2.524      3.553
REMARK  Name = 
REMARK  6 active torsions:
REMARK  status: ('A' for Active; 'I' for Inactive)
REMARK    1  A    between atoms: C_2  and  C_18
REMARK    2  A    between atoms: N_3  and  CA_4
REMARK    3  A    between atoms: CA_4  and  CB_5
REMARK    4  A    between atoms: CA_4  and  C_15
REMARK    5  A    between atoms: CB_5  and  CG_6
REMARK    6  A    between atoms: C_15  and  OXT_17
REMARK                            x       y       z     vdW  Elec       q    Type
REMARK                         _______ _______ _______ _____ _____    ______ ____
ROOT
ATOM      1  CA  TRP A   1       6.052   5.918  17.741  0.00  0.00    +0.000 C 
ENDROOT
BRANCH   1   4
ATOM      2  O   UNK A   0       5.124   6.685  15.167  0.00  0.00    +0.000 OA
ATOM      3  C   UNK A   0       5.800   5.670  15.256  0.00  0.00    +0.000 C 
ATOM      4  N   TRP A   1       6.268   5.208  16.466  0.00  0.00    +0.000 N 
ATOM      5  H   TRP A   1       6.738   4.313  16.530  0.00  0.00    +0.000 HD
BRANCH   3   6
ATOM      6  C   UNK A   0       6.117   4.866  14.041  0.00  0.00    +0.000 A 
ATOM      7  C   UNK A   0       5.307   3.814  13.602  0.00  0.00    +0.000 A 
ATOM      8  C   UNK A   0       5.718   3.020  12.512  0.00  0.00    +0.000 A 
ATOM      9  C   UNK A   0       6.933   3.289  11.885  0.00  0.00    +0.000 A 
ATOM     10  F   UNK A   0       7.336   2.505  10.875  0.00  0.00    +0.000 F 
ATOM     11  C   UNK A   0       7.733   4.338  12.297  0.00  0.00    +0.000 A 
ATOM     12  C   UNK A   0       7.330   5.132  13.378  0.00  0.00    +0.000 A 
ENDBRANCH   3   6
ENDBRANCH   1   4
BRANCH   1  13
ATOM     13  C   TRP A   1       7.393   6.589  18.095  0.00  0.00    +0.000 C 
ATOM     14  O   TRP A   1       8.109   6.228  19.024  0.00  0.00    +0.000 OA
BRANCH  13  15
ATOM     15  OXT TRP A   1       7.778   7.583  17.259  0.00  0.00    +0.000 OA
ATOM     16  HXT TRP A   1       8.719   7.571  17.005  0.00  0.00    +0.000 HD
ENDBRANCH  13  15
ENDBRANCH   1  13
BRANCH   1  17
ATOM     17  CB  TRP A   1       5.499   5.048  18.895  0.00  0.00    +0.000 C 
BRANCH  17  18
ATOM     18  CG  TRP A   1       4.038   4.764  18.765  0.00  0.00    +0.000 A 
ATOM     19  CD1 TRP A   1       3.156   5.390  17.907  0.00  0.00    +0.000 A 
ATOM     20  NE1 TRP A   1       1.885   5.046  18.284  0.00  0.00    +0.000 N 
ATOM     21  CE2 TRP A   1       1.926   4.212  19.377  0.00  0.00    +0.000 A 
ATOM     22  CZ2 TRP A   1       0.896   3.751  20.203  0.00  0.00    +0.000 A 
ATOM     23  CH2 TRP A   1       1.250   2.911  21.265  0.00  0.00    +0.000 A 
ATOM     24  CZ3 TRP A   1       2.562   2.481  21.433  0.00  0.00    +0.000 A 
ATOM     25  CE3 TRP A   1       3.576   2.944  20.591  0.00  0.00    +0.000 A 
ATOM     26  CD2 TRP A   1       3.265   3.890  19.594  0.00  0.00    +0.000 A 
ATOM     27  HE1 TRP A   1       1.035   5.418  17.880  0.00  0.00    +0.000 HD
ENDBRANCH  17  18
ENDBRANCH   1  17
TORSDOF 6
ENDMDL
MODEL 7
REMARK VINA RESULT:      -7.9      2.216      3.294
REMARK  Name = 
REMARK  6 active torsions:
REMARK  status: ('A' for Active; 'I' for Inactive)
REMARK    1  A    between atoms: C_2  and  C_18
REMARK    2  A    between atoms: N_3  and  CA_4
REMARK    3  A    between atoms: CA_4  and  CB_5
REMARK    4  A    between atoms: CA_4  and  C_15
REMARK    5  A    between atoms: CB_5  and  CG_6
REMARK    6  A    between atoms: C_15  and  OXT_17
REMARK                            x       y       z     vdW  Elec       q    Type
REMARK                         _______ _______ _______ _____ _____    ______ ____
ROOT
ATOM      1  CA  TRP A   1       5.472   6.017  18.173  0.00  0.00    +0.000 C 
ENDROOT
BRANCH   1   4
ATOM      2  O   UNK A   0       7.485   6.418  16.209  0.00  0.00    +0.000 OA
ATOM      3  C   UNK A   0       6.561   5.664  15.939  0.00  0.00    +0.000 C 
ATOM      4  N   TRP A   1       5.527   5.433  16.820  0.00  0.00    +0.000 N 
ATOM      5  H   TRP A   1       4.722   4.887  16.538  0.00  0.00    +0.000 HD
BRANCH   3   6
ATOM      6  C   UNK A   0       6.503   4.985  14.613  0.00  0.00    +0.000 A 
ATOM      7  C   UNK A   0       5.504   4.065  14.281  0.00  0.00    +0.000 A 
ATOM      8  C   UNK A   0       5.567   3.373  13.055  0.00  0.00    +0.000 A 
ATOM      9  C   UNK A   0       6.630   3.610  12.185  0.00  0.00    +0.000 A 
ATOM     10  F   UNK A   0       6.704   2.919  11.039  0.00  0.00    +0.000 F 
ATOM     11  C   UNK A   0       7.612   4.532  12.493  0.00  0.00    +0.000 A 
ATOM     12  C   UNK A   0       7.556   5.223  13.709  0.00  0.00    +0.000 A 
ENDBRANCH   3   6
ENDBRANCH   1   4
BRANCH   1  13
ATOM     13  C   TRP A   1       6.246   5.054  19.092  0.00  0.00    +0.000 C 
ATOM     14  O   TRP A   1       6.956   5.425  20.022  0.00  0.00    +0.000 OA
BRANCH  13  15
ATOM     15  OXT TRP A   1       6.040   3.737  18.850  0.00  0.00    +0.000 OA
ATOM     16  HXT TRP A   1       6.840   3.181  18.868  0.00  0.00    +0.000 HD
ENDBRANCH  13  15
ENDBRANCH   1  13
BRANCH   1  17
ATOM     17  CB  TRP A   1       4.050   6.328  18.700  0.00  0.00    +0.000 C 
BRANCH  17  18
ATOM     18  CG  TRP A   1       3.107   5.177  18.553  0.00  0.00    +0.000 A 
ATOM     19  CD1 TRP A   1       2.376   4.858  17.426  0.00  0.00    +0.000 A 
ATOM     20  NE1 TRP A   1       1.442   3.920  17.782  0.00  0.00    +0.000 N 
ATOM     21  CE2 TRP A   1       1.551   3.631  19.122  0.00  0.00    +0.000 A 
ATOM     22  CZ2 TRP A   1       0.717   2.878  19.956  0.00  0.00    +0.000 A 
ATOM     23  CH2 TRP A   1       1.083   2.769  21.302  0.00  0.00    +0.000 A 
ATOM     24  CZ3 TRP A   1       2.277   3.311  21.767  0.00  0.00    +0.000 A 
ATOM     25  CE3 TRP A   1       3.102   4.050  20.917  0.00  0.00    +0.000 A 
ATOM     26  CD2 TRP A   1       2.691   4.282  19.589  0.00  0.00    +0.000 A 
ATOM     27  HE1 TRP A   1       0.719   3.558  17.175  0.00  0.00    +0.000 HD
ENDBRANCH  17  18
ENDBRANCH   1  17
TORSDOF 6
ENDMDL
MODEL 8
REMARK VINA RESULT:      -7.8      1.142      1.631
REMARK  Name = 
REMARK  6 active torsions:
REMARK  status: ('A' for Active; 'I' for Inactive)
REMARK    1  A    between atoms: C_2  and  C_18
REMARK    2  A    between atoms: N_3  and  CA_4
REMARK    3  A    between atoms: CA_4  and  CB_5
REMARK    4  A    between atoms: CA_4  and  C_15
REMARK    5  A    between atoms: CB_5  and  CG_6
REMARK    6  A    between atoms: C_15  and  OXT_17
REMARK                            x       y       z     vdW  Elec       q    Type
REMARK                         _______ _______ _______ _____ _____    ______ ____
ROOT
ATOM      1  CA  TRP A   1       4.063   4.036  18.395  0.00  0.00    +0.000 C 
ENDROOT
BRANCH   1   4
ATOM      2  O   UNK A   0       6.687   4.829  17.651  0.00  0.00    +0.000 OA
ATOM      3  C   UNK A   0       5.932   4.443  16.770  0.00  0.00    +0.000 C 
ATOM      4  N   TRP A   1       4.634   4.067  17.036  0.00  0.00    +0.000 N 
ATOM      5  H   TRP A   1       3.995   3.848  16.280  0.00  0.00    +0.000 HD
BRANCH   3   6
ATOM      6  C   UNK A   0       6.386   4.398  15.351  0.00  0.00    +0.000 A 
ATOM      7  C   UNK A   0       7.450   5.171  14.876  0.00  0.00    +0.000 A 
ATOM      8  C   UNK A   0       7.760   5.169  13.502  0.00  0.00    +0.000 A 
ATOM      9  C   UNK A   0       6.998   4.399  12.626  0.00  0.00    +0.000 A 
ATOM     10  F   UNK A   0       7.274   4.432  11.314  0.00  0.00    +0.000 F 
ATOM     11  C   UNK A   0       5.958   3.614  13.086  0.00  0.00    +0.000 A 
ATOM     12  C   UNK A   0       5.644   3.610  14.450  0.00  0.00    +0.000 A 
ENDBRANCH   3   6
ENDBRANCH   1   4
BRANCH   1  13
ATOM     13  C   TRP A   1       4.308   2.616  18.936  0.00  0.00    +0.000 C 
ATOM     14  O   TRP A   1       4.780   2.383  20.045  0.00  0.00    +0.000 OA
BRANCH  13  15
ATOM     15  OXT TRP A   1       3.900   1.611  18.124  0.00  0.00    +0.000 OA
ATOM     16  HXT TRP A   1       2.969   1.344  18.229  0.00  0.00    +0.000 HD
ENDBRANCH  13  15
ENDBRANCH   1  13
BRANCH   1  17
ATOM     17  CB  TRP A   1       2.579   4.463  18.497  0.00  0.00    +0.000 C 
BRANCH  17  18
ATOM     18  CG  TRP A   1       2.364   5.621  19.419  0.00  0.00    +0.000 A 
ATOM     19  CD1 TRP A   1       2.064   5.549  20.764  0.00  0.00    +0.000 A 
ATOM     20  NE1 TRP A   1       1.678   6.798  21.176  0.00  0.00    +0.000 N 
ATOM     21  CE2 TRP A   1       1.716   7.676  20.119  0.00  0.00    +0.000 A 
ATOM     22  CZ2 TRP A   1       1.254   8.993  20.019  0.00  0.00    +0.000 A 
ATOM     23  CH2 TRP A   1       1.421   9.642  18.790  0.00  0.00    +0.000 A 
ATOM     24  CZ3 TRP A   1       2.105   9.031  17.744  0.00  0.00    +0.000 A 
ATOM     25  CE3 TRP A   1       2.570   7.720  17.867  0.00  0.00    +0.000 A 
ATOM     26  CD2 TRP A   1       2.300   7.001  19.048  0.00  0.00    +0.000 A 
ATOM     27  HE1 TRP A   1       1.329   7.026  22.098  0.00  0.00    +0.000 HD
ENDBRANCH  17  18
ENDBRANCH   1  17
TORSDOF 6
ENDMDL
MODEL 9
REMARK VINA RESULT:      -7.7      2.260      3.684
REMARK  Name = 
REMARK  6 active torsions:
REMARK  status: ('A' for Active; 'I' for Inactive)
REMARK    1  A    between atoms: C_2  and  C_18
REMARK    2  A    between atoms: N_3  and  CA_4
REMARK    3  A    between atoms: CA_4  and  CB_5
REMARK    4  A    between atoms: CA_4  and  C_15
REMARK    5  A    between atoms: CB_5  and  CG_6
REMARK    6  A    between atoms: C_15  and  OXT_17
REMARK                            x       y       z     vdW  Elec       q    Type
REMARK                         _______ _______ _______ _____ _____    ______ ____
ROOT
ATOM      1  CA  TRP A   1       6.693   5.543  18.228  0.00  0.00    +0.000 C 
ENDROOT
BRANCH   1   4
ATOM      2  O   UNK A   0       7.733   6.288  15.691  0.00  0.00    +0.000 OA
ATOM      3  C   UNK A   0       6.957   5.343  15.739  0.00  0.00    +0.000 C 
ATOM      4  N   TRP A   1       6.383   4.932  16.922  0.00  0.00    +0.000 N 
ATOM      5  H   TRP A   1       5.666   4.215  16.926  0.00  0.00    +0.000 HD
BRANCH   3   6
ATOM      6  C   UNK A   0       6.574   4.616  14.496  0.00  0.00    +0.000 A 
ATOM      7  C   UNK A   0       7.371   4.615  13.348  0.00  0.00    +0.000 A 
ATOM      8  C   UNK A   0       6.902   4.003  12.168  0.00  0.00    +0.000 A 
ATOM      9  C   UNK A   0       5.643   3.407  12.157  0.00  0.00    +0.000 A 
ATOM     10  F   UNK A   0       5.187   2.861  11.020  0.00  0.00    +0.000 F 
ATOM     11  C   UNK A   0       4.854   3.383  13.291  0.00  0.00    +0.000 A 
ATOM     12  C   UNK A   0       5.314   3.988  14.467  0.00  0.00    +0.000 A 
ENDBRANCH   3   6
ENDBRANCH   1   4
BRANCH   1  13
ATOM     13  C   TRP A   1       8.002   4.891  18.711  0.00  0.00    +0.000 C 
ATOM     14  O   TRP A   1       8.633   4.067  18.056  0.00  0.00    +0.000 OA
BRANCH  13  15
ATOM     15  OXT TRP A   1       8.464   5.341  19.902  0.00  0.00    +0.000 OA
ATOM     16  HXT TRP A   1       9.341   5.764  19.875  0.00  0.00    +0.000 HD
ENDBRANCH  13  15
ENDBRANCH   1  13
BRANCH   1  17
ATOM     17  CB  TRP A   1       5.563   5.459  19.281  0.00  0.00    +0.000 C 
BRANCH  17  18
ATOM     18  CG  TRP A   1       4.204   5.323  18.672  0.00  0.00    +0.000 A 
ATOM     19  CD1 TRP A   1       3.383   6.356  18.266  0.00  0.00    +0.000 A 
ATOM     20  NE1 TRP A   1       2.138   5.836  18.027  0.00  0.00    +0.000 N 
ATOM     21  CE2 TRP A   1       2.136   4.484  18.277  0.00  0.00    +0.000 A 
ATOM     22  CZ2 TRP A   1       1.073   3.576  18.338  0.00  0.00    +0.000 A 
ATOM     23  CH2 TRP A   1       1.381   2.243  18.633  0.00  0.00    +0.000 A 
ATOM     24  CZ3 TRP A   1       2.702   1.825  18.767  0.00  0.00    +0.000 A 
ATOM     25  CE3 TRP A   1       3.750   2.744  18.691  0.00  0.00    +0.000 A 
ATOM     26  CD2 TRP A   1       3.457   4.112  18.523  0.00  0.00    +0.000 A 
ATOM     27  HE1 TRP A   1       1.316   6.375  17.789  0.00  0.00    +0.000 HD
ENDBRANCH  17  18
ENDBRANCH   1  17
TORSDOF 6
ENDMDL
