MODEL 1
REMARK VINA RESULT:      -7.6      0.000      0.000
REMARK  Name = 
REMARK  13 active torsions:
REMARK  status: ('A' for Active; 'I' for Inactive)
REMARK    1  A    between atoms: C_1  and  C_2
REMARK    2  A    between atoms: C_2  and  C_3
REMARK    3  A    between atoms: C_2  and  C_4
REMARK    4  A    between atoms: C_2  and  N_5
REMARK    5  A    between atoms: N_5  and  C_6
REMARK    6  A    between atoms: C_6  and  C_7
REMARK    7  A    between atoms: C_13  and  C_15
REMARK    8  A    between atoms: C_15  and  O_16
REMARK    9  A    between atoms: O_16  and  C_17
REMARK   10  A    between atoms: C_17  and  C_19
REMARK   11  A    between atoms: C_19  and  S_20
REMARK   12  A    between atoms: S_20  and  C_21
REMARK   13  A    between atoms: C_24  and  N_25
REMARK                            x       y       z     vdW  Elec       q    Type
REMARK                         _______ _______ _______ _____ _____    ______ ____
ROOT
ATOM      1  C   UNL     1       5.552   5.331  19.213  0.00  0.00    +0.000 C 
ENDROOT
BRANCH   1   3
ATOM      2  N   UNL     1       3.371   4.107  18.785  0.00  0.00    +0.000 N 
ATOM      3  C   UNL     1       4.662   4.081  19.346  0.00  0.00    +0.000 C 
ATOM      4  O   UNL     1       5.141   3.095  19.909  0.00  0.00    +0.000 OA
BRANCH   2   6
ATOM      5  C   UNL     1       3.046   1.656  18.208  0.00  0.00    +0.000 C 
ATOM      6  C   UNL     1       2.425   2.906  18.875  0.00  0.00    +0.000 C 
ATOM      7  C   UNL     1       1.085   3.202  18.180  0.00  0.00    +0.000 C 
ATOM      8  C   UNL     1       2.068   2.463  20.319  0.00  0.00    +0.000 C 
ENDBRANCH   2   6
BRANCH   2   9
ATOM      9  C   UNL     1       2.900   5.320  18.082  0.00  0.00    +0.000 C 
BRANCH   9  10
ATOM     10  C   UNL     1       2.415   6.480  18.930  0.00  0.00    +0.000 A 
ATOM     11  C   UNL     1       1.950   6.344  20.244  0.00  0.00    +0.000 A 
ATOM     12  C   UNL     1       1.339   7.413  20.904  0.00  0.00    +0.000 A 
ATOM     13  C   UNL     1       1.242   8.656  20.286  0.00  0.00    +0.000 A 
ATOM     14  C   UNL     1       1.787   8.840  19.019  0.00  0.00    +0.000 A 
ATOM     15  C   UNL     1       2.366   7.760  18.346  0.00  0.00    +0.000 A 
ENDBRANCH   9  10
ENDBRANCH   2   9
ENDBRANCH   1   3
BRANCH   1  16
ATOM     16  O   UNL     1       6.942   4.989  19.298  0.00  0.00    +0.000 OA
BRANCH  16  17
ATOM     17  C   UNL     1       7.634   5.060  18.129  0.00  0.00    +0.000 C 
ATOM     18  O   UNL     1       8.227   4.112  17.622  0.00  0.00    +0.000 OA
BRANCH  17  19
ATOM     19  C   UNL     1       7.545   6.423  17.463  0.00  0.00    +0.000 C 
BRANCH  19  20
ATOM     20  S   UNL     1       6.012   6.621  16.483  0.00  0.00    +0.000 S 
BRANCH  20  21
ATOM     21  C   UNL     1       6.180   5.411  15.183  0.00  0.00    +0.000 A 
ATOM     22  C   UNL     1       5.090   4.555  14.960  0.00  0.00    +0.000 A 
ATOM     23  C   UNL     1       5.082   3.663  13.883  0.00  0.00    +0.000 A 
ATOM     24  C   UNL     1       6.174   3.628  13.013  0.00  0.00    +0.000 A 
ATOM     25  C   UNL     1       7.276   4.465  13.228  0.00  0.00    +0.000 A 
ATOM     26  C   UNL     1       7.273   5.355  14.311  0.00  0.00    +0.000 A 
BRANCH  24  27
ATOM     27  N   UNL     1       6.154   2.729  11.851  0.00  0.00    +0.000 N 
ATOM     28  O   UNL     1       5.050   2.331  11.451  0.00  0.00    +0.000 OA
ATOM     29  O   UNL     1       7.240   2.427  11.337  0.00  0.00    +0.000 OA
ENDBRANCH  24  27
ENDBRANCH  20  21
ENDBRANCH  19  20
ENDBRANCH  17  19
ENDBRANCH  16  17
ENDBRANCH   1  16
TORSDOF 10
ENDMDL
MODEL 2
REMARK VINA RESULT:      -7.5      4.178      6.229
REMARK  Name = 
REMARK  13 active torsions:
REMARK  status: ('A' for Active; 'I' for Inactive)
REMARK    1  A    between atoms: C_1  and  C_2
REMARK    2  A    between atoms: C_2  and  C_3
REMARK    3  A    between atoms: C_2  and  C_4
REMARK    4  A    between atoms: C_2  and  N_5
REMARK    5  A    between atoms: N_5  and  C_6
REMARK    6  A    between atoms: C_6  and  C_7
REMARK    7  A    between atoms: C_13  and  C_15
REMARK    8  A    between atoms: C_15  and  O_16
REMARK    9  A    between atoms: O_16  and  C_17
REMARK   10  A    between atoms: C_17  and  C_19
REMARK   11  A    between atoms: C_19  and  S_20
REMARK   12  A    between atoms: S_20  and  C_21
REMARK   13  A    between atoms: C_24  and  N_25
REMARK                            x       y       z     vdW  Elec       q    Type
REMARK                         _______ _______ _______ _____ _____    ______ ____
ROOT
ATOM      1  C   UNL     1       6.102   5.179  19.257  0.00  0.00    +0.000 C 
ENDROOT
BRANCH   1   3
ATOM      2  N   UNL     1       3.776   4.487  18.518  0.00  0.00    +0.000 N 
ATOM      3  C   UNL     1       4.941   4.167  19.240  0.00  0.00    +0.000 C 
ATOM      4  O   UNL     1       5.104   3.099  19.832  0.00  0.00    +0.000 OA
BRANCH   2   6
ATOM      5  C   UNL     1       1.986   3.283  19.859  0.00  0.00    +0.000 C 
ATOM      6  C   UNL     1       2.577   3.535  18.451  0.00  0.00    +0.000 C 
ATOM      7  C   UNL     1       2.978   2.177  17.851  0.00  0.00    +0.000 C 
ATOM      8  C   UNL     1       1.386   4.045  17.595  0.00  0.00    +0.000 C 
ENDBRANCH   2   6
BRANCH   2   9
ATOM      9  C   UNL     1       3.690   5.773  17.794  0.00  0.00    +0.000 C 
BRANCH   9  10
ATOM     10  C   UNL     1       2.953   6.913  18.472  0.00  0.00    +0.000 A 
ATOM     11  C   UNL     1       2.466   6.856  19.783  0.00  0.00    +0.000 A 
ATOM     12  C   UNL     1       1.631   7.858  20.283  0.00  0.00    +0.000 A 
ATOM     13  C   UNL     1       1.324   8.969  19.504  0.00  0.00    +0.000 A 
ATOM     14  C   UNL     1       1.878   9.094  18.234  0.00  0.00    +0.000 A 
ATOM     15  C   UNL     1       2.684   8.074  17.721  0.00  0.00    +0.000 A 
ENDBRANCH   9  10
ENDBRANCH   2   9
ENDBRANCH   1   3
BRANCH   1  16
ATOM     16  O   UNL     1       7.109   4.828  18.299  0.00  0.00    +0.000 OA
BRANCH  16  17
ATOM     17  C   UNL     1       7.506   5.834  17.472  0.00  0.00    +0.000 C 
ATOM     18  O   UNL     1       7.413   5.793  16.248  0.00  0.00    +0.000 OA
BRANCH  17  19
ATOM     19  C   UNL     1       8.014   7.056  18.218  0.00  0.00    +0.000 C 
BRANCH  19  20
ATOM     20  S   UNL     1       7.210   8.601  17.653  0.00  0.00    +0.000 S 
BRANCH  20  21
ATOM     21  C   UNL     1       8.360   9.877  18.135  0.00  0.00    +0.000 A 
ATOM     22  C   UNL     1       8.294  11.094  17.438  0.00  0.00    +0.000 A 
ATOM     23  C   UNL     1       9.065  12.193  17.831  0.00  0.00    +0.000 A 
ATOM     24  C   UNL     1       9.911  12.077  18.937  0.00  0.00    +0.000 A 
ATOM     25  C   UNL     1       9.999  10.867  19.635  0.00  0.00    +0.000 A 
ATOM     26  C   UNL     1       9.221   9.772  19.232  0.00  0.00    +0.000 A 
BRANCH  24  27
ATOM     27  N   UNL     1      10.689  13.239  19.385  0.00  0.00    +0.000 N 
ATOM     28  O   UNL     1      10.533  14.307  18.776  0.00  0.00    +0.000 OA
ATOM     29  O   UNL     1      11.452  13.084  20.350  0.00  0.00    +0.000 OA
ENDBRANCH  24  27
ENDBRANCH  20  21
ENDBRANCH  19  20
ENDBRANCH  17  19
ENDBRANCH  16  17
ENDBRANCH   1  16
TORSDOF 10
ENDMDL
MODEL 3
REMARK VINA RESULT:      -7.4      5.430      8.617
REMARK  Name = 
REMARK  13 active torsions:
REMARK  status: ('A' for Active; 'I' for Inactive)
REMARK    1  A    between atoms: C_1  and  C_2
REMARK    2  A    between atoms: C_2  and  C_3
REMARK    3  A    between atoms: C_2  and  C_4
REMARK    4  A    between atoms: C_2  and  N_5
REMARK    5  A    between atoms: N_5  and  C_6
REMARK    6  A    between atoms: C_6  and  C_7
REMARK    7  A    between atoms: C_13  and  C_15
REMARK    8  A    between atoms: C_15  and  O_16
REMARK    9  A    between atoms: O_16  and  C_17
REMARK   10  A    between atoms: C_17  and  C_19
REMARK   11  A    between atoms: C_19  and  S_20
REMARK   12  A    between atoms: S_20  and  C_21
REMARK   13  A    between atoms: C_24  and  N_25
REMARK                            x       y       z     vdW  Elec       q    Type
REMARK                         _______ _______ _______ _____ _____    ______ ____
ROOT
ATOM      1  C   UNL     1       2.158   6.983  19.870  0.00  0.00    +0.000 C 
ENDROOT
BRANCH   1   3
ATOM      2  N   UNL     1       2.600   4.687  18.885  0.00  0.00    +0.000 N 
ATOM      3  C   UNL     1       2.008   5.451  19.909  0.00  0.00    +0.000 C 
ATOM      4  O   UNL     1       1.404   4.958  20.863  0.00  0.00    +0.000 OA
BRANCH   2   6
ATOM      5  C   UNL     1       3.377   2.516  19.949  0.00  0.00    +0.000 C 
ATOM      6  C   UNL     1       2.497   3.159  18.851  0.00  0.00    +0.000 C 
ATOM      7  C   UNL     1       2.947   2.602  17.490  0.00  0.00    +0.000 C 
ATOM      8  C   UNL     1       1.070   2.596  19.092  0.00  0.00    +0.000 C 
ENDBRANCH   2   6
BRANCH   2   9
ATOM      9  C   UNL     1       3.351   5.362  17.805  0.00  0.00    +0.000 C 
BRANCH   9  10
ATOM     10  C   UNL     1       4.859   5.450  17.945  0.00  0.00    +0.000 A 
ATOM     11  C   UNL     1       5.539   5.296  19.160  0.00  0.00    +0.000 A 
ATOM     12  C   UNL     1       6.903   5.578  19.260  0.00  0.00    +0.000 A 
ATOM     13  C   UNL     1       7.626   5.954  18.132  0.00  0.00    +0.000 A 
ATOM     14  C   UNL     1       6.991   6.017  16.896  0.00  0.00    +0.000 A 
ATOM     15  C   UNL     1       5.619   5.769  16.804  0.00  0.00    +0.000 A 
ENDBRANCH   9  10
ENDBRANCH   2   9
ENDBRANCH   1   3
BRANCH   1  16
ATOM     16  O   UNL     1       1.555   7.592  21.020  0.00  0.00    +0.000 OA
BRANCH  16  17
ATOM     17  C   UNL     1       1.171   8.888  20.862  0.00  0.00    +0.000 C 
ATOM     18  O   UNL     1       0.941   9.655  21.793  0.00  0.00    +0.000 OA
BRANCH  17  19
ATOM     19  C   UNL     1       1.123   9.324  19.407  0.00  0.00    +0.000 C 
BRANCH  19  20
ATOM     20  S   UNL     1       0.667  11.087  19.223  0.00  0.00    +0.000 S 
BRANCH  20  21
ATOM     21  C   UNL     1      -1.071  11.037  18.827  0.00  0.00    +0.000 A 
ATOM     22  C   UNL     1      -1.907  11.945  19.497  0.00  0.00    +0.000 A 
ATOM     23  C   UNL     1      -3.259  12.065  19.159  0.00  0.00    +0.000 A 
ATOM     24  C   UNL     1      -3.783  11.273  18.135  0.00  0.00    +0.000 A 
ATOM     25  C   UNL     1      -2.967  10.353  17.465  0.00  0.00    +0.000 A 
ATOM     26  C   UNL     1      -1.614  10.240  17.813  0.00  0.00    +0.000 A 
BRANCH  24  27
ATOM     27  N   UNL     1      -5.190  11.426  17.741  0.00  0.00    +0.000 N 
ATOM     28  O   UNL     1      -5.471  12.338  16.950  0.00  0.00    +0.000 OA
ATOM     29  O   UNL     1      -6.012  10.631  18.219  0.00  0.00    +0.000 OA
ENDBRANCH  24  27
ENDBRANCH  20  21
ENDBRANCH  19  20
ENDBRANCH  17  19
ENDBRANCH  16  17
ENDBRANCH   1  16
TORSDOF 10
ENDMDL
MODEL 4
REMARK VINA RESULT:      -7.2      3.318      7.839
REMARK  Name = 
REMARK  13 active torsions:
REMARK  status: ('A' for Active; 'I' for Inactive)
REMARK    1  A    between atoms: C_1  and  C_2
REMARK    2  A    between atoms: C_2  and  C_3
REMARK    3  A    between atoms: C_2  and  C_4
REMARK    4  A    between atoms: C_2  and  N_5
REMARK    5  A    between atoms: N_5  and  C_6
REMARK    6  A    between atoms: C_6  and  C_7
REMARK    7  A    between atoms: C_13  and  C_15
REMARK    8  A    between atoms: C_15  and  O_16
REMARK    9  A    between atoms: O_16  and  C_17
REMARK   10  A    between atoms: C_17  and  C_19
REMARK   11  A    between atoms: C_19  and  S_20
REMARK   12  A    between atoms: S_20  and  C_21
REMARK   13  A    between atoms: C_24  and  N_25
REMARK                            x       y       z     vdW  Elec       q    Type
REMARK                         _______ _______ _______ _____ _____    ______ ____
ROOT
ATOM      1  C   UNL     1       3.516   3.493  17.293  0.00  0.00    +0.000 C 
ENDROOT
BRANCH   1   3
ATOM      2  N   UNL     1       5.630   4.895  17.325  0.00  0.00    +0.000 N 
ATOM      3  C   UNL     1       4.820   3.945  17.975  0.00  0.00    +0.000 C 
ATOM      4  O   UNL     1       5.077   3.478  19.087  0.00  0.00    +0.000 OA
BRANCH   2   6
ATOM      5  C   UNL     1       6.812   5.575  19.467  0.00  0.00    +0.000 C 
ATOM      6  C   UNL     1       6.942   5.396  17.936  0.00  0.00    +0.000 C 
ATOM      7  C   UNL     1       7.357   6.748  17.330  0.00  0.00    +0.000 C 
ATOM      8  C   UNL     1       8.157   4.449  17.739  0.00  0.00    +0.000 C 
ENDBRANCH   2   6
BRANCH   2   9
ATOM      9  C   UNL     1       5.215   5.439  16.014  0.00  0.00    +0.000 C 
BRANCH   9  10
ATOM     10  C   UNL     1       5.876   4.867  14.774  0.00  0.00    +0.000 A 
ATOM     11  C   UNL     1       7.142   5.255  14.317  0.00  0.00    +0.000 A 
ATOM     12  C   UNL     1       7.614   4.837  13.070  0.00  0.00    +0.000 A 
ATOM     13  C   UNL     1       6.856   3.971  12.287  0.00  0.00    +0.000 A 
ATOM     14  C   UNL     1       5.640   3.496  12.766  0.00  0.00    +0.000 A 
ATOM     15  C   UNL     1       5.153   3.941  13.998  0.00  0.00    +0.000 A 
ENDBRANCH   9  10
ENDBRANCH   2   9
ENDBRANCH   1   3
BRANCH   1  16
ATOM     16  O   UNL     1       2.396   4.261  17.756  0.00  0.00    +0.000 OA
BRANCH  16  17
ATOM     17  C   UNL     1       1.508   3.587  18.537  0.00  0.00    +0.000 C 
ATOM     18  O   UNL     1       1.050   2.482  18.261  0.00  0.00    +0.000 OA
BRANCH  17  19
ATOM     19  C   UNL     1       1.187   4.308  19.836  0.00  0.00    +0.000 C 
BRANCH  19  20
ATOM     20  S   UNL     1       2.532   5.434  20.359  0.00  0.00    +0.000 S 
BRANCH  20  21
ATOM     21  C   UNL     1       1.918   7.054  19.932  0.00  0.00    +0.000 A 
ATOM     22  C   UNL     1       1.311   7.799  20.956  0.00  0.00    +0.000 A 
ATOM     23  C   UNL     1       0.918   9.125  20.747  0.00  0.00    +0.000 A 
ATOM     24  C   UNL     1       1.137   9.717  19.501  0.00  0.00    +0.000 A 
ATOM     25  C   UNL     1       1.729   8.985  18.465  0.00  0.00    +0.000 A 
ATOM     26  C   UNL     1       2.119   7.656  18.686  0.00  0.00    +0.000 A 
BRANCH  24  27
ATOM     27  N   UNL     1       0.770  11.123  19.287  0.00  0.00    +0.000 N 
ATOM     28  O   UNL     1       1.348  11.980  19.971  0.00  0.00    +0.000 OA
ATOM     29  O   UNL     1      -0.091  11.370  18.430  0.00  0.00    +0.000 OA
ENDBRANCH  24  27
ENDBRANCH  20  21
ENDBRANCH  19  20
ENDBRANCH  17  19
ENDBRANCH  16  17
ENDBRANCH   1  16
TORSDOF 10
ENDMDL
MODEL 5
REMARK VINA RESULT:      -7.2      5.183      8.682
REMARK  Name = 
REMARK  13 active torsions:
REMARK  status: ('A' for Active; 'I' for Inactive)
REMARK    1  A    between atoms: C_1  and  C_2
REMARK    2  A    between atoms: C_2  and  C_3
REMARK    3  A    between atoms: C_2  and  C_4
REMARK    4  A    between atoms: C_2  and  N_5
REMARK    5  A    between atoms: N_5  and  C_6
REMARK    6  A    between atoms: C_6  and  C_7
REMARK    7  A    between atoms: C_13  and  C_15
REMARK    8  A    between atoms: C_15  and  O_16
REMARK    9  A    between atoms: O_16  and  C_17
REMARK   10  A    between atoms: C_17  and  C_19
REMARK   11  A    between atoms: C_19  and  S_20
REMARK   12  A    between atoms: S_20  and  C_21
REMARK   13  A    between atoms: C_24  and  N_25
REMARK                            x       y       z     vdW  Elec       q    Type
REMARK                         _______ _______ _______ _____ _____    ______ ____
ROOT
ATOM      1  C   UNL     1       2.952   6.680  17.863  0.00  0.00    +0.000 C 
ENDROOT
BRANCH   1   3
ATOM      2  N   UNL     1       5.329   5.857  18.190  0.00  0.00    +0.000 N 
ATOM      3  C   UNL     1       4.422   6.599  17.410  0.00  0.00    +0.000 C 
ATOM      4  O   UNL     1       4.729   7.161  16.358  0.00  0.00    +0.000 OA
BRANCH   2   6
ATOM      5  C   UNL     1       7.655   5.257  19.015  0.00  0.00    +0.000 C 
ATOM      6  C   UNL     1       6.808   5.728  17.809  0.00  0.00    +0.000 C 
ATOM      7  C   UNL     1       7.376   7.072  17.322  0.00  0.00    +0.000 C 
ATOM      8  C   UNL     1       7.103   4.705  16.679  0.00  0.00    +0.000 C 
ENDBRANCH   2   6
BRANCH   2   9
ATOM      9  C   UNL     1       4.859   5.173  19.413  0.00  0.00    +0.000 C 
BRANCH   9  10
ATOM     10  C   UNL     1       4.002   3.933  19.240  0.00  0.00    +0.000 A 
ATOM     11  C   UNL     1       4.031   3.119  18.101  0.00  0.00    +0.000 A 
ATOM     12  C   UNL     1       3.085   2.108  17.917  0.00  0.00    +0.000 A 
ATOM     13  C   UNL     1       2.134   1.849  18.901  0.00  0.00    +0.000 A 
ATOM     14  C   UNL     1       2.151   2.580  20.083  0.00  0.00    +0.000 A 
ATOM     15  C   UNL     1       3.075   3.615  20.251  0.00  0.00    +0.000 A 
ENDBRANCH   9  10
ENDBRANCH   2   9
ENDBRANCH   1   3
BRANCH   1  16
ATOM     16  O   UNL     1       2.689   7.911  18.551  0.00  0.00    +0.000 OA
BRANCH  16  17
ATOM     17  C   UNL     1       1.941   7.800  19.682  0.00  0.00    +0.000 C 
ATOM     18  O   UNL     1       1.930   6.807  20.405  0.00  0.00    +0.000 OA
BRANCH  17  19
ATOM     19  C   UNL     1       1.163   9.063  20.011  0.00  0.00    +0.000 C 
BRANCH  19  20
ATOM     20  S   UNL     1       1.057  10.207  18.586  0.00  0.00    +0.000 S 
BRANCH  20  21
ATOM     21  C   UNL     1      -0.688  10.547  18.443  0.00  0.00    +0.000 A 
ATOM     22  C   UNL     1      -1.206  11.582  19.237  0.00  0.00    +0.000 A 
ATOM     23  C   UNL     1      -2.532  12.004  19.099  0.00  0.00    +0.000 A 
ATOM     24  C   UNL     1      -3.352  11.387  18.151  0.00  0.00    +0.000 A 
ATOM     25  C   UNL     1      -2.857  10.343  17.360  0.00  0.00    +0.000 A 
ATOM     26  C   UNL     1      -1.525   9.929  17.508  0.00  0.00    +0.000 A 
BRANCH  24  27
ATOM     27  N   UNL     1      -4.732  11.854  17.965  0.00  0.00    +0.000 N 
ATOM     28  O   UNL     1      -5.357  12.220  18.971  0.00  0.00    +0.000 OA
ATOM     29  O   UNL     1      -5.188  11.860  16.812  0.00  0.00    +0.000 OA
ENDBRANCH  24  27
ENDBRANCH  20  21
ENDBRANCH  19  20
ENDBRANCH  17  19
ENDBRANCH  16  17
ENDBRANCH   1  16
TORSDOF 10
ENDMDL
MODEL 6
REMARK VINA RESULT:      -7.2      4.179      6.304
REMARK  Name = 
REMARK  13 active torsions:
REMARK  status: ('A' for Active; 'I' for Inactive)
REMARK    1  A    between atoms: C_1  and  C_2
REMARK    2  A    between atoms: C_2  and  C_3
REMARK    3  A    between atoms: C_2  and  C_4
REMARK    4  A    between atoms: C_2  and  N_5
REMARK    5  A    between atoms: N_5  and  C_6
REMARK    6  A    between atoms: C_6  and  C_7
REMARK    7  A    between atoms: C_13  and  C_15
REMARK    8  A    between atoms: C_15  and  O_16
REMARK    9  A    between atoms: O_16  and  C_17
REMARK   10  A    between atoms: C_17  and  C_19
REMARK   11  A    between atoms: C_19  and  S_20
REMARK   12  A    between atoms: S_20  and  C_21
REMARK   13  A    between atoms: C_24  and  N_25
REMARK                            x       y       z     vdW  Elec       q    Type
REMARK                         _______ _______ _______ _____ _____    ______ ____
ROOT
ATOM      1  C   UNL     1       5.354   5.595  19.018  0.00  0.00    +0.000 C 
ENDROOT
BRANCH   1   3
ATOM      2  N   UNL     1       3.012   4.653  19.271  0.00  0.00    +0.000 N 
ATOM      3  C   UNL     1       4.271   4.566  18.647  0.00  0.00    +0.000 C 
ATOM      4  O   UNL     1       4.547   3.729  17.785  0.00  0.00    +0.000 OA
BRANCH   2   6
ATOM      5  C   UNL     1       2.404   2.212  18.923  0.00  0.00    +0.000 C 
ATOM      6  C   UNL     1       1.882   3.668  18.957  0.00  0.00    +0.000 C 
ATOM      7  C   UNL     1       1.239   3.976  17.594  0.00  0.00    +0.000 C 
ATOM      8  C   UNL     1       0.719   3.660  19.986  0.00  0.00    +0.000 C 
ENDBRANCH   2   6
BRANCH   2   9
ATOM      9  C   UNL     1       2.755   5.723  20.258  0.00  0.00    +0.000 C 
BRANCH   9  10
ATOM     10  C   UNL     1       2.287   7.067  19.732  0.00  0.00    +0.000 A 
ATOM     11  C   UNL     1       1.615   8.017  20.512  0.00  0.00    +0.000 A 
ATOM     12  C   UNL     1       1.041   9.149  19.927  0.00  0.00    +0.000 A 
ATOM     13  C   UNL     1       1.186   9.384  18.563  0.00  0.00    +0.000 A 
ATOM     14  C   UNL     1       1.934   8.504  17.788  0.00  0.00    +0.000 A 
ATOM     15  C   UNL     1       2.478   7.354  18.367  0.00  0.00    +0.000 A 
ENDBRANCH   9  10
ENDBRANCH   2   9
ENDBRANCH   1   3
BRANCH   1  16
ATOM     16  O   UNL     1       6.341   5.705  17.983  0.00  0.00    +0.000 OA
BRANCH  16  17
ATOM     17  C   UNL     1       7.634   5.611  18.396  0.00  0.00    +0.000 C 
ATOM     18  O   UNL     1       8.270   4.560  18.431  0.00  0.00    +0.000 OA
BRANCH  17  19
ATOM     19  C   UNL     1       8.250   6.955  18.746  0.00  0.00    +0.000 C 
BRANCH  19  20
ATOM     20  S   UNL     1       7.709   8.286  17.612  0.00  0.00    +0.000 S 
BRANCH  20  21
ATOM     21  C   UNL     1       8.533   9.739  18.238  0.00  0.00    +0.000 A 
ATOM     22  C   UNL     1       8.335  10.939  17.538  0.00  0.00    +0.000 A 
ATOM     23  C   UNL     1       8.836  12.151  18.027  0.00  0.00    +0.000 A 
ATOM     24  C   UNL     1       9.540  12.165  19.234  0.00  0.00    +0.000 A 
ATOM     25  C   UNL     1       9.759  10.974  19.938  0.00  0.00    +0.000 A 
ATOM     26  C   UNL     1       9.253   9.766  19.438  0.00  0.00    +0.000 A 
BRANCH  24  27
ATOM     27  N   UNL     1      10.028  13.438  19.779  0.00  0.00    +0.000 N 
ATOM     28  O   UNL     1      10.557  13.420  20.900  0.00  0.00    +0.000 OA
ATOM     29  O   UNL     1       9.888  14.454  19.083  0.00  0.00    +0.000 OA
ENDBRANCH  24  27
ENDBRANCH  20  21
ENDBRANCH  19  20
ENDBRANCH  17  19
ENDBRANCH  16  17
ENDBRANCH   1  16
TORSDOF 10
ENDMDL
MODEL 7
REMARK VINA RESULT:      -7.2      5.473      8.749
REMARK  Name = 
REMARK  13 active torsions:
REMARK  status: ('A' for Active; 'I' for Inactive)
REMARK    1  A    between atoms: C_1  and  C_2
REMARK    2  A    between atoms: C_2  and  C_3
REMARK    3  A    between atoms: C_2  and  C_4
REMARK    4  A    between atoms: C_2  and  N_5
REMARK    5  A    between atoms: N_5  and  C_6
REMARK    6  A    between atoms: C_6  and  C_7
REMARK    7  A    between atoms: C_13  and  C_15
REMARK    8  A    between atoms: C_15  and  O_16
REMARK    9  A    between atoms: O_16  and  C_17
REMARK   10  A    between atoms: C_17  and  C_19
REMARK   11  A    between atoms: C_19  and  S_20
REMARK   12  A    between atoms: S_20  and  C_21
REMARK   13  A    between atoms: C_24  and  N_25
REMARK                            x       y       z     vdW  Elec       q    Type
REMARK                         _______ _______ _______ _____ _____    ______ ____
ROOT
ATOM      1  C   UNL     1       2.650   7.045  19.614  0.00  0.00    +0.000 C 
ENDROOT
BRANCH   1   3
ATOM      2  N   UNL     1       2.759   4.614  18.897  0.00  0.00    +0.000 N 
ATOM      3  C   UNL     1       2.476   5.544  19.915  0.00  0.00    +0.000 C 
ATOM      4  O   UNL     1       2.132   5.224  21.054  0.00  0.00    +0.000 OA
BRANCH   2   6
ATOM      5  C   UNL     1       2.814   2.327  17.793  0.00  0.00    +0.000 C 
ATOM      6  C   UNL     1       2.611   3.104  19.116  0.00  0.00    +0.000 C 
ATOM      7  C   UNL     1       1.218   2.757  19.666  0.00  0.00    +0.000 C 
ATOM      8  C   UNL     1       3.630   2.486  20.111  0.00  0.00    +0.000 C 
ENDBRANCH   2   6
BRANCH   2   9
ATOM      9  C   UNL     1       3.217   5.088  17.574  0.00  0.00    +0.000 C 
BRANCH   9  10
ATOM     10  C   UNL     1       4.705   5.034  17.284  0.00  0.00    +0.000 A 
ATOM     11  C   UNL     1       5.243   4.851  16.004  0.00  0.00    +0.000 A 
ATOM     12  C   UNL     1       6.608   4.617  15.826  0.00  0.00    +0.000 A 
ATOM     13  C   UNL     1       7.471   4.629  16.918  0.00  0.00    +0.000 A 
ATOM     14  C   UNL     1       6.972   4.909  18.186  0.00  0.00    +0.000 A 
ATOM     15  C   UNL     1       5.600   5.107  18.368  0.00  0.00    +0.000 A 
ENDBRANCH   9  10
ENDBRANCH   2   9
ENDBRANCH   1   3
BRANCH   1  16
ATOM     16  O   UNL     1       1.392   7.731  19.663  0.00  0.00    +0.000 OA
BRANCH  16  17
ATOM     17  C   UNL     1       1.245   8.610  20.692  0.00  0.00    +0.000 C 
ATOM     18  O   UNL     1       1.576   8.374  21.851  0.00  0.00    +0.000 OA
BRANCH  17  19
ATOM     19  C   UNL     1       0.692   9.956  20.255  0.00  0.00    +0.000 C 
BRANCH  19  20
ATOM     20  S   UNL     1       0.408  10.039  18.448  0.00  0.00    +0.000 S 
BRANCH  20  21
ATOM     21  C   UNL     1      -1.324  10.443  18.309  0.00  0.00    +0.000 A 
ATOM     22  C   UNL     1      -1.815  11.453  19.151  0.00  0.00    +0.000 A 
ATOM     23  C   UNL     1      -3.126  11.924  19.024  0.00  0.00    +0.000 A 
ATOM     24  C   UNL     1      -3.956  11.383  18.039  0.00  0.00    +0.000 A 
ATOM     25  C   UNL     1      -3.487  10.366  17.200  0.00  0.00    +0.000 A 
ATOM     26  C   UNL     1      -2.171   9.901  17.337  0.00  0.00    +0.000 A 
BRANCH  24  27
ATOM     27  N   UNL     1      -5.319  11.905  17.866  0.00  0.00    +0.000 N 
ATOM     28  O   UNL     1      -5.578  12.500  16.811  0.00  0.00    +0.000 OA
ATOM     29  O   UNL     1      -6.130  11.713  18.784  0.00  0.00    +0.000 OA
ENDBRANCH  24  27
ENDBRANCH  20  21
ENDBRANCH  19  20
ENDBRANCH  17  19
ENDBRANCH  16  17
ENDBRANCH   1  16
TORSDOF 10
ENDMDL
MODEL 8
REMARK VINA RESULT:      -7.2      5.272      8.781
REMARK  Name = 
REMARK  13 active torsions:
REMARK  status: ('A' for Active; 'I' for Inactive)
REMARK    1  A    between atoms: C_1  and  C_2
REMARK    2  A    between atoms: C_2  and  C_3
REMARK    3  A    between atoms: C_2  and  C_4
REMARK    4  A    between atoms: C_2  and  N_5
REMARK    5  A    between atoms: N_5  and  C_6
REMARK    6  A    between atoms: C_6  and  C_7
REMARK    7  A    between atoms: C_13  and  C_15
REMARK    8  A    between atoms: C_15  and  O_16
REMARK    9  A    between atoms: O_16  and  C_17
REMARK   10  A    between atoms: C_17  and  C_19
REMARK   11  A    between atoms: C_19  and  S_20
REMARK   12  A    between atoms: S_20  and  C_21
REMARK   13  A    between atoms: C_24  and  N_25
REMARK                            x       y       z     vdW  Elec       q    Type
REMARK                         _______ _______ _______ _____ _____    ______ ____
ROOT
ATOM      1  C   UNL     1       2.882   6.639  18.874  0.00  0.00    +0.000 C 
ENDROOT
BRANCH   1   3
ATOM      2  N   UNL     1       5.111   5.703  18.105  0.00  0.00    +0.000 N 
ATOM      3  C   UNL     1       4.090   6.654  17.919  0.00  0.00    +0.000 C 
ATOM      4  O   UNL     1       4.087   7.480  17.004  0.00  0.00    +0.000 OA
BRANCH   2   6
ATOM      5  C   UNL     1       7.300   4.510  17.621  0.00  0.00    +0.000 C 
ATOM      6  C   UNL     1       6.345   5.651  17.198  0.00  0.00    +0.000 C 
ATOM      7  C   UNL     1       7.128   6.973  17.249  0.00  0.00    +0.000 C 
ATOM      8  C   UNL     1       6.041   5.392  15.697  0.00  0.00    +0.000 C 
ENDBRANCH   2   6
BRANCH   2   9
ATOM      9  C   UNL     1       5.004   4.715  19.200  0.00  0.00    +0.000 C 
BRANCH   9  10
ATOM     10  C   UNL     1       3.937   3.644  19.079  0.00  0.00    +0.000 A 
ATOM     11  C   UNL     1       3.659   2.951  17.894  0.00  0.00    +0.000 A 
ATOM     12  C   UNL     1       2.542   2.118  17.794  0.00  0.00    +0.000 A 
ATOM     13  C   UNL     1       1.721   1.911  18.898  0.00  0.00    +0.000 A 
ATOM     14  C   UNL     1       2.036   2.511  20.113  0.00  0.00    +0.000 A 
ATOM     15  C   UNL     1       3.133   3.372  20.202  0.00  0.00    +0.000 A 
ENDBRANCH   9  10
ENDBRANCH   2   9
ENDBRANCH   1   3
BRANCH   1  16
ATOM     16  O   UNL     1       2.369   7.962  19.080  0.00  0.00    +0.000 OA
BRANCH  16  17
ATOM     17  C   UNL     1       1.540   8.108  20.150  0.00  0.00    +0.000 C 
ATOM     18  O   UNL     1       1.440   7.289  21.059  0.00  0.00    +0.000 OA
BRANCH  17  19
ATOM     19  C   UNL     1       0.792   9.431  20.151  0.00  0.00    +0.000 C 
BRANCH  19  20
ATOM     20  S   UNL     1       0.752  10.211  18.495  0.00  0.00    +0.000 S 
BRANCH  20  21
ATOM     21  C   UNL     1      -0.945  10.728  18.311  0.00  0.00    +0.000 A 
ATOM     22  C   UNL     1      -1.709  10.079  17.329  0.00  0.00    +0.000 A 
ATOM     23  C   UNL     1      -3.080  10.328  17.199  0.00  0.00    +0.000 A 
ATOM     24  C   UNL     1      -3.697  11.233  18.066  0.00  0.00    +0.000 A 
ATOM     25  C   UNL     1      -2.947  11.900  19.042  0.00  0.00    +0.000 A 
ATOM     26  C   UNL     1      -1.574  11.643  19.162  0.00  0.00    +0.000 A 
BRANCH  24  27
ATOM     27  N   UNL     1      -5.144  11.465  17.969  0.00  0.00    +0.000 N 
ATOM     28  O   UNL     1      -5.568  12.050  16.961  0.00  0.00    +0.000 OA
ATOM     29  O   UNL     1      -5.857  11.057  18.897  0.00  0.00    +0.000 OA
ENDBRANCH  24  27
ENDBRANCH  20  21
ENDBRANCH  19  20
ENDBRANCH  17  19
ENDBRANCH  16  17
ENDBRANCH   1  16
TORSDOF 10
ENDMDL
MODEL 9
REMARK VINA RESULT:      -7.2      5.396      8.668
REMARK  Name = 
REMARK  13 active torsions:
REMARK  status: ('A' for Active; 'I' for Inactive)
REMARK    1  A    between atoms: C_1  and  C_2
REMARK    2  A    between atoms: C_2  and  C_3
REMARK    3  A    between atoms: C_2  and  C_4
REMARK    4  A    between atoms: C_2  and  N_5
REMARK    5  A    between atoms: N_5  and  C_6
REMARK    6  A    between atoms: C_6  and  C_7
REMARK    7  A    between atoms: C_13  and  C_15
REMARK    8  A    between atoms: C_15  and  O_16
REMARK    9  A    between atoms: O_16  and  C_17
REMARK   10  A    between atoms: C_17  and  C_19
REMARK   11  A    between atoms: C_19  and  S_20
REMARK   12  A    between atoms: S_20  and  C_21
REMARK   13  A    between atoms: C_24  and  N_25
REMARK                            x       y       z     vdW  Elec       q    Type
REMARK                         _______ _______ _______ _____ _____    ______ ____
ROOT
ATOM      1  C   UNL     1       2.530   7.198  19.114  0.00  0.00    +0.000 C 
ENDROOT
BRANCH   1   3
ATOM      2  N   UNL     1       2.519   4.673  18.874  0.00  0.00    +0.000 N 
ATOM      3  C   UNL     1       2.224   5.796  19.671  0.00  0.00    +0.000 C 
ATOM      4  O   UNL     1       1.767   5.720  20.812  0.00  0.00    +0.000 OA
BRANCH   2   6
ATOM      5  C   UNL     1       2.449   2.222  18.211  0.00  0.00    +0.000 C 
ATOM      6  C   UNL     1       2.244   3.244  19.355  0.00  0.00    +0.000 C 
ATOM      7  C   UNL     1       0.803   3.099  19.872  0.00  0.00    +0.000 C 
ATOM      8  C   UNL     1       3.163   2.755  20.507  0.00  0.00    +0.000 C 
ENDBRANCH   2   6
BRANCH   2   9
ATOM      9  C   UNL     1       3.115   4.859  17.534  0.00  0.00    +0.000 C 
BRANCH   9  10
ATOM     10  C   UNL     1       4.613   4.666  17.398  0.00  0.00    +0.000 A 
ATOM     11  C   UNL     1       5.529   4.926  18.425  0.00  0.00    +0.000 A 
ATOM     12  C   UNL     1       6.904   4.915  18.180  0.00  0.00    +0.000 A 
ATOM     13  C   UNL     1       7.390   4.578  16.921  0.00  0.00    +0.000 A 
ATOM     14  C   UNL     1       6.501   4.220  15.913  0.00  0.00    +0.000 A 
ATOM     15  C   UNL     1       5.124   4.265  16.148  0.00  0.00    +0.000 A 
ENDBRANCH   9  10
ENDBRANCH   2   9
ENDBRANCH   1   3
BRANCH   1  16
ATOM     16  O   UNL     1       1.795   8.207  19.820  0.00  0.00    +0.000 OA
BRANCH  16  17
ATOM     17  C   UNL     1       1.368   9.256  19.064  0.00  0.00    +0.000 C 
ATOM     18  O   UNL     1       1.386   9.271  17.837  0.00  0.00    +0.000 OA
BRANCH  17  19
ATOM     19  C   UNL     1       0.793  10.393  19.892  0.00  0.00    +0.000 C 
BRANCH  19  20
ATOM     20  S   UNL     1      -0.257  11.516  18.897  0.00  0.00    +0.000 S 
BRANCH  20  21
ATOM     21  C   UNL     1       0.781  12.942  18.631  0.00  0.00    +0.000 A 
ATOM     22  C   UNL     1       0.223  14.201  18.905  0.00  0.00    +0.000 A 
ATOM     23  C   UNL     1       1.000  15.363  18.848  0.00  0.00    +0.000 A 
ATOM     24  C   UNL     1       2.354  15.266  18.517  0.00  0.00    +0.000 A 
ATOM     25  C   UNL     1       2.924  14.021  18.227  0.00  0.00    +0.000 A 
ATOM     26  C   UNL     1       2.135  12.863  18.287  0.00  0.00    +0.000 A 
BRANCH  24  27
ATOM     27  N   UNL     1       3.189  16.475  18.502  0.00  0.00    +0.000 N 
ATOM     28  O   UNL     1       3.866  16.721  19.511  0.00  0.00    +0.000 OA
ATOM     29  O   UNL     1       3.172  17.173  17.478  0.00  0.00    +0.000 OA
ENDBRANCH  24  27
ENDBRANCH  20  21
ENDBRANCH  19  20
ENDBRANCH  17  19
ENDBRANCH  16  17
ENDBRANCH   1  16
TORSDOF 10
ENDMDL
