MODEL 1
REMARK VINA RESULT:      -7.2      0.000      0.000
REMARK  Name = 
REMARK  5 active torsions:
REMARK  status: ('A' for Active; 'I' for Inactive)
REMARK    1  A    between atoms: C_1  and  C_2
REMARK    2  A    between atoms: C_2  and  C_3
REMARK    3  A    between atoms: C_3  and  O_4
REMARK    4  A    between atoms: O_4  and  C_5
REMARK    5  A    between atoms: C_19  and  C_20
REMARK                            x       y       z     vdW  Elec       q    Type
REMARK                         _______ _______ _______ _____ _____    ______ ____
ROOT
ATOM      1  C   UNL     1      -1.032  11.573  22.060  0.00  0.00    +0.000 A 
ATOM      2  C   UNL     1      -1.151  10.641  23.089  0.00  0.00    +0.000 A 
ATOM      3  C   UNL     1      -0.552   9.382  22.970  0.00  0.00    +0.000 A 
ATOM      4  C   UNL     1       0.165   9.045  21.817  0.00  0.00    +0.000 A 
ATOM      5  C   UNL     1       0.298   9.965  20.781  0.00  0.00    +0.000 A 
ATOM      6  C   UNL     1      -0.295  11.233  20.926  0.00  0.00    +0.000 A 
ATOM      7  C   UNL     1       1.057   9.618  19.517  0.00  0.00    +0.000 C 
ATOM      8  C   UNL     1       0.141   9.739  18.277  0.00  0.00    +0.000 C 
ATOM      9  O   UNL     1       0.750  10.733  17.453  0.00  0.00    +0.000 OA
ATOM     10  C   UNL     1       1.845  11.136  18.128  0.00  0.00    +0.000 C 
ATOM     11  N   UNL     1       2.548  12.090  17.488  0.00  0.00    +0.000 N 
ATOM     12  N   UNL     1       2.119  10.631  19.275  0.00  0.00    +0.000 NA
ATOM     13  C   UNL     1       1.684   8.240  19.597  0.00  0.00    +0.000 A 
ATOM     14  C   UNL     1       2.501   7.760  18.549  0.00  0.00    +0.000 A 
ATOM     15  C   UNL     1       3.114   6.494  18.586  0.00  0.00    +0.000 A 
ATOM     16  C   UNL     1       2.873   5.707  19.723  0.00  0.00    +0.000 A 
ATOM     17  C   UNL     1       2.061   6.163  20.766  0.00  0.00    +0.000 A 
ATOM     18  C   UNL     1       1.472   7.426  20.705  0.00  0.00    +0.000 A 
ATOM     19  O   UNL     1       0.702   7.783  21.783  0.00  0.00    +0.000 OA
ATOM     20  H   UNL     1       2.028  12.635  16.814  0.00  0.00    +0.000 HD
ATOM     21  H   UNL     1       3.171  12.618  18.089  0.00  0.00    +0.000 HD
ENDROOT
BRANCH  15  22
ATOM     22  C   UNL     1       3.965   6.032  17.477  0.00  0.00    +0.000 A 
ATOM     23  C   UNL     1       4.683   6.889  16.653  0.00  0.00    +0.000 A 
ATOM     24  N   UNL     1       5.460   6.503  15.614  0.00  0.00    +0.000 NA
ATOM     25  C   UNL     1       5.521   5.183  15.403  0.00  0.00    +0.000 A 
ATOM     26  N   UNL     1       4.888   4.243  16.116  0.00  0.00    +0.000 NA
ATOM     27  C   UNL     1       4.123   4.699  17.135  0.00  0.00    +0.000 A 
ENDBRANCH  15  22
BRANCH   1  28
ATOM     28  O   UNL     1      -1.666  12.775  22.250  0.00  0.00    +0.000 OA
BRANCH  28  29
ATOM     29  C   UNL     1      -1.989  13.080  23.609  0.00  0.00    +0.000 C 
BRANCH  29  31
ATOM     30  C   UNL     1      -4.224  12.560  24.594  0.00  0.00    +0.000 C 
ATOM     31  C   UNL     1      -3.439  13.526  23.720  0.00  0.00    +0.000 C 
ENDBRANCH  29  31
ENDBRANCH  28  29
ENDBRANCH   1  28
TORSDOF 4
ENDMDL
MODEL 2
REMARK VINA RESULT:      -7.2      3.063      8.823
REMARK  Name = 
REMARK  5 active torsions:
REMARK  status: ('A' for Active; 'I' for Inactive)
REMARK    1  A    between atoms: C_1  and  C_2
REMARK    2  A    between atoms: C_2  and  C_3
REMARK    3  A    between atoms: C_3  and  O_4
REMARK    4  A    between atoms: O_4  and  C_5
REMARK    5  A    between atoms: C_19  and  C_20
REMARK                            x       y       z     vdW  Elec       q    Type
REMARK                         _______ _______ _______ _____ _____    ______ ____
ROOT
ATOM      1  C   UNL     1       2.033   8.246  18.568  0.00  0.00    +0.000 A 
ATOM      2  C   UNL     1       2.245   7.581  19.774  0.00  0.00    +0.000 A 
ATOM      3  C   UNL     1       1.601   8.014  20.938  0.00  0.00    +0.000 A 
ATOM      4  C   UNL     1       0.746   9.121  20.904  0.00  0.00    +0.000 A 
ATOM      5  C   UNL     1       0.519   9.794  19.707  0.00  0.00    +0.000 A 
ATOM      6  C   UNL     1       1.160   9.333  18.543  0.00  0.00    +0.000 A 
ATOM      7  C   UNL     1      -0.392  11.004  19.648  0.00  0.00    +0.000 C 
ATOM      8  C   UNL     1       0.377  12.244  19.136  0.00  0.00    +0.000 C 
ATOM      9  O   UNL     1      -0.296  12.638  17.940  0.00  0.00    +0.000 OA
ATOM     10  C   UNL     1      -1.293  11.746  17.779  0.00  0.00    +0.000 C 
ATOM     11  N   UNL     1      -2.038  11.966  16.680  0.00  0.00    +0.000 N 
ATOM     12  N   UNL     1      -1.446  10.789  18.621  0.00  0.00    +0.000 NA
ATOM     13  C   UNL     1      -1.044  11.284  20.988  0.00  0.00    +0.000 A 
ATOM     14  C   UNL     1      -1.991  12.323  21.124  0.00  0.00    +0.000 A 
ATOM     15  C   UNL     1      -2.630  12.611  22.344  0.00  0.00    +0.000 A 
ATOM     16  C   UNL     1      -2.281  11.813  23.445  0.00  0.00    +0.000 A 
ATOM     17  C   UNL     1      -1.341  10.784  23.330  0.00  0.00    +0.000 A 
ATOM     18  C   UNL     1      -0.727  10.518  22.106  0.00  0.00    +0.000 A 
ATOM     19  O   UNL     1       0.172   9.483  22.097  0.00  0.00    +0.000 OA
ATOM     20  H   UNL     1      -1.585  12.494  15.946  0.00  0.00    +0.000 HD
ATOM     21  H   UNL     1      -2.572  11.162  16.373  0.00  0.00    +0.000 HD
ENDROOT
BRANCH  15  22
ATOM     22  C   UNL     1      -3.617  13.699  22.443  0.00  0.00    +0.000 A 
ATOM     23  C   UNL     1      -3.756  14.508  23.563  0.00  0.00    +0.000 A 
ATOM     24  N   UNL     1      -4.663  15.505  23.697  0.00  0.00    +0.000 NA
ATOM     25  C   UNL     1      -5.463  15.698  22.642  0.00  0.00    +0.000 A 
ATOM     26  N   UNL     1      -5.440  15.000  21.499  0.00  0.00    +0.000 NA
ATOM     27  C   UNL     1      -4.514  14.015  21.435  0.00  0.00    +0.000 A 
ENDBRANCH  15  22
BRANCH   1  28
ATOM     28  O   UNL     1       2.719   7.768  17.480  0.00  0.00    +0.000 OA
BRANCH  28  29
ATOM     29  C   UNL     1       3.623   6.696  17.759  0.00  0.00    +0.000 C 
BRANCH  29  31
ATOM     30  C   UNL     1       5.220   5.948  15.992  0.00  0.00    +0.000 C 
ATOM     31  C   UNL     1       4.970   6.956  17.102  0.00  0.00    +0.000 C 
ENDBRANCH  29  31
ENDBRANCH  28  29
ENDBRANCH   1  28
TORSDOF 4
ENDMDL
MODEL 3
REMARK VINA RESULT:      -7.2      0.556      1.078
REMARK  Name = 
REMARK  5 active torsions:
REMARK  status: ('A' for Active; 'I' for Inactive)
REMARK    1  A    between atoms: C_1  and  C_2
REMARK    2  A    between atoms: C_2  and  C_3
REMARK    3  A    between atoms: C_3  and  O_4
REMARK    4  A    between atoms: O_4  and  C_5
REMARK    5  A    between atoms: C_19  and  C_20
REMARK                            x       y       z     vdW  Elec       q    Type
REMARK                         _______ _______ _______ _____ _____    ______ ____
ROOT
ATOM      1  C   UNL     1      -1.027  11.600  22.142  0.00  0.00    +0.000 A 
ATOM      2  C   UNL     1      -1.137  10.657  23.161  0.00  0.00    +0.000 A 
ATOM      3  C   UNL     1      -0.539   9.399  23.023  0.00  0.00    +0.000 A 
ATOM      4  C   UNL     1       0.165   9.073  21.859  0.00  0.00    +0.000 A 
ATOM      5  C   UNL     1       0.288  10.004  20.832  0.00  0.00    +0.000 A 
ATOM      6  C   UNL     1      -0.303  11.271  20.996  0.00  0.00    +0.000 A 
ATOM      7  C   UNL     1       1.033   9.670  19.555  0.00  0.00    +0.000 C 
ATOM      8  C   UNL     1       0.104   9.805  18.327  0.00  0.00    +0.000 C 
ATOM      9  O   UNL     1       0.705  10.807  17.507  0.00  0.00    +0.000 OA
ATOM     10  C   UNL     1       1.808  11.202  18.174  0.00  0.00    +0.000 C 
ATOM     11  N   UNL     1       2.505  12.162  17.538  0.00  0.00    +0.000 N 
ATOM     12  N   UNL     1       2.094  10.684  19.314  0.00  0.00    +0.000 NA
ATOM     13  C   UNL     1       1.660   8.291  19.614  0.00  0.00    +0.000 A 
ATOM     14  C   UNL     1       2.466   7.822  18.553  0.00  0.00    +0.000 A 
ATOM     15  C   UNL     1       3.077   6.554  18.570  0.00  0.00    +0.000 A 
ATOM     16  C   UNL     1       2.848   5.756  19.701  0.00  0.00    +0.000 A 
ATOM     17  C   UNL     1       2.048   6.201  20.758  0.00  0.00    +0.000 A 
ATOM     18  C   UNL     1       1.459   7.465  20.716  0.00  0.00    +0.000 A 
ATOM     19  O   UNL     1       0.701   7.811  21.806  0.00  0.00    +0.000 OA
ATOM     20  H   UNL     1       1.978  12.715  16.875  0.00  0.00    +0.000 HD
ATOM     21  H   UNL     1       3.134  12.683  18.137  0.00  0.00    +0.000 HD
ENDROOT
BRANCH  15  22
ATOM     22  C   UNL     1       3.916   6.104  17.447  0.00  0.00    +0.000 A 
ATOM     23  C   UNL     1       4.076   4.770  17.096  0.00  0.00    +0.000 A 
ATOM     24  N   UNL     1       4.853   4.318  16.083  0.00  0.00    +0.000 NA
ATOM     25  C   UNL     1       5.491   5.263  15.383  0.00  0.00    +0.000 A 
ATOM     26  N   UNL     1       5.428   6.582  15.604  0.00  0.00    +0.000 NA
ATOM     27  C   UNL     1       4.640   6.964  16.636  0.00  0.00    +0.000 A 
ENDBRANCH  15  22
BRANCH   1  28
ATOM     28  O   UNL     1      -1.658  12.800  22.351  0.00  0.00    +0.000 OA
BRANCH  28  29
ATOM     29  C   UNL     1      -2.769  12.749  23.251  0.00  0.00    +0.000 C 
BRANCH  29  31
ATOM     30  C   UNL     1      -4.623  12.722  21.579  0.00  0.00    +0.000 C 
ATOM     31  C   UNL     1      -3.947  13.524  22.680  0.00  0.00    +0.000 C 
ENDBRANCH  29  31
ENDBRANCH  28  29
ENDBRANCH   1  28
TORSDOF 4
ENDMDL
MODEL 4
REMARK VINA RESULT:      -7.1      3.518      9.030
REMARK  Name = 
REMARK  5 active torsions:
REMARK  status: ('A' for Active; 'I' for Inactive)
REMARK    1  A    between atoms: C_1  and  C_2
REMARK    2  A    between atoms: C_2  and  C_3
REMARK    3  A    between atoms: C_3  and  O_4
REMARK    4  A    between atoms: O_4  and  C_5
REMARK    5  A    between atoms: C_19  and  C_20
REMARK                            x       y       z     vdW  Elec       q    Type
REMARK                         _______ _______ _______ _____ _____    ______ ____
ROOT
ATOM      1  C   UNL     1       1.423   8.586  19.743  0.00  0.00    +0.000 A 
ATOM      2  C   UNL     1       1.472   8.178  21.074  0.00  0.00    +0.000 A 
ATOM      3  C   UNL     1       0.710   8.842  22.042  0.00  0.00    +0.000 A 
ATOM      4  C   UNL     1      -0.100   9.925  21.684  0.00  0.00    +0.000 A 
ATOM      5  C   UNL     1      -0.163  10.344  20.359  0.00  0.00    +0.000 A 
ATOM      6  C   UNL     1       0.594   9.652  19.397  0.00  0.00    +0.000 A 
ATOM      7  C   UNL     1      -1.022  11.524  19.950  0.00  0.00    +0.000 C 
ATOM      8  C   UNL     1      -0.160  12.629  19.297  0.00  0.00    +0.000 C 
ATOM      9  O   UNL     1      -0.675  12.778  17.974  0.00  0.00    +0.000 OA
ATOM     10  C   UNL     1      -1.675  11.879  17.875  0.00  0.00    +0.000 C 
ATOM     11  N   UNL     1      -2.279  11.879  16.672  0.00  0.00    +0.000 N 
ATOM     12  N   UNL     1      -1.956  11.113  18.867  0.00  0.00    +0.000 NA
ATOM     13  C   UNL     1      -1.818  12.073  21.118  0.00  0.00    +0.000 A 
ATOM     14  C   UNL     1      -2.740  13.126  20.927  0.00  0.00    +0.000 A 
ATOM     15  C   UNL     1      -3.508  13.659  21.979  0.00  0.00    +0.000 A 
ATOM     16  C   UNL     1      -3.316  13.098  23.251  0.00  0.00    +0.000 A 
ATOM     17  C   UNL     1      -2.402  12.060  23.459  0.00  0.00    +0.000 A 
ATOM     18  C   UNL     1      -1.658  11.547  22.396  0.00  0.00    +0.000 A 
ATOM     19  O   UNL     1      -0.797  10.525  22.703  0.00  0.00    +0.000 OA
ATOM     20  H   UNL     1      -1.727  12.243  15.908  0.00  0.00    +0.000 HD
ATOM     21  H   UNL     1      -2.798  11.033  16.470  0.00  0.00    +0.000 HD
ENDROOT
BRANCH  15  22
ATOM     22  C   UNL     1      -4.465  14.752  21.739  0.00  0.00    +0.000 A 
ATOM     23  C   UNL     1      -4.533  15.897  22.521  0.00  0.00    +0.000 A 
ATOM     24  N   UNL     1      -5.411  16.913  22.342  0.00  0.00    +0.000 NA
ATOM     25  C   UNL     1      -6.255  16.768  21.314  0.00  0.00    +0.000 A 
ATOM     26  N   UNL     1      -6.301  15.724  20.477  0.00  0.00    +0.000 NA
ATOM     27  C   UNL     1      -5.402  14.742  20.717  0.00  0.00    +0.000 A 
ENDBRANCH  15  22
BRANCH   1  28
ATOM     28  O   UNL     1       2.216   7.893  18.863  0.00  0.00    +0.000 OA
BRANCH  28  29
ATOM     29  C   UNL     1       2.655   6.613  19.326  0.00  0.00    +0.000 C 
BRANCH  29  31
ATOM     30  C   UNL     1       1.830   4.769  17.858  0.00  0.00    +0.000 C 
ATOM     31  C   UNL     1       2.989   5.711  18.147  0.00  0.00    +0.000 C 
ENDBRANCH  29  31
ENDBRANCH  28  29
ENDBRANCH   1  28
TORSDOF 4
ENDMDL
MODEL 5
REMARK VINA RESULT:      -7.1      3.384      8.970
REMARK  Name = 
REMARK  5 active torsions:
REMARK  status: ('A' for Active; 'I' for Inactive)
REMARK    1  A    between atoms: C_1  and  C_2
REMARK    2  A    between atoms: C_2  and  C_3
REMARK    3  A    between atoms: C_3  and  O_4
REMARK    4  A    between atoms: O_4  and  C_5
REMARK    5  A    between atoms: C_19  and  C_20
REMARK                            x       y       z     vdW  Elec       q    Type
REMARK                         _______ _______ _______ _____ _____    ______ ____
ROOT
ATOM      1  C   UNL     1       1.669   8.544  19.201  0.00  0.00    +0.000 A 
ATOM      2  C   UNL     1       1.834   8.034  20.487  0.00  0.00    +0.000 A 
ATOM      3  C   UNL     1       1.116   8.580  21.557  0.00  0.00    +0.000 A 
ATOM      4  C   UNL     1       0.235   9.647  21.348  0.00  0.00    +0.000 A 
ATOM      5  C   UNL     1       0.056  10.166  20.069  0.00  0.00    +0.000 A 
ATOM      6  C   UNL     1       0.770   9.592  19.002  0.00  0.00    +0.000 A 
ATOM      7  C   UNL     1      -0.883  11.330  19.820  0.00  0.00    +0.000 C 
ATOM      8  C   UNL     1      -0.121  12.526  19.202  0.00  0.00    +0.000 C 
ATOM      9  O   UNL     1      -0.738  12.753  17.935  0.00  0.00    +0.000 OA
ATOM     10  C   UNL     1      -1.701  11.816  17.832  0.00  0.00    +0.000 C 
ATOM     11  N   UNL     1      -2.392  11.881  16.679  0.00  0.00    +0.000 N 
ATOM     12  N   UNL     1      -1.874  10.961  18.774  0.00  0.00    +0.000 NA
ATOM     13  C   UNL     1      -1.613  11.745  21.082  0.00  0.00    +0.000 A 
ATOM     14  C   UNL     1      -2.593  12.762  21.044  0.00  0.00    +0.000 A 
ATOM     15  C   UNL     1      -3.304  13.170  22.187  0.00  0.00    +0.000 A 
ATOM     16  C   UNL     1      -2.995  12.520  23.392  0.00  0.00    +0.000 A 
ATOM     17  C   UNL     1      -2.022  11.516  23.449  0.00  0.00    +0.000 A 
ATOM     18  C   UNL     1      -1.337  11.127  22.298  0.00  0.00    +0.000 A 
ATOM     19  O   UNL     1      -0.411  10.128  22.458  0.00  0.00    +0.000 OA
ATOM     20  H   UNL     1      -1.913  12.332  15.911  0.00  0.00    +0.000 HD
ATOM     21  H   UNL     1      -2.886  11.029  16.444  0.00  0.00    +0.000 HD
ENDROOT
BRANCH  15  22
ATOM     22  C   UNL     1      -4.324  14.229  22.106  0.00  0.00    +0.000 A 
ATOM     23  C   UNL     1      -4.856  14.691  20.909  0.00  0.00    +0.000 A 
ATOM     24  N   UNL     1      -5.780  15.675  20.795  0.00  0.00    +0.000 NA
ATOM     25  C   UNL     1      -6.193  16.211  21.949  0.00  0.00    +0.000 A 
ATOM     26  N   UNL     1      -5.773  15.864  23.172  0.00  0.00    +0.000 NA
ATOM     27  C   UNL     1      -4.844  14.881  23.213  0.00  0.00    +0.000 A 
ENDBRANCH  15  22
BRANCH   1  28
ATOM     28  O   UNL     1       2.425   7.964  18.213  0.00  0.00    +0.000 OA
BRANCH  28  29
ATOM     29  C   UNL     1       2.573   6.545  18.321  0.00  0.00    +0.000 C 
BRANCH  29  31
ATOM     30  C   UNL     1       4.614   5.361  19.138  0.00  0.00    +0.000 C 
ATOM     31  C   UNL     1       3.999   6.136  17.983  0.00  0.00    +0.000 C 
ENDBRANCH  29  31
ENDBRANCH  28  29
ENDBRANCH   1  28
TORSDOF 4
ENDMDL
MODEL 6
REMARK VINA RESULT:      -7.1      0.992      1.085
REMARK  Name = 
REMARK  5 active torsions:
REMARK  status: ('A' for Active; 'I' for Inactive)
REMARK    1  A    between atoms: C_1  and  C_2
REMARK    2  A    between atoms: C_2  and  C_3
REMARK    3  A    between atoms: C_3  and  O_4
REMARK    4  A    between atoms: O_4  and  C_5
REMARK    5  A    between atoms: C_19  and  C_20
REMARK                            x       y       z     vdW  Elec       q    Type
REMARK                         _______ _______ _______ _____ _____    ______ ____
ROOT
ATOM      1  C   UNL     1      -1.035  11.624  22.090  0.00  0.00    +0.000 A 
ATOM      2  C   UNL     1      -1.168  10.683  23.108  0.00  0.00    +0.000 A 
ATOM      3  C   UNL     1      -0.576   9.421  22.981  0.00  0.00    +0.000 A 
ATOM      4  C   UNL     1       0.145   9.090  21.830  0.00  0.00    +0.000 A 
ATOM      5  C   UNL     1       0.292  10.019  20.804  0.00  0.00    +0.000 A 
ATOM      6  C   UNL     1      -0.293  11.289  20.957  0.00  0.00    +0.000 A 
ATOM      7  C   UNL     1       1.057   9.679  19.541  0.00  0.00    +0.000 C 
ATOM      8  C   UNL     1       0.150   9.818  18.296  0.00  0.00    +0.000 C 
ATOM      9  O   UNL     1       0.772  10.816  17.486  0.00  0.00    +0.000 OA
ATOM     10  C   UNL     1       1.865  11.205  18.172  0.00  0.00    +0.000 C 
ATOM     11  N   UNL     1       2.579  12.159  17.547  0.00  0.00    +0.000 N 
ATOM     12  N   UNL     1       2.128  10.686  19.316  0.00  0.00    +0.000 NA
ATOM     13  C   UNL     1       1.674   8.295  19.612  0.00  0.00    +0.000 A 
ATOM     14  C   UNL     1       2.495   7.820  18.564  0.00  0.00    +0.000 A 
ATOM     15  C   UNL     1       3.098   6.549  18.593  0.00  0.00    +0.000 A 
ATOM     16  C   UNL     1       2.844   5.753  19.721  0.00  0.00    +0.000 A 
ATOM     17  C   UNL     1       2.029   6.205  20.763  0.00  0.00    +0.000 A 
ATOM     18  C   UNL     1       1.448   7.472  20.711  0.00  0.00    +0.000 A 
ATOM     19  O   UNL     1       0.675   7.824  21.787  0.00  0.00    +0.000 OA
ATOM     20  H   UNL     1       2.067  12.715  16.875  0.00  0.00    +0.000 HD
ATOM     21  H   UNL     1       3.201  12.677  18.156  0.00  0.00    +0.000 HD
ENDROOT
BRANCH  15  22
ATOM     22  C   UNL     1       3.953   6.092  17.485  0.00  0.00    +0.000 A 
ATOM     23  C   UNL     1       4.696   6.951  16.686  0.00  0.00    +0.000 A 
ATOM     24  N   UNL     1       5.478   6.569  15.648  0.00  0.00    +0.000 NA
ATOM     25  C   UNL     1       5.517   5.252  15.413  0.00  0.00    +0.000 A 
ATOM     26  N   UNL     1       4.859   4.311  16.101  0.00  0.00    +0.000 NA
ATOM     27  C   UNL     1       4.091   4.762  17.120  0.00  0.00    +0.000 A 
ENDBRANCH  15  22
BRANCH   1  28
ATOM     28  O   UNL     1      -1.662  12.829  22.287  0.00  0.00    +0.000 OA
BRANCH  28  29
ATOM     29  C   UNL     1      -3.075  12.817  22.065  0.00  0.00    +0.000 C 
BRANCH  29  31
ATOM     30  C   UNL     1      -4.444  12.525  19.997  0.00  0.00    +0.000 C 
ATOM     31  C   UNL     1      -3.398  13.384  20.691  0.00  0.00    +0.000 C 
ENDBRANCH  29  31
ENDBRANCH  28  29
ENDBRANCH   1  28
TORSDOF 4
ENDMDL
MODEL 7
REMARK VINA RESULT:      -7.0      3.670      9.147
REMARK  Name = 
REMARK  5 active torsions:
REMARK  status: ('A' for Active; 'I' for Inactive)
REMARK    1  A    between atoms: C_1  and  C_2
REMARK    2  A    between atoms: C_2  and  C_3
REMARK    3  A    between atoms: C_3  and  O_4
REMARK    4  A    between atoms: O_4  and  C_5
REMARK    5  A    between atoms: C_19  and  C_20
REMARK                            x       y       z     vdW  Elec       q    Type
REMARK                         _______ _______ _______ _____ _____    ______ ____
ROOT
ATOM      1  C   UNL     1       1.133   8.866  20.588  0.00  0.00    +0.000 A 
ATOM      2  C   UNL     1       1.030   8.604  21.952  0.00  0.00    +0.000 A 
ATOM      3  C   UNL     1       0.186   9.379  22.756  0.00  0.00    +0.000 A 
ATOM      4  C   UNL     1      -0.554  10.427  22.199  0.00  0.00    +0.000 A 
ATOM      5  C   UNL     1      -0.466  10.701  20.837  0.00  0.00    +0.000 A 
ATOM      6  C   UNL     1       0.372   9.899  20.042  0.00  0.00    +0.000 A 
ATOM      7  C   UNL     1      -1.247  11.840  20.214  0.00  0.00    +0.000 C 
ATOM      8  C   UNL     1      -0.294  12.857  19.545  0.00  0.00    +0.000 C 
ATOM      9  O   UNL     1      -0.662  12.868  18.165  0.00  0.00    +0.000 OA
ATOM     10  C   UNL     1      -1.667  11.977  18.056  0.00  0.00    +0.000 C 
ATOM     11  N   UNL     1      -2.140  11.854  16.801  0.00  0.00    +0.000 N 
ATOM     12  N   UNL     1      -2.070  11.327  19.087  0.00  0.00    +0.000 NA
ATOM     13  C   UNL     1      -2.148  12.524  21.224  0.00  0.00    +0.000 A 
ATOM     14  C   UNL     1      -3.019  13.562  20.824  0.00  0.00    +0.000 A 
ATOM     15  C   UNL     1      -3.881  14.215  21.724  0.00  0.00    +0.000 A 
ATOM     16  C   UNL     1      -3.839  13.793  23.062  0.00  0.00    +0.000 A 
ATOM     17  C   UNL     1      -2.978  12.772  23.477  0.00  0.00    +0.000 A 
ATOM     18  C   UNL     1      -2.138  12.137  22.561  0.00  0.00    +0.000 A 
ATOM     19  O   UNL     1      -1.340  11.143  23.067  0.00  0.00    +0.000 OA
ATOM     20  H   UNL     1      -1.501  12.126  16.067  0.00  0.00    +0.000 HD
ATOM     21  H   UNL     1      -2.656  10.998  16.635  0.00  0.00    +0.000 HD
ENDROOT
BRANCH  15  22
ATOM     22  C   UNL     1      -4.780  15.288  21.267  0.00  0.00    +0.000 A 
ATOM     23  C   UNL     1      -4.331  16.493  20.741  0.00  0.00    +0.000 A 
ATOM     24  N   UNL     1      -5.126  17.508  20.328  0.00  0.00    +0.000 NA
ATOM     25  C   UNL     1      -6.442  17.290  20.444  0.00  0.00    +0.000 A 
ATOM     26  N   UNL     1      -7.015  16.180  20.926  0.00  0.00    +0.000 NA
ATOM     27  C   UNL     1      -6.162  15.209  21.327  0.00  0.00    +0.000 A 
ENDBRANCH  15  22
BRANCH   1  28
ATOM     28  O   UNL     1       1.998   8.071  19.878  0.00  0.00    +0.000 OA
BRANCH  28  29
ATOM     29  C   UNL     1       2.090   8.374  18.483  0.00  0.00    +0.000 C 
BRANCH  29  31
ATOM     30  C   UNL     1       2.817   6.028  18.039  0.00  0.00    +0.000 C 
ATOM     31  C   UNL     1       3.141   7.497  17.820  0.00  0.00    +0.000 C 
ENDBRANCH  29  31
ENDBRANCH  28  29
ENDBRANCH   1  28
TORSDOF 4
ENDMDL
MODEL 8
REMARK VINA RESULT:      -7.0      0.924      1.354
REMARK  Name = 
REMARK  5 active torsions:
REMARK  status: ('A' for Active; 'I' for Inactive)
REMARK    1  A    between atoms: C_1  and  C_2
REMARK    2  A    between atoms: C_2  and  C_3
REMARK    3  A    between atoms: C_3  and  O_4
REMARK    4  A    between atoms: O_4  and  C_5
REMARK    5  A    between atoms: C_19  and  C_20
REMARK                            x       y       z     vdW  Elec       q    Type
REMARK                         _______ _______ _______ _____ _____    ______ ____
ROOT
ATOM      1  C   UNL     1      -1.012  11.557  22.138  0.00  0.00    +0.000 A 
ATOM      2  C   UNL     1      -1.116  10.618  23.162  0.00  0.00    +0.000 A 
ATOM      3  C   UNL     1      -0.516   9.361  23.028  0.00  0.00    +0.000 A 
ATOM      4  C   UNL     1       0.187   9.033  21.863  0.00  0.00    +0.000 A 
ATOM      5  C   UNL     1       0.304   9.960  20.832  0.00  0.00    +0.000 A 
ATOM      6  C   UNL     1      -0.289  11.225  20.992  0.00  0.00    +0.000 A 
ATOM      7  C   UNL     1       1.048   9.622  19.555  0.00  0.00    +0.000 C 
ATOM      8  C   UNL     1       0.116   9.749  18.328  0.00  0.00    +0.000 C 
ATOM      9  O   UNL     1       0.713  10.749  17.503  0.00  0.00    +0.000 OA
ATOM     10  C   UNL     1       1.815  11.151  18.166  0.00  0.00    +0.000 C 
ATOM     11  N   UNL     1       2.508  12.110  17.524  0.00  0.00    +0.000 N 
ATOM     12  N   UNL     1       2.105  10.638  19.307  0.00  0.00    +0.000 NA
ATOM     13  C   UNL     1       1.679   8.245  19.619  0.00  0.00    +0.000 A 
ATOM     14  C   UNL     1       2.484   7.774  18.558  0.00  0.00    +0.000 A 
ATOM     15  C   UNL     1       3.099   6.508  18.579  0.00  0.00    +0.000 A 
ATOM     16  C   UNL     1       2.875   5.713  19.714  0.00  0.00    +0.000 A 
ATOM     17  C   UNL     1       2.076   6.162  20.770  0.00  0.00    +0.000 A 
ATOM     18  C   UNL     1       1.483   7.423  20.725  0.00  0.00    +0.000 A 
ATOM     19  O   UNL     1       0.727   7.772  21.815  0.00  0.00    +0.000 OA
ATOM     20  H   UNL     1       1.978  12.658  16.860  0.00  0.00    +0.000 HD
ATOM     21  H   UNL     1       3.137  12.635  18.119  0.00  0.00    +0.000 HD
ENDROOT
BRANCH  15  22
ATOM     22  C   UNL     1       3.937   6.055  17.456  0.00  0.00    +0.000 A 
ATOM     23  C   UNL     1       4.101   4.720  17.111  0.00  0.00    +0.000 A 
ATOM     24  N   UNL     1       4.877   4.266  16.098  0.00  0.00    +0.000 NA
ATOM     25  C   UNL     1       5.510   5.210  15.392  0.00  0.00    +0.000 A 
ATOM     26  N   UNL     1       5.443   6.530  15.608  0.00  0.00    +0.000 NA
ATOM     27  C   UNL     1       4.656   6.914  16.640  0.00  0.00    +0.000 A 
ENDBRANCH  15  22
BRANCH   1  28
ATOM     28  O   UNL     1      -1.646  12.756  22.343  0.00  0.00    +0.000 OA
BRANCH  28  29
ATOM     29  C   UNL     1      -0.988  13.892  21.775  0.00  0.00    +0.000 C 
BRANCH  29  31
ATOM     30  C   UNL     1      -1.281  14.861  24.058  0.00  0.00    +0.000 C 
ATOM     31  C   UNL     1      -0.342  14.729  22.869  0.00  0.00    +0.000 C 
ENDBRANCH  29  31
ENDBRANCH  28  29
ENDBRANCH   1  28
TORSDOF 4
ENDMDL
MODEL 9
REMARK VINA RESULT:      -6.8      2.382      3.913
REMARK  Name = 
REMARK  5 active torsions:
REMARK  status: ('A' for Active; 'I' for Inactive)
REMARK    1  A    between atoms: C_1  and  C_2
REMARK    2  A    between atoms: C_2  and  C_3
REMARK    3  A    between atoms: C_3  and  O_4
REMARK    4  A    between atoms: O_4  and  C_5
REMARK    5  A    between atoms: C_19  and  C_20
REMARK                            x       y       z     vdW  Elec       q    Type
REMARK                         _______ _______ _______ _____ _____    ______ ____
ROOT
ATOM      1  C   UNL     1      -3.712  14.406  22.173  0.00  0.00    +0.000 A 
ATOM      2  C   UNL     1      -3.643  13.960  23.490  0.00  0.00    +0.000 A 
ATOM      3  C   UNL     1      -2.868  12.841  23.815  0.00  0.00    +0.000 A 
ATOM      4  C   UNL     1      -2.164  12.155  22.819  0.00  0.00    +0.000 A 
ATOM      5  C   UNL     1      -2.218  12.589  21.498  0.00  0.00    +0.000 A 
ATOM      6  C   UNL     1      -2.986  13.727  21.194  0.00  0.00    +0.000 A 
ATOM      7  C   UNL     1      -1.475  11.854  20.400  0.00  0.00    +0.000 C 
ATOM      8  C   UNL     1      -2.455  11.357  19.313  0.00  0.00    +0.000 C 
ATOM      9  O   UNL     1      -2.040  11.999  18.108  0.00  0.00    +0.000 OA
ATOM     10  C   UNL     1      -0.988  12.766  18.454  0.00  0.00    +0.000 C 
ATOM     11  N   UNL     1      -0.466  13.458  17.424  0.00  0.00    +0.000 N 
ATOM     12  N   UNL     1      -0.588  12.802  19.674  0.00  0.00    +0.000 NA
ATOM     13  C   UNL     1      -0.646  10.710  20.950  0.00  0.00    +0.000 A 
ATOM     14  C   UNL     1       0.185   9.950  20.096  0.00  0.00    +0.000 A 
ATOM     15  C   UNL     1       0.980   8.888  20.564  0.00  0.00    +0.000 A 
ATOM     16  C   UNL     1       0.913   8.603  21.937  0.00  0.00    +0.000 A 
ATOM     17  C   UNL     1       0.091   9.341  22.795  0.00  0.00    +0.000 A 
ATOM     18  C   UNL     1      -0.682  10.393  22.304  0.00  0.00    +0.000 A 
ATOM     19  O   UNL     1      -1.445  11.060  23.228  0.00  0.00    +0.000 OA
ATOM     20  H   UNL     1      -1.092  13.620  16.647  0.00  0.00    +0.000 HD
ATOM     21  H   UNL     1       0.098  14.252  17.702  0.00  0.00    +0.000 HD
ENDROOT
BRANCH  15  22
ATOM     22  C   UNL     1       1.838   8.123  19.644  0.00  0.00    +0.000 A 
ATOM     23  C   UNL     1       2.348   6.865  19.938  0.00  0.00    +0.000 A 
ATOM     24  N   UNL     1       3.154   6.141  19.125  0.00  0.00    +0.000 NA
ATOM     25  C   UNL     1       3.451   6.714  17.953  0.00  0.00    +0.000 A 
ATOM     26  N   UNL     1       3.030   7.914  17.536  0.00  0.00    +0.000 NA
ATOM     27  C   UNL     1       2.234   8.587  18.400  0.00  0.00    +0.000 A 
ENDBRANCH  15  22
BRANCH   1  28
ATOM     28  O   UNL     1      -4.509  15.498  21.939  0.00  0.00    +0.000 OA
BRANCH  28  29
ATOM     29  C   UNL     1      -5.449  15.792  22.976  0.00  0.00    +0.000 C 
BRANCH  29  31
ATOM     30  C   UNL     1      -4.990  17.222  24.971  0.00  0.00    +0.000 C 
ATOM     31  C   UNL     1      -5.259  17.217  23.474  0.00  0.00    +0.000 C 
ENDBRANCH  29  31
ENDBRANCH  28  29
ENDBRANCH   1  28
TORSDOF 4
ENDMDL
