MODEL 1
REMARK VINA RESULT:      -8.3      0.000      0.000
REMARK  Name = 
REMARK  11 active torsions:
REMARK  status: ('A' for Active; 'I' for Inactive)
REMARK    1  A    between atoms: C_1  and  O_2
REMARK    2  A    between atoms: O_2  and  C_3
REMARK    3  A    between atoms: C_6  and  N_7
REMARK    4  A    between atoms: N_7  and  N_8
REMARK    5  A    between atoms: C_14  and  C_15
REMARK    6  A    between atoms: C_17  and  O_18
REMARK    7  A    between atoms: O_18  and  C_19
REMARK    8  A    between atoms: C_20  and  O_21
REMARK    9  A    between atoms: O_21  and  C_22
REMARK   10  A    between atoms: C_23  and  O_24
REMARK   11  A    between atoms: O_24  and  C_25
REMARK                            x       y       z     vdW  Elec       q    Type
REMARK                         _______ _______ _______ _____ _____    ______ ____
ROOT
ATOM      1  N   UNL     1       3.530   5.789  18.851  0.00  0.00    +0.000 NA
ATOM      2  C   UNL     1       3.149   4.608  18.475  0.00  0.00    +0.000 C 
ATOM      3  C   UNL     1       2.015   3.768  18.974  0.00  0.00    +0.000 C 
ATOM      4  O   UNL     1       1.141   4.121  19.731  0.00  0.00    +0.000 OA
ATOM      5  N   UNL     1       2.236   2.574  18.329  0.00  0.00    +0.000 N 
ATOM      6  N   UNL     1       3.296   2.568  17.436  0.00  0.00    +0.000 NA
ATOM      7  C   UNL     1       3.850   3.756  17.462  0.00  0.00    +0.000 C 
ATOM      8  H   UNL     1       1.629   1.765  18.409  0.00  0.00    +0.000 HD
ENDROOT
BRANCH   7   9
ATOM      9  C   UNL     1       4.967   4.168  16.612  0.00  0.00    +0.000 A 
ATOM     10  C   UNL     1       5.791   5.220  16.996  0.00  0.00    +0.000 A 
ATOM     11  C   UNL     1       6.859   5.621  16.188  0.00  0.00    +0.000 A 
ATOM     12  C   UNL     1       7.085   4.983  14.945  0.00  0.00    +0.000 A 
ATOM     13  C   UNL     1       6.216   3.950  14.528  0.00  0.00    +0.000 A 
ATOM     14  C   UNL     1       5.171   3.545  15.374  0.00  0.00    +0.000 A 
BRANCH  11  15
ATOM     15  O   UNL     1       7.697   6.653  16.547  0.00  0.00    +0.000 OA
ATOM     16  C   UNL     1       7.605   7.082  17.905  0.00  0.00    +0.000 C 
ENDBRANCH  11  15
BRANCH  12  17
ATOM     17  O   UNL     1       8.127   5.495  14.204  0.00  0.00    +0.000 OA
ATOM     18  C   UNL     1       7.931   5.631  12.802  0.00  0.00    +0.000 C 
ENDBRANCH  12  17
BRANCH  13  19
ATOM     19  O   UNL     1       6.410   3.409  13.285  0.00  0.00    +0.000 OA
ATOM     20  C   UNL     1       5.307   3.347  12.389  0.00  0.00    +0.000 C 
ENDBRANCH  13  19
ENDBRANCH   7   9
BRANCH   1  21
ATOM     21  N   UNL     1       2.797   6.385  19.830  0.00  0.00    +0.000 N 
ATOM     22  H   UNL     1       2.447   5.850  20.632  0.00  0.00    +0.000 HD
BRANCH  21  26
ATOM     23  C   UNL     1       0.793  10.015  18.970  0.00  0.00    +0.000 A 
ATOM     24  C   UNL     1       0.722   9.464  20.246  0.00  0.00    +0.000 A 
ATOM     25  C   UNL     1       1.391   8.271  20.542  0.00  0.00    +0.000 A 
ATOM     26  C   UNL     1       2.149   7.607  19.572  0.00  0.00    +0.000 A 
ATOM     27  C   UNL     1       2.168   8.144  18.277  0.00  0.00    +0.000 A 
ATOM     28  C   UNL     1       1.501   9.341  17.977  0.00  0.00    +0.000 A 
BRANCH  23  30
ATOM     29  C   UNL     1      -0.076  11.972  19.966  0.00  0.00    +0.000 C 
ATOM     30  O   UNL     1       0.097  11.180  18.796  0.00  0.00    +0.000 OA
ENDBRANCH  23  30
ENDBRANCH  21  26
ENDBRANCH   1  21
TORSDOF 7
ENDMDL
MODEL 2
REMARK VINA RESULT:      -8.1      0.490      1.028
REMARK  Name = 
REMARK  11 active torsions:
REMARK  status: ('A' for Active; 'I' for Inactive)
REMARK    1  A    between atoms: C_1  and  O_2
REMARK    2  A    between atoms: O_2  and  C_3
REMARK    3  A    between atoms: C_6  and  N_7
REMARK    4  A    between atoms: N_7  and  N_8
REMARK    5  A    between atoms: C_14  and  C_15
REMARK    6  A    between atoms: C_17  and  O_18
REMARK    7  A    between atoms: O_18  and  C_19
REMARK    8  A    between atoms: C_20  and  O_21
REMARK    9  A    between atoms: O_21  and  C_22
REMARK   10  A    between atoms: C_23  and  O_24
REMARK   11  A    between atoms: O_24  and  C_25
REMARK                            x       y       z     vdW  Elec       q    Type
REMARK                         _______ _______ _______ _____ _____    ______ ____
ROOT
ATOM      1  N   UNL     1       3.533   5.575  18.930  0.00  0.00    +0.000 NA
ATOM      2  C   UNL     1       3.244   4.366  18.563  0.00  0.00    +0.000 C 
ATOM      3  C   UNL     1       2.188   3.440  19.082  0.00  0.00    +0.000 C 
ATOM      4  O   UNL     1       1.299   3.724  19.851  0.00  0.00    +0.000 OA
ATOM      5  N   UNL     1       2.495   2.264  18.437  0.00  0.00    +0.000 N 
ATOM      6  N   UNL     1       3.539   2.339  17.528  0.00  0.00    +0.000 NA
ATOM      7  C   UNL     1       3.996   3.569  17.542  0.00  0.00    +0.000 C 
ATOM      8  H   UNL     1       1.957   1.410  18.529  0.00  0.00    +0.000 HD
ENDROOT
BRANCH   7   9
ATOM      9  C   UNL     1       5.064   4.065  16.675  0.00  0.00    +0.000 A 
ATOM     10  C   UNL     1       5.901   5.088  17.106  0.00  0.00    +0.000 A 
ATOM     11  C   UNL     1       6.921   5.571  16.282  0.00  0.00    +0.000 A 
ATOM     12  C   UNL     1       7.085   5.047  14.978  0.00  0.00    +0.000 A 
ATOM     13  C   UNL     1       6.201   4.045  14.517  0.00  0.00    +0.000 A 
ATOM     14  C   UNL     1       5.205   3.556  15.378  0.00  0.00    +0.000 A 
BRANCH  11  15
ATOM     15  O   UNL     1       7.771   6.576  16.686  0.00  0.00    +0.000 OA
ATOM     16  C   UNL     1       7.145   7.719  17.268  0.00  0.00    +0.000 C 
ENDBRANCH  11  15
BRANCH  12  17
ATOM     17  O   UNL     1       8.083   5.633  14.231  0.00  0.00    +0.000 OA
ATOM     18  C   UNL     1       7.998   5.517  12.816  0.00  0.00    +0.000 C 
ENDBRANCH  12  17
BRANCH  13  19
ATOM     19  O   UNL     1       6.333   3.617  13.222  0.00  0.00    +0.000 OA
ATOM     20  C   UNL     1       5.156   3.342  12.473  0.00  0.00    +0.000 C 
ENDBRANCH  13  19
ENDBRANCH   7   9
BRANCH   1  21
ATOM     21  N   UNL     1       2.769   6.114  19.918  0.00  0.00    +0.000 N 
ATOM     22  H   UNL     1       2.384   5.532  20.670  0.00  0.00    +0.000 HD
BRANCH  21  26
ATOM     23  C   UNL     1       0.934   9.895  19.401  0.00  0.00    +0.000 A 
ATOM     24  C   UNL     1       1.698   9.343  18.376  0.00  0.00    +0.000 A 
ATOM     25  C   UNL     1       2.298   8.089  18.534  0.00  0.00    +0.000 A 
ATOM     26  C   UNL     1       2.143   7.357  19.717  0.00  0.00    +0.000 A 
ATOM     27  C   UNL     1       1.416   7.949  20.760  0.00  0.00    +0.000 A 
ATOM     28  C   UNL     1       0.812   9.204  20.605  0.00  0.00    +0.000 A 
BRANCH  23  30
ATOM     29  C   UNL     1       1.338  12.144  18.805  0.00  0.00    +0.000 C 
ATOM     30  O   UNL     1       0.400  11.126  19.135  0.00  0.00    +0.000 OA
ENDBRANCH  23  30
ENDBRANCH  21  26
ENDBRANCH   1  21
TORSDOF 7
ENDMDL
MODEL 3
REMARK VINA RESULT:      -8.0      0.246      2.470
REMARK  Name = 
REMARK  11 active torsions:
REMARK  status: ('A' for Active; 'I' for Inactive)
REMARK    1  A    between atoms: C_1  and  O_2
REMARK    2  A    between atoms: O_2  and  C_3
REMARK    3  A    between atoms: C_6  and  N_7
REMARK    4  A    between atoms: N_7  and  N_8
REMARK    5  A    between atoms: C_14  and  C_15
REMARK    6  A    between atoms: C_17  and  O_18
REMARK    7  A    between atoms: O_18  and  C_19
REMARK    8  A    between atoms: C_20  and  O_21
REMARK    9  A    between atoms: O_21  and  C_22
REMARK   10  A    between atoms: C_23  and  O_24
REMARK   11  A    between atoms: O_24  and  C_25
REMARK                            x       y       z     vdW  Elec       q    Type
REMARK                         _______ _______ _______ _____ _____    ______ ____
ROOT
ATOM      1  N   UNL     1       3.452   5.778  18.855  0.00  0.00    +0.000 NA
ATOM      2  C   UNL     1       3.056   4.622  18.422  0.00  0.00    +0.000 C 
ATOM      3  C   UNL     1       1.908   3.776  18.880  0.00  0.00    +0.000 C 
ATOM      4  O   UNL     1       1.038   4.105  19.651  0.00  0.00    +0.000 OA
ATOM      5  N   UNL     1       2.113   2.610  18.178  0.00  0.00    +0.000 N 
ATOM      6  N   UNL     1       3.175   2.631  17.287  0.00  0.00    +0.000 NA
ATOM      7  C   UNL     1       3.746   3.809  17.371  0.00  0.00    +0.000 C 
ATOM      8  H   UNL     1       1.495   1.808  18.220  0.00  0.00    +0.000 HD
ENDROOT
BRANCH   7   9
ATOM      9  C   UNL     1       4.871   4.244  16.543  0.00  0.00    +0.000 A 
ATOM     10  C   UNL     1       5.145   3.607  15.339  0.00  0.00    +0.000 A 
ATOM     11  C   UNL     1       6.220   4.014  14.544  0.00  0.00    +0.000 A 
ATOM     12  C   UNL     1       7.069   5.058  14.983  0.00  0.00    +0.000 A 
ATOM     13  C   UNL     1       6.824   5.671  16.232  0.00  0.00    +0.000 A 
ATOM     14  C   UNL     1       5.718   5.264  16.995  0.00  0.00    +0.000 A 
BRANCH  11  15
ATOM     15  O   UNL     1       6.510   3.408  13.342  0.00  0.00    +0.000 OA
ATOM     16  C   UNL     1       5.419   3.292  12.429  0.00  0.00    +0.000 C 
ENDBRANCH  11  15
BRANCH  12  17
ATOM     17  O   UNL     1       8.130   5.341  14.151  0.00  0.00    +0.000 OA
ATOM     18  C   UNL     1       7.831   5.743  12.820  0.00  0.00    +0.000 C 
ENDBRANCH  12  17
BRANCH  13  19
ATOM     19  O   UNL     1       7.711   6.621  16.667  0.00  0.00    +0.000 OA
ATOM     20  C   UNL     1       7.677   7.009  18.035  0.00  0.00    +0.000 C 
ENDBRANCH  13  19
ENDBRANCH   7   9
BRANCH   1  21
ATOM     21  N   UNL     1       2.726   6.337  19.860  0.00  0.00    +0.000 N 
ATOM     22  H   UNL     1       2.349   5.767  20.625  0.00  0.00    +0.000 HD
BRANCH  21  26
ATOM     23  C   UNL     1       0.847  10.074  19.200  0.00  0.00    +0.000 A 
ATOM     24  C   UNL     1       0.759   9.458  20.445  0.00  0.00    +0.000 A 
ATOM     25  C   UNL     1       1.386   8.229  20.675  0.00  0.00    +0.000 A 
ATOM     26  C   UNL     1       2.121   7.592  19.669  0.00  0.00    +0.000 A 
ATOM     27  C   UNL     1       2.157   8.197  18.404  0.00  0.00    +0.000 A 
ATOM     28  C   UNL     1       1.531   9.430  18.171  0.00  0.00    +0.000 A 
BRANCH  23  30
ATOM     29  C   UNL     1      -0.944  11.427  19.934  0.00  0.00    +0.000 C 
ATOM     30  O   UNL     1       0.192  11.270  19.090  0.00  0.00    +0.000 OA
ENDBRANCH  23  30
ENDBRANCH  21  26
ENDBRANCH   1  21
TORSDOF 7
ENDMDL
MODEL 4
REMARK VINA RESULT:      -8.0      0.339      2.641
REMARK  Name = 
REMARK  11 active torsions:
REMARK  status: ('A' for Active; 'I' for Inactive)
REMARK    1  A    between atoms: C_1  and  O_2
REMARK    2  A    between atoms: O_2  and  C_3
REMARK    3  A    between atoms: C_6  and  N_7
REMARK    4  A    between atoms: N_7  and  N_8
REMARK    5  A    between atoms: C_14  and  C_15
REMARK    6  A    between atoms: C_17  and  O_18
REMARK    7  A    between atoms: O_18  and  C_19
REMARK    8  A    between atoms: C_20  and  O_21
REMARK    9  A    between atoms: O_21  and  C_22
REMARK   10  A    between atoms: C_23  and  O_24
REMARK   11  A    between atoms: O_24  and  C_25
REMARK                            x       y       z     vdW  Elec       q    Type
REMARK                         _______ _______ _______ _____ _____    ______ ____
ROOT
ATOM      1  N   UNL     1       3.498   5.879  18.821  0.00  0.00    +0.000 NA
ATOM      2  C   UNL     1       3.063   4.735  18.394  0.00  0.00    +0.000 C 
ATOM      3  C   UNL     1       1.892   3.926  18.861  0.00  0.00    +0.000 C 
ATOM      4  O   UNL     1       1.037   4.284  19.637  0.00  0.00    +0.000 OA
ATOM      5  N   UNL     1       2.057   2.753  18.162  0.00  0.00    +0.000 N 
ATOM      6  N   UNL     1       3.113   2.738  17.265  0.00  0.00    +0.000 NA
ATOM      7  C   UNL     1       3.721   3.898  17.341  0.00  0.00    +0.000 C 
ATOM      8  H   UNL     1       1.414   1.970  18.210  0.00  0.00    +0.000 HD
ENDROOT
BRANCH   7   9
ATOM      9  C   UNL     1       4.854   4.295  16.505  0.00  0.00    +0.000 A 
ATOM     10  C   UNL     1       5.121   3.623  15.318  0.00  0.00    +0.000 A 
ATOM     11  C   UNL     1       6.204   3.994  14.516  0.00  0.00    +0.000 A 
ATOM     12  C   UNL     1       7.066   5.038  14.930  0.00  0.00    +0.000 A 
ATOM     13  C   UNL     1       6.828   5.686  16.162  0.00  0.00    +0.000 A 
ATOM     14  C   UNL     1       5.714   5.315  16.933  0.00  0.00    +0.000 A 
BRANCH  11  15
ATOM     15  O   UNL     1       6.488   3.353  13.331  0.00  0.00    +0.000 OA
ATOM     16  C   UNL     1       5.409   3.265  12.401  0.00  0.00    +0.000 C 
ENDBRANCH  11  15
BRANCH  12  17
ATOM     17  O   UNL     1       8.132   5.283  14.094  0.00  0.00    +0.000 OA
ATOM     18  C   UNL     1       7.846   5.791  12.796  0.00  0.00    +0.000 C 
ENDBRANCH  12  17
BRANCH  13  19
ATOM     19  O   UNL     1       7.726   6.635  16.574  0.00  0.00    +0.000 OA
ATOM     20  C   UNL     1       7.662   7.097  17.918  0.00  0.00    +0.000 C 
ENDBRANCH  13  19
ENDBRANCH   7   9
BRANCH   1  21
ATOM     21  N   UNL     1       2.796   6.464  19.829  0.00  0.00    +0.000 N 
ATOM     22  H   UNL     1       2.508   5.929  20.656  0.00  0.00    +0.000 HD
BRANCH  21  26
ATOM     23  C   UNL     1       0.729  10.104  19.188  0.00  0.00    +0.000 A 
ATOM     24  C   UNL     1       1.457   9.522  18.153  0.00  0.00    +0.000 A 
ATOM     25  C   UNL     1       2.133   8.314  18.353  0.00  0.00    +0.000 A 
ATOM     26  C   UNL     1       2.092   7.657  19.588  0.00  0.00    +0.000 A 
ATOM     27  C   UNL     1       1.400   8.281  20.637  0.00  0.00    +0.000 A 
ATOM     28  C   UNL     1       0.720   9.491  20.439  0.00  0.00    +0.000 A 
BRANCH  23  30
ATOM     29  C   UNL     1       0.948  12.438  18.903  0.00  0.00    +0.000 C 
ATOM     30  O   UNL     1       0.113  11.285  18.878  0.00  0.00    +0.000 OA
ENDBRANCH  23  30
ENDBRANCH  21  26
ENDBRANCH   1  21
TORSDOF 7
ENDMDL
MODEL 5
REMARK VINA RESULT:      -7.8      3.578      6.230
REMARK  Name = 
REMARK  11 active torsions:
REMARK  status: ('A' for Active; 'I' for Inactive)
REMARK    1  A    between atoms: C_1  and  O_2
REMARK    2  A    between atoms: O_2  and  C_3
REMARK    3  A    between atoms: C_6  and  N_7
REMARK    4  A    between atoms: N_7  and  N_8
REMARK    5  A    between atoms: C_14  and  C_15
REMARK    6  A    between atoms: C_17  and  O_18
REMARK    7  A    between atoms: O_18  and  C_19
REMARK    8  A    between atoms: C_20  and  O_21
REMARK    9  A    between atoms: O_21  and  C_22
REMARK   10  A    between atoms: C_23  and  O_24
REMARK   11  A    between atoms: O_24  and  C_25
REMARK                            x       y       z     vdW  Elec       q    Type
REMARK                         _______ _______ _______ _____ _____    ______ ____
ROOT
ATOM      1  N   UNL     1       0.650   9.611  18.837  0.00  0.00    +0.000 NA
ATOM      2  C   UNL     1       0.840   9.475  20.112  0.00  0.00    +0.000 C 
ATOM      3  C   UNL     1       0.568  10.440  21.225  0.00  0.00    +0.000 C 
ATOM      4  O   UNL     1      -0.036  11.483  21.137  0.00  0.00    +0.000 OA
ATOM      5  N   UNL     1       1.142   9.805  22.302  0.00  0.00    +0.000 N 
ATOM      6  N   UNL     1       1.663   8.547  22.043  0.00  0.00    +0.000 NA
ATOM      7  C   UNL     1       1.482   8.292  20.769  0.00  0.00    +0.000 C 
ATOM      8  H   UNL     1       1.120  10.165  23.249  0.00  0.00    +0.000 HD
ENDROOT
BRANCH   7   9
ATOM      9  C   UNL     1       1.844   7.033  20.117  0.00  0.00    +0.000 A 
ATOM     10  C   UNL     1       2.650   7.036  18.984  0.00  0.00    +0.000 A 
ATOM     11  C   UNL     1       2.997   5.838  18.353  0.00  0.00    +0.000 A 
ATOM     12  C   UNL     1       2.494   4.609  18.842  0.00  0.00    +0.000 A 
ATOM     13  C   UNL     1       1.631   4.609  19.961  0.00  0.00    +0.000 A 
ATOM     14  C   UNL     1       1.325   5.824  20.595  0.00  0.00    +0.000 A 
BRANCH  11  15
ATOM     15  O   UNL     1       3.801   5.809  17.236  0.00  0.00    +0.000 OA
ATOM     16  C   UNL     1       5.126   6.309  17.413  0.00  0.00    +0.000 C 
ENDBRANCH  11  15
BRANCH  12  17
ATOM     17  O   UNL     1       2.852   3.497  18.112  0.00  0.00    +0.000 OA
ATOM     18  C   UNL     1       3.900   2.684  18.626  0.00  0.00    +0.000 C 
ENDBRANCH  12  17
BRANCH  13  19
ATOM     19  O   UNL     1       1.095   3.413  20.359  0.00  0.00    +0.000 OA
ATOM     20  C   UNL     1       1.562   2.826  21.568  0.00  0.00    +0.000 C 
ENDBRANCH  13  19
ENDBRANCH   7   9
BRANCH   1  21
ATOM     21  N   UNL     1       0.105  10.786  18.421  0.00  0.00    +0.000 N 
ATOM     22  H   UNL     1       0.557  11.683  18.627  0.00  0.00    +0.000 HD
BRANCH  21  26
ATOM     23  C   UNL     1      -4.016  10.854  17.449  0.00  0.00    +0.000 A 
ATOM     24  C   UNL     1      -3.505  11.744  18.390  0.00  0.00    +0.000 A 
ATOM     25  C   UNL     1      -2.143  11.736  18.709  0.00  0.00    +0.000 A 
ATOM     26  C   UNL     1      -1.260  10.844  18.090  0.00  0.00    +0.000 A 
ATOM     27  C   UNL     1      -1.797   9.918  17.184  0.00  0.00    +0.000 A 
ATOM     28  C   UNL     1      -3.161   9.924  16.860  0.00  0.00    +0.000 A 
BRANCH  23  30
ATOM     29  C   UNL     1      -6.155  11.271  18.359  0.00  0.00    +0.000 C 
ATOM     30  O   UNL     1      -5.361  10.951  17.221  0.00  0.00    +0.000 OA
ENDBRANCH  23  30
ENDBRANCH  21  26
ENDBRANCH   1  21
TORSDOF 7
ENDMDL
MODEL 6
REMARK VINA RESULT:      -7.8      3.539      6.202
REMARK  Name = 
REMARK  11 active torsions:
REMARK  status: ('A' for Active; 'I' for Inactive)
REMARK    1  A    between atoms: C_1  and  O_2
REMARK    2  A    between atoms: O_2  and  C_3
REMARK    3  A    between atoms: C_6  and  N_7
REMARK    4  A    between atoms: N_7  and  N_8
REMARK    5  A    between atoms: C_14  and  C_15
REMARK    6  A    between atoms: C_17  and  O_18
REMARK    7  A    between atoms: O_18  and  C_19
REMARK    8  A    between atoms: C_20  and  O_21
REMARK    9  A    between atoms: O_21  and  C_22
REMARK   10  A    between atoms: C_23  and  O_24
REMARK   11  A    between atoms: O_24  and  C_25
REMARK                            x       y       z     vdW  Elec       q    Type
REMARK                         _______ _______ _______ _____ _____    ______ ____
ROOT
ATOM      1  N   UNL     1       0.604   9.648  18.843  0.00  0.00    +0.000 NA
ATOM      2  C   UNL     1       0.808   9.477  20.112  0.00  0.00    +0.000 C 
ATOM      3  C   UNL     1       0.542  10.408  21.254  0.00  0.00    +0.000 C 
ATOM      4  O   UNL     1      -0.066  11.451  21.202  0.00  0.00    +0.000 OA
ATOM      5  N   UNL     1       1.129   9.746  22.307  0.00  0.00    +0.000 N 
ATOM      6  N   UNL     1       1.653   8.497  22.008  0.00  0.00    +0.000 NA
ATOM      7  C   UNL     1       1.461   8.278  20.729  0.00  0.00    +0.000 C 
ATOM      8  H   UNL     1       1.115  10.079  23.265  0.00  0.00    +0.000 HD
ENDROOT
BRANCH   7   9
ATOM      9  C   UNL     1       1.821   7.040  20.038  0.00  0.00    +0.000 A 
ATOM     10  C   UNL     1       1.378   5.813  20.518  0.00  0.00    +0.000 A 
ATOM     11  C   UNL     1       1.722   4.625  19.866  0.00  0.00    +0.000 A 
ATOM     12  C   UNL     1       2.562   4.661  18.728  0.00  0.00    +0.000 A 
ATOM     13  C   UNL     1       3.057   5.902  18.270  0.00  0.00    +0.000 A 
ATOM     14  C   UNL     1       2.670   7.083  18.926  0.00  0.00    +0.000 A 
BRANCH  11  15
ATOM     15  O   UNL     1       1.290   3.396  20.313  0.00  0.00    +0.000 OA
ATOM     16  C   UNL     1       1.791   2.991  21.587  0.00  0.00    +0.000 C 
ENDBRANCH  11  15
BRANCH  12  17
ATOM     17  O   UNL     1       2.884   3.431  18.198  0.00  0.00    +0.000 OA
ATOM     18  C   UNL     1       4.096   2.826  18.630  0.00  0.00    +0.000 C 
ENDBRANCH  12  17
BRANCH  13  19
ATOM     19  O   UNL     1       3.934   5.896  17.217  0.00  0.00    +0.000 OA
ATOM     20  C   UNL     1       5.296   6.225  17.464  0.00  0.00    +0.000 C 
ENDBRANCH  13  19
ENDBRANCH   7   9
BRANCH   1  21
ATOM     21  N   UNL     1       0.051  10.832  18.466  0.00  0.00    +0.000 N 
ATOM     22  H   UNL     1       0.499  11.725  18.697  0.00  0.00    +0.000 HD
BRANCH  21  26
ATOM     23  C   UNL     1      -4.077  10.909  17.527  0.00  0.00    +0.000 A 
ATOM     24  C   UNL     1      -3.542  11.851  18.402  0.00  0.00    +0.000 A 
ATOM     25  C   UNL     1      -2.177  11.840  18.709  0.00  0.00    +0.000 A 
ATOM     26  C   UNL     1      -1.316  10.893  18.143  0.00  0.00    +0.000 A 
ATOM     27  C   UNL     1      -1.878   9.918  17.306  0.00  0.00    +0.000 A 
ATOM     28  C   UNL     1      -3.245   9.927  16.994  0.00  0.00    +0.000 A 
BRANCH  23  30
ATOM     29  C   UNL     1      -6.252  10.787  18.438  0.00  0.00    +0.000 C 
ATOM     30  O   UNL     1      -5.423  11.015  17.304  0.00  0.00    +0.000 OA
ENDBRANCH  23  30
ENDBRANCH  21  26
ENDBRANCH   1  21
TORSDOF 7
ENDMDL
MODEL 7
REMARK VINA RESULT:      -7.8      1.775      7.769
REMARK  Name = 
REMARK  11 active torsions:
REMARK  status: ('A' for Active; 'I' for Inactive)
REMARK    1  A    between atoms: C_1  and  O_2
REMARK    2  A    between atoms: O_2  and  C_3
REMARK    3  A    between atoms: C_6  and  N_7
REMARK    4  A    between atoms: N_7  and  N_8
REMARK    5  A    between atoms: C_14  and  C_15
REMARK    6  A    between atoms: C_17  and  O_18
REMARK    7  A    between atoms: O_18  and  C_19
REMARK    8  A    between atoms: C_20  and  O_21
REMARK    9  A    between atoms: O_21  and  C_22
REMARK   10  A    between atoms: C_23  and  O_24
REMARK   11  A    between atoms: O_24  and  C_25
REMARK                            x       y       z     vdW  Elec       q    Type
REMARK                         _______ _______ _______ _____ _____    ______ ____
ROOT
ATOM      1  N   UNL     1       4.270   5.737  19.453  0.00  0.00    +0.000 NA
ATOM      2  C   UNL     1       3.226   5.124  19.919  0.00  0.00    +0.000 C 
ATOM      3  C   UNL     1       2.998   3.661  20.136  0.00  0.00    +0.000 C 
ATOM      4  O   UNL     1       3.828   2.786  20.054  0.00  0.00    +0.000 OA
ATOM      5  N   UNL     1       1.662   3.624  20.466  0.00  0.00    +0.000 N 
ATOM      6  N   UNL     1       1.040   4.859  20.566  0.00  0.00    +0.000 NA
ATOM      7  C   UNL     1       1.929   5.780  20.282  0.00  0.00    +0.000 C 
ATOM      8  H   UNL     1       1.163   2.777  20.713  0.00  0.00    +0.000 HD
ENDROOT
BRANCH   7   9
ATOM      9  C   UNL     1       1.676   7.220  20.336  0.00  0.00    +0.000 A 
ATOM     10  C   UNL     1       1.352   7.832  21.542  0.00  0.00    +0.000 A 
ATOM     11  C   UNL     1       1.105   9.206  21.601  0.00  0.00    +0.000 A 
ATOM     12  C   UNL     1       1.141   9.983  20.418  0.00  0.00    +0.000 A 
ATOM     13  C   UNL     1       1.416   9.354  19.184  0.00  0.00    +0.000 A 
ATOM     14  C   UNL     1       1.693   7.977  19.158  0.00  0.00    +0.000 A 
BRANCH  11  15
ATOM     15  O   UNL     1       0.792   9.841  22.782  0.00  0.00    +0.000 OA
ATOM     16  C   UNL     1      -0.543   9.651  23.252  0.00  0.00    +0.000 C 
ENDBRANCH  11  15
BRANCH  12  17
ATOM     17  O   UNL     1       0.826  11.314  20.581  0.00  0.00    +0.000 OA
ATOM     18  C   UNL     1      -0.487  11.727  20.221  0.00  0.00    +0.000 C 
ENDBRANCH  12  17
BRANCH  13  19
ATOM     19  O   UNL     1       1.362  10.117  18.047  0.00  0.00    +0.000 OA
ATOM     20  C   UNL     1       2.395  11.067  17.815  0.00  0.00    +0.000 C 
ENDBRANCH  13  19
ENDBRANCH   7   9
BRANCH   1  21
ATOM     21  N   UNL     1       5.337   4.961  19.122  0.00  0.00    +0.000 N 
ATOM     22  H   UNL     1       6.038   4.694  19.821  0.00  0.00    +0.000 HD
BRANCH  21  26
ATOM     23  C   UNL     1       6.615   4.588  15.102  0.00  0.00    +0.000 A 
ATOM     24  C   UNL     1       5.271   4.423  15.426  0.00  0.00    +0.000 A 
ATOM     25  C   UNL     1       4.839   4.556  16.750  0.00  0.00    +0.000 A 
ATOM     26  C   UNL     1       5.738   4.863  17.777  0.00  0.00    +0.000 A 
ATOM     27  C   UNL     1       7.096   4.974  17.445  0.00  0.00    +0.000 A 
ATOM     28  C   UNL     1       7.533   4.843  16.119  0.00  0.00    +0.000 A 
BRANCH  23  30
ATOM     29  C   UNL     1       5.993   3.665  13.020  0.00  0.00    +0.000 C 
ATOM     30  O   UNL     1       6.922   4.432  13.778  0.00  0.00    +0.000 OA
ENDBRANCH  23  30
ENDBRANCH  21  26
ENDBRANCH   1  21
TORSDOF 7
ENDMDL
MODEL 8
REMARK VINA RESULT:      -7.6      1.814      7.922
REMARK  Name = 
REMARK  11 active torsions:
REMARK  status: ('A' for Active; 'I' for Inactive)
REMARK    1  A    between atoms: C_1  and  O_2
REMARK    2  A    between atoms: O_2  and  C_3
REMARK    3  A    between atoms: C_6  and  N_7
REMARK    4  A    between atoms: N_7  and  N_8
REMARK    5  A    between atoms: C_14  and  C_15
REMARK    6  A    between atoms: C_17  and  O_18
REMARK    7  A    between atoms: O_18  and  C_19
REMARK    8  A    between atoms: C_20  and  O_21
REMARK    9  A    between atoms: O_21  and  C_22
REMARK   10  A    between atoms: C_23  and  O_24
REMARK   11  A    between atoms: O_24  and  C_25
REMARK                            x       y       z     vdW  Elec       q    Type
REMARK                         _______ _______ _______ _____ _____    ______ ____
ROOT
ATOM      1  N   UNL     1       4.310   5.900  19.447  0.00  0.00    +0.000 NA
ATOM      2  C   UNL     1       3.306   5.217  19.901  0.00  0.00    +0.000 C 
ATOM      3  C   UNL     1       3.177   3.741  20.116  0.00  0.00    +0.000 C 
ATOM      4  O   UNL     1       4.066   2.925  20.043  0.00  0.00    +0.000 OA
ATOM      5  N   UNL     1       1.844   3.612  20.431  0.00  0.00    +0.000 N 
ATOM      6  N   UNL     1       1.137   4.801  20.525  0.00  0.00    +0.000 NA
ATOM      7  C   UNL     1       1.964   5.782  20.251  0.00  0.00    +0.000 C 
ATOM      8  H   UNL     1       1.401   2.733  20.674  0.00  0.00    +0.000 HD
ENDROOT
BRANCH   7   9
ATOM      9  C   UNL     1       1.611   7.201  20.302  0.00  0.00    +0.000 A 
ATOM     10  C   UNL     1       1.647   7.976  19.149  0.00  0.00    +0.000 A 
ATOM     11  C   UNL     1       1.315   9.333  19.190  0.00  0.00    +0.000 A 
ATOM     12  C   UNL     1       0.978   9.941  20.422  0.00  0.00    +0.000 A 
ATOM     13  C   UNL     1       0.992   9.168  21.604  0.00  0.00    +0.000 A 
ATOM     14  C   UNL     1       1.299   7.800  21.529  0.00  0.00    +0.000 A 
BRANCH  11  15
ATOM     15  O   UNL     1       1.333  10.123  18.062  0.00  0.00    +0.000 OA
ATOM     16  C   UNL     1       2.588  10.726  17.748  0.00  0.00    +0.000 C 
ENDBRANCH  11  15
BRANCH  12  17
ATOM     17  O   UNL     1       0.724  11.294  20.358  0.00  0.00    +0.000 OA
ATOM     18  C   UNL     1      -0.623  11.699  20.145  0.00  0.00    +0.000 C 
ENDBRANCH  12  17
BRANCH  13  19
ATOM     19  O   UNL     1       0.742   9.804  22.792  0.00  0.00    +0.000 OA
ATOM     20  C   UNL     1      -0.600   9.868  23.261  0.00  0.00    +0.000 C 
ENDBRANCH  13  19
ENDBRANCH   7   9
BRANCH   1  21
ATOM     21  N   UNL     1       5.432   5.200  19.127  0.00  0.00    +0.000 N 
ATOM     22  H   UNL     1       6.174   5.040  19.817  0.00  0.00    +0.000 HD
BRANCH  21  26
ATOM     23  C   UNL     1       6.516   4.859  15.048  0.00  0.00    +0.000 A 
ATOM     24  C   UNL     1       7.437   4.546  16.044  0.00  0.00    +0.000 A 
ATOM     25  C   UNL     1       7.083   4.645  17.394  0.00  0.00    +0.000 A 
ATOM     26  C   UNL     1       5.801   5.052  17.778  0.00  0.00    +0.000 A 
ATOM     27  C   UNL     1       4.900   5.416  16.766  0.00  0.00    +0.000 A 
ATOM     28  C   UNL     1       5.251   5.316  15.412  0.00  0.00    +0.000 A 
BRANCH  23  30
ATOM     29  C   UNL     1       6.290   3.772  12.964  0.00  0.00    +0.000 C 
ATOM     30  O   UNL     1       6.973   4.729  13.765  0.00  0.00    +0.000 OA
ENDBRANCH  23  30
ENDBRANCH  21  26
ENDBRANCH   1  21
TORSDOF 7
ENDMDL
MODEL 9
REMARK VINA RESULT:      -7.5      1.777      7.733
REMARK  Name = 
REMARK  11 active torsions:
REMARK  status: ('A' for Active; 'I' for Inactive)
REMARK    1  A    between atoms: C_1  and  O_2
REMARK    2  A    between atoms: O_2  and  C_3
REMARK    3  A    between atoms: C_6  and  N_7
REMARK    4  A    between atoms: N_7  and  N_8
REMARK    5  A    between atoms: C_14  and  C_15
REMARK    6  A    between atoms: C_17  and  O_18
REMARK    7  A    between atoms: O_18  and  C_19
REMARK    8  A    between atoms: C_20  and  O_21
REMARK    9  A    between atoms: O_21  and  C_22
REMARK   10  A    between atoms: C_23  and  O_24
REMARK   11  A    between atoms: O_24  and  C_25
REMARK                            x       y       z     vdW  Elec       q    Type
REMARK                         _______ _______ _______ _____ _____    ______ ____
ROOT
ATOM      1  N   UNL     1       4.339   5.700  19.427  0.00  0.00    +0.000 NA
ATOM      2  C   UNL     1       3.309   5.088  19.922  0.00  0.00    +0.000 C 
ATOM      3  C   UNL     1       3.102   3.627  20.180  0.00  0.00    +0.000 C 
ATOM      4  O   UNL     1       3.942   2.761  20.110  0.00  0.00    +0.000 OA
ATOM      5  N   UNL     1       1.772   3.583  20.529  0.00  0.00    +0.000 N 
ATOM      6  N   UNL     1       1.136   4.813  20.606  0.00  0.00    +0.000 NA
ATOM      7  C   UNL     1       2.009   5.737  20.286  0.00  0.00    +0.000 C 
ATOM      8  H   UNL     1       1.286   2.737  20.806  0.00  0.00    +0.000 HD
ENDROOT
BRANCH   7   9
ATOM      9  C   UNL     1       1.738   7.175  20.306  0.00  0.00    +0.000 A 
ATOM     10  C   UNL     1       1.370   7.804  21.490  0.00  0.00    +0.000 A 
ATOM     11  C   UNL     1       1.105   9.176  21.516  0.00  0.00    +0.000 A 
ATOM     12  C   UNL     1       1.171   9.932  20.322  0.00  0.00    +0.000 A 
ATOM     13  C   UNL     1       1.493   9.285  19.108  0.00  0.00    +0.000 A 
ATOM     14  C   UNL     1       1.785   7.911  19.116  0.00  0.00    +0.000 A 
BRANCH  11  15
ATOM     15  O   UNL     1       0.748   9.828  22.675  0.00  0.00    +0.000 OA
ATOM     16  C   UNL     1      -0.554   9.527  23.178  0.00  0.00    +0.000 C 
ENDBRANCH  11  15
BRANCH  12  17
ATOM     17  O   UNL     1       0.837  11.262  20.451  0.00  0.00    +0.000 OA
ATOM     18  C   UNL     1      -0.494  11.639  20.120  0.00  0.00    +0.000 C 
ENDBRANCH  12  17
BRANCH  13  19
ATOM     19  O   UNL     1       1.468  10.027  17.957  0.00  0.00    +0.000 OA
ATOM     20  C   UNL     1       2.422  11.070  17.798  0.00  0.00    +0.000 C 
ENDBRANCH  13  19
ENDBRANCH   7   9
BRANCH   1  21
ATOM     21  N   UNL     1       5.411   4.929  19.101  0.00  0.00    +0.000 N 
ATOM     22  H   UNL     1       6.168   4.760  19.772  0.00  0.00    +0.000 HD
BRANCH  21  26
ATOM     23  C   UNL     1       6.282   4.332  15.000  0.00  0.00    +0.000 A 
ATOM     24  C   UNL     1       7.312   4.582  15.904  0.00  0.00    +0.000 A 
ATOM     25  C   UNL     1       7.034   4.769  17.262  0.00  0.00    +0.000 A 
ATOM     26  C   UNL     1       5.723   4.704  17.748  0.00  0.00    +0.000 A 
ATOM     27  C   UNL     1       4.691   4.505  16.819  0.00  0.00    +0.000 A 
ATOM     28  C   UNL     1       4.966   4.315  15.457  0.00  0.00    +0.000 A 
BRANCH  23  30
ATOM     29  C   UNL     1       7.671   5.074  13.240  0.00  0.00    +0.000 C 
ATOM     30  O   UNL     1       6.672   4.170  13.699  0.00  0.00    +0.000 OA
ENDBRANCH  23  30
ENDBRANCH  21  26
ENDBRANCH   1  21
TORSDOF 7
ENDMDL
