MODEL 1
REMARK VINA RESULT:      -7.8      0.000      0.000
REMARK  Name = 
REMARK  2 active torsions:
REMARK  status: ('A' for Active; 'I' for Inactive)
REMARK    1  A    between atoms: C_1  and  N_2
REMARK    2  A    between atoms: C_8  and  C_10
REMARK                            x       y       z     vdW  Elec       q    Type
REMARK                         _______ _______ _______ _____ _____    ______ ____
ROOT
ATOM      1  C   UNL     1       7.694   4.746  17.837  0.00  0.00    +0.000 C 
ATOM      2  N   UNL     1       6.209   4.908  17.633  0.00  0.00    +0.000 N 
ATOM      3  C   UNL     1       5.680   4.158  16.404  0.00  0.00    +0.000 C 
ATOM      4  C   UNL     1       4.240   3.767  16.759  0.00  0.00    +0.000 C 
ATOM      5  C   UNL     1       3.980   4.331  18.161  0.00  0.00    +0.000 C 
ATOM      6  C   UNL     1       5.380   4.278  18.781  0.00  0.00    +0.000 C 
ATOM      7  N   UNL     1       3.512   5.741  18.113  0.00  0.00    +0.000 N 
ATOM      8  C   UNL     1       2.726   6.193  19.183  0.00  0.00    +0.000 C 
ATOM      9  O   UNL     1       2.541   5.485  20.169  0.00  0.00    +0.000 OA
ATOM     10  C   UNL     1       4.360   6.650  17.316  0.00  0.00    +0.000 C 
ATOM     11  C   UNL     1       5.864   6.415  17.558  0.00  0.00    +0.000 C 
ENDROOT
BRANCH   8  12
ATOM     12  C   UNL     1       2.120   7.563  19.137  0.00  0.00    +0.000 A 
ATOM     13  C   UNL     1       2.025   8.283  17.942  0.00  0.00    +0.000 A 
ATOM     14  C   UNL     1       1.564   9.595  17.950  0.00  0.00    +0.000 A 
ATOM     15  C   UNL     1       1.096  10.170  19.143  0.00  0.00    +0.000 A 
ATOM     16  C   UNL     1       0.592  11.473  19.165  0.00  0.00    +0.000 A 
ATOM     17  C   UNL     1       0.066  11.985  20.346  0.00  0.00    +0.000 A 
ATOM     18  C   UNL     1       0.087  11.174  21.466  0.00  0.00    +0.000 A 
ATOM     19  N   UNL     1       0.606   9.925  21.485  0.00  0.00    +0.000 NA
ATOM     20  C   UNL     1       1.095   9.421  20.339  0.00  0.00    +0.000 A 
ATOM     21  C   UNL     1       1.624   8.133  20.317  0.00  0.00    +0.000 A 
ENDBRANCH   8  12
TORSDOF 1
ENDMDL
MODEL 2
REMARK VINA RESULT:      -7.7      1.689      2.659
REMARK  Name = 
REMARK  2 active torsions:
REMARK  status: ('A' for Active; 'I' for Inactive)
REMARK    1  A    between atoms: C_1  and  N_2
REMARK    2  A    between atoms: C_8  and  C_10
REMARK                            x       y       z     vdW  Elec       q    Type
REMARK                         _______ _______ _______ _____ _____    ______ ____
ROOT
ATOM      1  C   UNL     1       2.583   1.971  17.829  0.00  0.00    +0.000 C 
ATOM      2  N   UNL     1       3.074   3.268  18.418  0.00  0.00    +0.000 N 
ATOM      3  C   UNL     1       4.242   3.087  19.397  0.00  0.00    +0.000 C 
ATOM      4  C   UNL     1       5.072   4.372  19.276  0.00  0.00    +0.000 C 
ATOM      5  C   UNL     1       4.339   5.257  18.261  0.00  0.00    +0.000 C 
ATOM      6  C   UNL     1       3.686   4.211  17.351  0.00  0.00    +0.000 C 
ATOM      7  N   UNL     1       3.284   6.082  18.905  0.00  0.00    +0.000 N 
ATOM      8  C   UNL     1       2.937   7.287  18.275  0.00  0.00    +0.000 C 
ATOM      9  O   UNL     1       3.403   7.577  17.178  0.00  0.00    +0.000 OA
ATOM     10  C   UNL     1       2.333   5.328  19.746  0.00  0.00    +0.000 C 
ATOM     11  C   UNL     1       1.891   4.004  19.092  0.00  0.00    +0.000 C 
ENDROOT
BRANCH   8  12
ATOM     12  C   UNL     1       1.971   8.223  18.937  0.00  0.00    +0.000 A 
ATOM     13  C   UNL     1       1.243   9.165  18.204  0.00  0.00    +0.000 A 
ATOM     14  C   UNL     1       0.443  10.095  18.858  0.00  0.00    +0.000 A 
ATOM     15  C   UNL     1       0.284  10.030  20.252  0.00  0.00    +0.000 A 
ATOM     16  C   UNL     1      -0.547  10.930  20.925  0.00  0.00    +0.000 A 
ATOM     17  C   UNL     1      -0.743  10.790  22.295  0.00  0.00    +0.000 A 
ATOM     18  C   UNL     1      -0.080   9.762  22.939  0.00  0.00    +0.000 A 
ATOM     19  N   UNL     1       0.763   8.902  22.323  0.00  0.00    +0.000 NA
ATOM     20  C   UNL     1       0.936   9.022  20.995  0.00  0.00    +0.000 A 
ATOM     21  C   UNL     1       1.784   8.146  20.323  0.00  0.00    +0.000 A 
ENDBRANCH   8  12
TORSDOF 1
ENDMDL
MODEL 3
REMARK VINA RESULT:      -7.6      1.043      1.207
REMARK  Name = 
REMARK  2 active torsions:
REMARK  status: ('A' for Active; 'I' for Inactive)
REMARK    1  A    between atoms: C_1  and  N_2
REMARK    2  A    between atoms: C_8  and  C_10
REMARK                            x       y       z     vdW  Elec       q    Type
REMARK                         _______ _______ _______ _____ _____    ______ ____
ROOT
ATOM      1  C   UNL     1       8.055   4.561  18.024  0.00  0.00    +0.000 C 
ATOM      2  N   UNL     1       6.761   5.044  17.421  0.00  0.00    +0.000 N 
ATOM      3  C   UNL     1       6.802   5.136  15.890  0.00  0.00    +0.000 C 
ATOM      4  C   UNL     1       5.365   4.857  15.430  0.00  0.00    +0.000 C 
ATOM      5  C   UNL     1       4.544   4.646  16.708  0.00  0.00    +0.000 C 
ATOM      6  C   UNL     1       5.591   4.053  17.656  0.00  0.00    +0.000 C 
ATOM      7  N   UNL     1       4.043   5.931  17.263  0.00  0.00    +0.000 N 
ATOM      8  C   UNL     1       2.875   5.883  18.039  0.00  0.00    +0.000 C 
ATOM      9  O   UNL     1       2.366   4.808  18.340  0.00  0.00    +0.000 OA
ATOM     10  C   UNL     1       5.075   6.970  17.453  0.00  0.00    +0.000 C 
ATOM     11  C   UNL     1       6.377   6.403  18.052  0.00  0.00    +0.000 C 
ENDROOT
BRANCH   8  12
ATOM     12  C   UNL     1       2.249   7.156  18.524  0.00  0.00    +0.000 A 
ATOM     13  C   UNL     1       1.918   8.192  17.646  0.00  0.00    +0.000 A 
ATOM     14  C   UNL     1       1.446   9.404  18.138  0.00  0.00    +0.000 A 
ATOM     15  C   UNL     1       1.205   9.559  19.513  0.00  0.00    +0.000 A 
ATOM     16  C   UNL     1       0.693  10.755  20.024  0.00  0.00    +0.000 A 
ATOM     17  C   UNL     1       0.394  10.849  21.379  0.00  0.00    +0.000 A 
ATOM     18  C   UNL     1       0.640   9.744  22.171  0.00  0.00    +0.000 A 
ATOM     19  N   UNL     1       1.173   8.588  21.714  0.00  0.00    +0.000 NA
ATOM     20  C   UNL     1       1.442   8.487  20.401  0.00  0.00    +0.000 A 
ATOM     21  C   UNL     1       1.978   7.309  19.890  0.00  0.00    +0.000 A 
ENDBRANCH   8  12
TORSDOF 1
ENDMDL
MODEL 4
REMARK VINA RESULT:      -7.6      2.286      3.612
REMARK  Name = 
REMARK  2 active torsions:
REMARK  status: ('A' for Active; 'I' for Inactive)
REMARK    1  A    between atoms: C_1  and  N_2
REMARK    2  A    between atoms: C_8  and  C_10
REMARK                            x       y       z     vdW  Elec       q    Type
REMARK                         _______ _______ _______ _____ _____    ______ ____
ROOT
ATOM      1  C   UNL     1       1.499   2.689  18.544  0.00  0.00    +0.000 C 
ATOM      2  N   UNL     1       2.128   3.950  19.079  0.00  0.00    +0.000 N 
ATOM      3  C   UNL     1       3.536   3.731  19.647  0.00  0.00    +0.000 C 
ATOM      4  C   UNL     1       4.279   5.052  19.405  0.00  0.00    +0.000 C 
ATOM      5  C   UNL     1       3.267   5.991  18.738  0.00  0.00    +0.000 C 
ATOM      6  C   UNL     1       2.384   5.002  17.970  0.00  0.00    +0.000 C 
ATOM      7  N   UNL     1       2.443   6.718  19.738  0.00  0.00    +0.000 N 
ATOM      8  C   UNL     1       1.910   7.958  19.353  0.00  0.00    +0.000 C 
ATOM      9  O   UNL     1       2.025   8.358  18.198  0.00  0.00    +0.000 OA
ATOM     10  C   UNL     1       1.793   5.860  20.750  0.00  0.00    +0.000 C 
ATOM     11  C   UNL     1       1.191   4.581  20.137  0.00  0.00    +0.000 C 
ENDROOT
BRANCH   8  12
ATOM     12  C   UNL     1       1.175   8.798  20.354  0.00  0.00    +0.000 A 
ATOM     13  C   UNL     1       1.368   8.637  21.729  0.00  0.00    +0.000 A 
ATOM     14  C   UNL     1       0.588   9.349  22.633  0.00  0.00    +0.000 A 
ATOM     15  C   UNL     1      -0.327  10.308  22.171  0.00  0.00    +0.000 A 
ATOM     16  C   UNL     1      -1.092  11.064  23.064  0.00  0.00    +0.000 A 
ATOM     17  C   UNL     1      -1.933  12.058  22.576  0.00  0.00    +0.000 A 
ATOM     18  C   UNL     1      -1.988  12.242  21.207  0.00  0.00    +0.000 A 
ATOM     19  N   UNL     1      -1.292  11.499  20.316  0.00  0.00    +0.000 NA
ATOM     20  C   UNL     1      -0.462  10.552  20.787  0.00  0.00    +0.000 A 
ATOM     21  C   UNL     1       0.282   9.777  19.901  0.00  0.00    +0.000 A 
ENDBRANCH   8  12
TORSDOF 1
ENDMDL
MODEL 5
REMARK VINA RESULT:      -7.4      1.681      7.150
REMARK  Name = 
REMARK  2 active torsions:
REMARK  status: ('A' for Active; 'I' for Inactive)
REMARK    1  A    between atoms: C_1  and  N_2
REMARK    2  A    between atoms: C_8  and  C_10
REMARK                            x       y       z     vdW  Elec       q    Type
REMARK                         _______ _______ _______ _____ _____    ______ ____
ROOT
ATOM      1  C   UNL     1      -2.384  11.188  18.668  0.00  0.00    +0.000 C 
ATOM      2  N   UNL     1      -0.924  10.850  18.822  0.00  0.00    +0.000 N 
ATOM      3  C   UNL     1      -0.003  12.074  18.727  0.00  0.00    +0.000 C 
ATOM      4  C   UNL     1       1.197  11.746  19.625  0.00  0.00    +0.000 C 
ATOM      5  C   UNL     1       0.943  10.339  20.177  0.00  0.00    +0.000 C 
ATOM      6  C   UNL     1      -0.588  10.298  20.232  0.00  0.00    +0.000 C 
ATOM      7  N   UNL     1       1.435   9.284  19.253  0.00  0.00    +0.000 N 
ATOM      8  C   UNL     1       1.788   8.049  19.818  0.00  0.00    +0.000 C 
ATOM      9  O   UNL     1       1.581   7.822  21.007  0.00  0.00    +0.000 OA
ATOM     10  C   UNL     1       0.960   9.408  17.860  0.00  0.00    +0.000 C 
ATOM     11  C   UNL     1      -0.534   9.776  17.778  0.00  0.00    +0.000 C 
ENDROOT
BRANCH   8  12
ATOM     12  C   UNL     1       2.407   6.987  18.962  0.00  0.00    +0.000 A 
ATOM     13  C   UNL     1       1.964   5.661  19.002  0.00  0.00    +0.000 A 
ATOM     14  C   UNL     1       2.632   4.677  18.282  0.00  0.00    +0.000 A 
ATOM     15  C   UNL     1       3.694   5.026  17.432  0.00  0.00    +0.000 A 
ATOM     16  C   UNL     1       4.354   4.058  16.669  0.00  0.00    +0.000 A 
ATOM     17  C   UNL     1       5.350   4.448  15.781  0.00  0.00    +0.000 A 
ATOM     18  C   UNL     1       5.659   5.793  15.707  0.00  0.00    +0.000 A 
ATOM     19  N   UNL     1       5.068   6.747  16.462  0.00  0.00    +0.000 NA
ATOM     20  C   UNL     1       4.090   6.375  17.306  0.00  0.00    +0.000 A 
ATOM     21  C   UNL     1       3.447   7.330  18.089  0.00  0.00    +0.000 A 
ENDBRANCH   8  12
TORSDOF 1
ENDMDL
MODEL 6
REMARK VINA RESULT:      -7.3      2.691      7.271
REMARK  Name = 
REMARK  2 active torsions:
REMARK  status: ('A' for Active; 'I' for Inactive)
REMARK    1  A    between atoms: C_1  and  N_2
REMARK    2  A    between atoms: C_8  and  C_10
REMARK                            x       y       z     vdW  Elec       q    Type
REMARK                         _______ _______ _______ _____ _____    ______ ____
ROOT
ATOM      1  C   UNL     1      -2.438  12.195  19.854  0.00  0.00    +0.000 C 
ATOM      2  N   UNL     1      -1.029  11.661  19.833  0.00  0.00    +0.000 N 
ATOM      3  C   UNL     1       0.007  12.699  19.381  0.00  0.00    +0.000 C 
ATOM      4  C   UNL     1       1.299  12.329  20.122  0.00  0.00    +0.000 C 
ATOM      5  C   UNL     1       0.972  11.078  20.945  0.00  0.00    +0.000 C 
ATOM      6  C   UNL     1      -0.516  11.283  21.247  0.00  0.00    +0.000 C 
ATOM      7  N   UNL     1       1.151   9.832  20.155  0.00  0.00    +0.000 N 
ATOM      8  C   UNL     1       1.441   8.656  20.865  0.00  0.00    +0.000 C 
ATOM      9  O   UNL     1       1.425   8.646  22.092  0.00  0.00    +0.000 OA
ATOM     10  C   UNL     1       0.452   9.816  18.854  0.00  0.00    +0.000 C 
ATOM     11  C   UNL     1      -0.974  10.395  18.945  0.00  0.00    +0.000 C 
ENDROOT
BRANCH   8  12
ATOM     12  C   UNL     1       1.754   7.394  20.121  0.00  0.00    +0.000 A 
ATOM     13  C   UNL     1       2.437   7.411  18.900  0.00  0.00    +0.000 A 
ATOM     14  C   UNL     1       2.611   6.236  18.179  0.00  0.00    +0.000 A 
ATOM     15  C   UNL     1       2.191   5.009  18.719  0.00  0.00    +0.000 A 
ATOM     16  C   UNL     1       2.392   3.811  18.028  0.00  0.00    +0.000 A 
ATOM     17  C   UNL     1       2.034   2.607  18.624  0.00  0.00    +0.000 A 
ATOM     18  C   UNL     1       1.468   2.655  19.885  0.00  0.00    +0.000 A 
ATOM     19  N   UNL     1       1.223   3.801  20.560  0.00  0.00    +0.000 NA
ATOM     20  C   UNL     1       1.588   4.964  19.995  0.00  0.00    +0.000 A 
ATOM     21  C   UNL     1       1.365   6.163  20.666  0.00  0.00    +0.000 A 
ENDBRANCH   8  12
TORSDOF 1
ENDMDL
MODEL 7
REMARK VINA RESULT:      -7.3      4.235      7.335
REMARK  Name = 
REMARK  2 active torsions:
REMARK  status: ('A' for Active; 'I' for Inactive)
REMARK    1  A    between atoms: C_1  and  N_2
REMARK    2  A    between atoms: C_8  and  C_10
REMARK                            x       y       z     vdW  Elec       q    Type
REMARK                         _______ _______ _______ _____ _____    ______ ____
ROOT
ATOM      1  C   UNL     1       2.865   2.202  21.606  0.00  0.00    +0.000 C 
ATOM      2  N   UNL     1       2.652   2.781  20.231  0.00  0.00    +0.000 N 
ATOM      3  C   UNL     1       1.311   2.378  19.603  0.00  0.00    +0.000 C 
ATOM      4  C   UNL     1       0.915   3.557  18.705  0.00  0.00    +0.000 C 
ATOM      5  C   UNL     1       2.051   4.580  18.822  0.00  0.00    +0.000 C 
ATOM      6  C   UNL     1       2.551   4.329  20.248  0.00  0.00    +0.000 C 
ATOM      7  N   UNL     1       3.147   4.303  17.856  0.00  0.00    +0.000 N 
ATOM      8  C   UNL     1       3.935   5.391  17.450  0.00  0.00    +0.000 C 
ATOM      9  O   UNL     1       3.794   6.495  17.967  0.00  0.00    +0.000 OA
ATOM     10  C   UNL     1       3.664   2.920  17.883  0.00  0.00    +0.000 C 
ATOM     11  C   UNL     1       3.837   2.385  19.319  0.00  0.00    +0.000 C 
ENDROOT
BRANCH   8  12
ATOM     12  C   UNL     1       4.974   5.203  16.387  0.00  0.00    +0.000 A 
ATOM     13  C   UNL     1       6.266   5.722  16.522  0.00  0.00    +0.000 A 
ATOM     14  C   UNL     1       7.171   5.631  15.471  0.00  0.00    +0.000 A 
ATOM     15  C   UNL     1       6.827   4.928  14.305  0.00  0.00    +0.000 A 
ATOM     16  C   UNL     1       7.736   4.790  13.252  0.00  0.00    +0.000 A 
ATOM     17  C   UNL     1       7.392   4.023  12.144  0.00  0.00    +0.000 A 
ATOM     18  C   UNL     1       6.138   3.441  12.128  0.00  0.00    +0.000 A 
ATOM     19  N   UNL     1       5.222   3.591  13.112  0.00  0.00    +0.000 NA
ATOM     20  C   UNL     1       5.561   4.313  14.193  0.00  0.00    +0.000 A 
ATOM     21  C   UNL     1       4.650   4.477  15.232  0.00  0.00    +0.000 A 
ENDBRANCH   8  12
TORSDOF 1
ENDMDL
MODEL 8
REMARK VINA RESULT:      -7.2      1.299      1.922
REMARK  Name = 
REMARK  2 active torsions:
REMARK  status: ('A' for Active; 'I' for Inactive)
REMARK    1  A    between atoms: C_1  and  N_2
REMARK    2  A    between atoms: C_8  and  C_10
REMARK                            x       y       z     vdW  Elec       q    Type
REMARK                         _______ _______ _______ _____ _____    ______ ____
ROOT
ATOM      1  C   UNL     1       8.004   4.370  17.716  0.00  0.00    +0.000 C 
ATOM      2  N   UNL     1       6.742   5.041  17.240  0.00  0.00    +0.000 N 
ATOM      3  C   UNL     1       6.813   5.500  15.778  0.00  0.00    +0.000 C 
ATOM      4  C   UNL     1       5.373   5.406  15.255  0.00  0.00    +0.000 C 
ATOM      5  C   UNL     1       4.523   4.928  16.438  0.00  0.00    +0.000 C 
ATOM      6  C   UNL     1       5.528   4.077  17.221  0.00  0.00    +0.000 C 
ATOM      7  N   UNL     1       4.067   6.061  17.286  0.00  0.00    +0.000 N 
ATOM      8  C   UNL     1       2.885   5.879  18.020  0.00  0.00    +0.000 C 
ATOM      9  O   UNL     1       2.326   4.787  18.048  0.00  0.00    +0.000 OA
ATOM     10  C   UNL     1       5.138   6.976  17.729  0.00  0.00    +0.000 C 
ATOM     11  C   UNL     1       6.405   6.223  18.180  0.00  0.00    +0.000 C 
ENDROOT
BRANCH   8  12
ATOM     12  C   UNL     1       2.305   7.023  18.795  0.00  0.00    +0.000 A 
ATOM     13  C   UNL     1       2.058   6.929  20.168  0.00  0.00    +0.000 A 
ATOM     14  C   UNL     1       1.414   7.964  20.837  0.00  0.00    +0.000 A 
ATOM     15  C   UNL     1       1.098   9.152  20.157  0.00  0.00    +0.000 A 
ATOM     16  C   UNL     1       0.486  10.220  20.819  0.00  0.00    +0.000 A 
ATOM     17  C   UNL     1       0.257  11.409  20.136  0.00  0.00    +0.000 A 
ATOM     18  C   UNL     1       0.633  11.472  18.808  0.00  0.00    +0.000 A 
ATOM     19  N   UNL     1       1.188  10.443  18.129  0.00  0.00    +0.000 NA
ATOM     20  C   UNL     1       1.430   9.300  18.793  0.00  0.00    +0.000 A 
ATOM     21  C   UNL     1       2.014   8.223  18.132  0.00  0.00    +0.000 A 
ENDBRANCH   8  12
TORSDOF 1
ENDMDL
MODEL 9
REMARK VINA RESULT:      -7.2      1.926      3.028
REMARK  Name = 
REMARK  2 active torsions:
REMARK  status: ('A' for Active; 'I' for Inactive)
REMARK    1  A    between atoms: C_1  and  N_2
REMARK    2  A    between atoms: C_8  and  C_10
REMARK                            x       y       z     vdW  Elec       q    Type
REMARK                         _______ _______ _______ _____ _____    ______ ____
ROOT
ATOM      1  C   UNL     1       2.295   2.170  18.029  0.00  0.00    +0.000 C 
ATOM      2  N   UNL     1       2.839   3.455  18.596  0.00  0.00    +0.000 N 
ATOM      3  C   UNL     1       4.086   3.254  19.467  0.00  0.00    +0.000 C 
ATOM      4  C   UNL     1       4.908   4.538  19.297  0.00  0.00    +0.000 C 
ATOM      5  C   UNL     1       4.095   5.443  18.364  0.00  0.00    +0.000 C 
ATOM      6  C   UNL     1       3.362   4.415  17.496  0.00  0.00    +0.000 C 
ATOM      7  N   UNL     1       3.103   6.260  19.110  0.00  0.00    +0.000 N 
ATOM      8  C   UNL     1       2.708   7.476  18.533  0.00  0.00    +0.000 C 
ATOM      9  O   UNL     1       3.080   7.784  17.404  0.00  0.00    +0.000 OA
ATOM     10  C   UNL     1       2.224   5.494  20.017  0.00  0.00    +0.000 C 
ATOM     11  C   UNL     1       1.722   4.183  19.380  0.00  0.00    +0.000 C 
ENDROOT
BRANCH   8  12
ATOM     12  C   UNL     1       1.807   8.404  19.290  0.00  0.00    +0.000 A 
ATOM     13  C   UNL     1       1.600   8.265  20.666  0.00  0.00    +0.000 A 
ATOM     14  C   UNL     1       0.671   9.067  21.319  0.00  0.00    +0.000 A 
ATOM     15  C   UNL     1       0.008  10.089  20.620  0.00  0.00    +0.000 A 
ATOM     16  C   UNL     1      -0.900  10.932  21.266  0.00  0.00    +0.000 A 
ATOM     17  C   UNL     1      -1.480  11.982  20.563  0.00  0.00    +0.000 A 
ATOM     18  C   UNL     1      -1.141  12.131  19.231  0.00  0.00    +0.000 A 
ATOM     19  N   UNL     1      -0.299  11.307  18.568  0.00  0.00    +0.000 NA
ATOM     20  C   UNL     1       0.280  10.305  19.251  0.00  0.00    +0.000 A 
ATOM     21  C   UNL     1       1.164   9.444  18.607  0.00  0.00    +0.000 A 
ENDBRANCH   8  12
TORSDOF 1
ENDMDL
