MODEL 1
REMARK VINA RESULT:      -7.9      0.000      0.000
REMARK  Name = 
REMARK  3 active torsions:
REMARK  status: ('A' for Active; 'I' for Inactive)
REMARK    1  A    between atoms: C_2  and  C_3
REMARK    2  A    between atoms: C_2  and  C_15
REMARK    3  A    between atoms: C_4  and  C_5
REMARK                            x       y       z     vdW  Elec       q    Type
REMARK                         _______ _______ _______ _____ _____    ______ ____
ROOT
ATOM      1  C   UNL     1       5.871   5.083  15.157  0.00  0.00    +0.000 C 
ATOM      2  C   UNL     1       5.810   4.191  16.157  0.00  0.00    +0.000 C 
ENDROOT
BRANCH   2   3
ATOM      3  C   UNL     1       4.874   4.322  17.284  0.00  0.00    +0.000 A 
ATOM      4  C   UNL     1       5.032   5.318  18.250  0.00  0.00    +0.000 A 
ATOM      5  C   UNL     1       4.118   5.446  19.302  0.00  0.00    +0.000 A 
ATOM      6  C   UNL     1       3.020   4.614  19.416  0.00  0.00    +0.000 A 
ATOM      7  N   UNL     1       2.174   4.793  20.445  0.00  0.00    +0.000 NA
ATOM      8  C   UNL     1       1.099   3.980  20.527  0.00  0.00    +0.000 A 
ATOM      9  C   UNL     1       0.823   2.975  19.622  0.00  0.00    +0.000 A 
ATOM     10  C   UNL     1       1.706   2.792  18.561  0.00  0.00    +0.000 A 
ATOM     11  C   UNL     1       2.836   3.617  18.437  0.00  0.00    +0.000 A 
ATOM     12  C   UNL     1       3.759   3.479  17.376  0.00  0.00    +0.000 A 
ENDBRANCH   2   3
BRANCH   1  14
ATOM     13  O   UNL     1       7.874   5.451  13.928  0.00  0.00    +0.000 OA
ATOM     14  C   UNL     1       6.787   4.892  14.001  0.00  0.00    +0.000 C 
BRANCH  14  15
ATOM     15  C   UNL     1       6.345   3.935  12.953  0.00  0.00    +0.000 A 
ATOM     16  C   UNL     1       4.978   3.821  12.673  0.00  0.00    +0.000 A 
ATOM     17  C   UNL     1       4.537   2.912  11.709  0.00  0.00    +0.000 A 
ATOM     18  C   UNL     1       5.456   2.108  11.033  0.00  0.00    +0.000 A 
ATOM     19  C   UNL     1       6.817   2.214  11.314  0.00  0.00    +0.000 A 
ATOM     20  C   UNL     1       7.264   3.125  12.273  0.00  0.00    +0.000 A 
ENDBRANCH  14  15
ENDBRANCH   1  14
TORSDOF 3
ENDMDL
MODEL 2
REMARK VINA RESULT:      -7.9      0.109      1.088
REMARK  Name = 
REMARK  3 active torsions:
REMARK  status: ('A' for Active; 'I' for Inactive)
REMARK    1  A    between atoms: C_2  and  C_3
REMARK    2  A    between atoms: C_2  and  C_15
REMARK    3  A    between atoms: C_4  and  C_5
REMARK                            x       y       z     vdW  Elec       q    Type
REMARK                         _______ _______ _______ _____ _____    ______ ____
ROOT
ATOM      1  C   UNL     1       5.935   5.092  15.169  0.00  0.00    +0.000 C 
ATOM      2  C   UNL     1       5.782   4.126  16.086  0.00  0.00    +0.000 C 
ENDROOT
BRANCH   2   3
ATOM      3  C   UNL     1       4.894   4.268  17.250  0.00  0.00    +0.000 A 
ATOM      4  C   UNL     1       5.163   5.191  18.263  0.00  0.00    +0.000 A 
ATOM      5  C   UNL     1       4.296   5.332  19.352  0.00  0.00    +0.000 A 
ATOM      6  C   UNL     1       3.135   4.587  19.457  0.00  0.00    +0.000 A 
ATOM      7  N   UNL     1       2.338   4.775  20.523  0.00  0.00    +0.000 NA
ATOM      8  C   UNL     1       1.203   4.050  20.597  0.00  0.00    +0.000 A 
ATOM      9  C   UNL     1       0.817   3.124  19.648  0.00  0.00    +0.000 A 
ATOM     10  C   UNL     1       1.649   2.930  18.549  0.00  0.00    +0.000 A 
ATOM     11  C   UNL     1       2.839   3.667  18.432  0.00  0.00    +0.000 A 
ATOM     12  C   UNL     1       3.716   3.514  17.334  0.00  0.00    +0.000 A 
ENDBRANCH   2   3
BRANCH   1  14
ATOM     13  O   UNL     1       7.872   5.465  13.837  0.00  0.00    +0.000 OA
ATOM     14  C   UNL     1       6.796   4.896  13.970  0.00  0.00    +0.000 C 
BRANCH  14  15
ATOM     15  C   UNL     1       6.312   3.922  12.957  0.00  0.00    +0.000 A 
ATOM     16  C   UNL     1       7.244   3.124  12.284  0.00  0.00    +0.000 A 
ATOM     17  C   UNL     1       6.815   2.218  11.312  0.00  0.00    +0.000 A 
ATOM     18  C   UNL     1       5.458   2.117  11.001  0.00  0.00    +0.000 A 
ATOM     19  C   UNL     1       4.527   2.916  11.664  0.00  0.00    +0.000 A 
ATOM     20  C   UNL     1       4.951   3.819  12.640  0.00  0.00    +0.000 A 
ENDBRANCH  14  15
ENDBRANCH   1  14
TORSDOF 3
ENDMDL
MODEL 3
REMARK VINA RESULT:      -7.8      6.592      9.147
REMARK  Name = 
REMARK  3 active torsions:
REMARK  status: ('A' for Active; 'I' for Inactive)
REMARK    1  A    between atoms: C_2  and  C_3
REMARK    2  A    between atoms: C_2  and  C_15
REMARK    3  A    between atoms: C_4  and  C_5
REMARK                            x       y       z     vdW  Elec       q    Type
REMARK                         _______ _______ _______ _____ _____    ______ ____
ROOT
ATOM      1  C   UNL     1       8.056   7.654  17.912  0.00  0.00    +0.000 C 
ATOM      2  C   UNL     1       7.940   8.977  17.724  0.00  0.00    +0.000 C 
ENDROOT
BRANCH   2   3
ATOM      3  C   UNL     1       8.827   9.954  18.374  0.00  0.00    +0.000 A 
ATOM      4  C   UNL     1       8.949  10.013  19.764  0.00  0.00    +0.000 A 
ATOM      5  C   UNL     1       9.816  10.931  20.368  0.00  0.00    +0.000 A 
ATOM      6  C   UNL     1      10.597  11.792  19.619  0.00  0.00    +0.000 A 
ATOM      7  N   UNL     1      11.417  12.645  20.258  0.00  0.00    +0.000 NA
ATOM      8  C   UNL     1      12.183  13.465  19.508  0.00  0.00    +0.000 A 
ATOM      9  C   UNL     1      12.168  13.484  18.127  0.00  0.00    +0.000 A 
ATOM     10  C   UNL     1      11.313  12.602  17.472  0.00  0.00    +0.000 A 
ATOM     11  C   UNL     1      10.501  11.730  18.215  0.00  0.00    +0.000 A 
ATOM     12  C   UNL     1       9.621  10.810  17.600  0.00  0.00    +0.000 A 
ENDBRANCH   2   3
BRANCH   1  14
ATOM     13  O   UNL     1       7.541   6.111  16.175  0.00  0.00    +0.000 OA
ATOM     14  C   UNL     1       7.181   6.688  17.194  0.00  0.00    +0.000 C 
BRANCH  14  15
ATOM     15  C   UNL     1       5.857   6.406  17.808  0.00  0.00    +0.000 A 
ATOM     16  C   UNL     1       5.783   5.506  18.877  0.00  0.00    +0.000 A 
ATOM     17  C   UNL     1       4.548   5.208  19.455  0.00  0.00    +0.000 A 
ATOM     18  C   UNL     1       3.384   5.798  18.959  0.00  0.00    +0.000 A 
ATOM     19  C   UNL     1       3.453   6.690  17.890  0.00  0.00    +0.000 A 
ATOM     20  C   UNL     1       4.686   6.994  17.312  0.00  0.00    +0.000 A 
ENDBRANCH  14  15
ENDBRANCH   1  14
TORSDOF 3
ENDMDL
MODEL 4
REMARK VINA RESULT:      -7.8      6.600      9.120
REMARK  Name = 
REMARK  3 active torsions:
REMARK  status: ('A' for Active; 'I' for Inactive)
REMARK    1  A    between atoms: C_2  and  C_3
REMARK    2  A    between atoms: C_2  and  C_15
REMARK    3  A    between atoms: C_4  and  C_5
REMARK                            x       y       z     vdW  Elec       q    Type
REMARK                         _______ _______ _______ _____ _____    ______ ____
ROOT
ATOM      1  C   UNL     1       8.012   7.669  17.970  0.00  0.00    +0.000 C 
ATOM      2  C   UNL     1       7.988   8.976  17.668  0.00  0.00    +0.000 C 
ENDROOT
BRANCH   2   3
ATOM      3  C   UNL     1       8.845   9.964  18.341  0.00  0.00    +0.000 A 
ATOM      4  C   UNL     1       8.972   9.990  19.732  0.00  0.00    +0.000 A 
ATOM      5  C   UNL     1       9.811  10.920  20.356  0.00  0.00    +0.000 A 
ATOM      6  C   UNL     1      10.560  11.826  19.628  0.00  0.00    +0.000 A 
ATOM      7  N   UNL     1      11.354  12.688  20.286  0.00  0.00    +0.000 NA
ATOM      8  C   UNL     1      12.088  13.553  19.555  0.00  0.00    +0.000 A 
ATOM      9  C   UNL     1      12.066  13.608  18.176  0.00  0.00    +0.000 A 
ATOM     10  C   UNL     1      11.238  12.716  17.501  0.00  0.00    +0.000 A 
ATOM     11  C   UNL     1      10.458  11.798  18.224  0.00  0.00    +0.000 A 
ATOM     12  C   UNL     1       9.607  10.866  17.588  0.00  0.00    +0.000 A 
ENDBRANCH   2   3
BRANCH   1  14
ATOM     13  O   UNL     1       7.563   6.135  16.208  0.00  0.00    +0.000 OA
ATOM     14  C   UNL     1       7.176   6.685  17.231  0.00  0.00    +0.000 C 
BRANCH  14  15
ATOM     15  C   UNL     1       5.856   6.353  17.829  0.00  0.00    +0.000 A 
ATOM     16  C   UNL     1       4.706   6.963  17.314  0.00  0.00    +0.000 A 
ATOM     17  C   UNL     1       3.458   6.684  17.875  0.00  0.00    +0.000 A 
ATOM     18  C   UNL     1       3.357   5.806  18.956  0.00  0.00    +0.000 A 
ATOM     19  C   UNL     1       4.501   5.202  19.475  0.00  0.00    +0.000 A 
ATOM     20  C   UNL     1       5.750   5.474  18.915  0.00  0.00    +0.000 A 
ENDBRANCH  14  15
ENDBRANCH   1  14
TORSDOF 3
ENDMDL
MODEL 5
REMARK VINA RESULT:      -7.7      3.047      7.453
REMARK  Name = 
REMARK  3 active torsions:
REMARK  status: ('A' for Active; 'I' for Inactive)
REMARK    1  A    between atoms: C_2  and  C_3
REMARK    2  A    between atoms: C_2  and  C_15
REMARK    3  A    between atoms: C_4  and  C_5
REMARK                            x       y       z     vdW  Elec       q    Type
REMARK                         _______ _______ _______ _____ _____    ______ ____
ROOT
ATOM      1  C   UNL     1       3.344   6.233  18.163  0.00  0.00    +0.000 C 
ATOM      2  C   UNL     1       4.311   5.315  18.020  0.00  0.00    +0.000 C 
ENDROOT
BRANCH   2   3
ATOM      3  C   UNL     1       5.223   5.292  16.865  0.00  0.00    +0.000 A 
ATOM      4  C   UNL     1       6.452   5.954  16.895  0.00  0.00    +0.000 A 
ATOM      5  C   UNL     1       7.319   5.903  15.798  0.00  0.00    +0.000 A 
ATOM      6  C   UNL     1       7.008   5.183  14.660  0.00  0.00    +0.000 A 
ATOM      7  N   UNL     1       7.886   5.165  13.643  0.00  0.00    +0.000 NA
ATOM      8  C   UNL     1       7.570   4.442  12.548  0.00  0.00    +0.000 A 
ATOM      9  C   UNL     1       6.397   3.727  12.410  0.00  0.00    +0.000 A 
ATOM     10  C   UNL     1       5.489   3.753  13.465  0.00  0.00    +0.000 A 
ATOM     11  C   UNL     1       5.780   4.492  14.623  0.00  0.00    +0.000 A 
ATOM     12  C   UNL     1       4.897   4.546  15.725  0.00  0.00    +0.000 A 
ENDBRANCH   2   3
BRANCH   1  14
ATOM     13  O   UNL     1       2.089   7.314  19.871  0.00  0.00    +0.000 OA
ATOM     14  C   UNL     1       2.477   6.265  19.372  0.00  0.00    +0.000 C 
BRANCH  14  15
ATOM     15  C   UNL     1       2.049   4.951  19.918  0.00  0.00    +0.000 A 
ATOM     16  C   UNL     1       2.475   4.577  21.198  0.00  0.00    +0.000 A 
ATOM     17  C   UNL     1       2.106   3.337  21.723  0.00  0.00    +0.000 A 
ATOM     18  C   UNL     1       1.320   2.465  20.968  0.00  0.00    +0.000 A 
ATOM     19  C   UNL     1       0.899   2.831  19.690  0.00  0.00    +0.000 A 
ATOM     20  C   UNL     1       1.262   4.071  19.163  0.00  0.00    +0.000 A 
ENDBRANCH  14  15
ENDBRANCH   1  14
TORSDOF 3
ENDMDL
MODEL 6
REMARK VINA RESULT:      -7.7      4.045      5.669
REMARK  Name = 
REMARK  3 active torsions:
REMARK  status: ('A' for Active; 'I' for Inactive)
REMARK    1  A    between atoms: C_2  and  C_3
REMARK    2  A    between atoms: C_2  and  C_15
REMARK    3  A    between atoms: C_4  and  C_5
REMARK                            x       y       z     vdW  Elec       q    Type
REMARK                         _______ _______ _______ _____ _____    ______ ____
ROOT
ATOM      1  C   UNL     1       2.474   5.186  18.035  0.00  0.00    +0.000 C 
ATOM      2  C   UNL     1       3.000   6.420  18.019  0.00  0.00    +0.000 C 
ENDROOT
BRANCH   2   3
ATOM      3  C   UNL     1       2.311   7.586  18.594  0.00  0.00    +0.000 A 
ATOM      4  C   UNL     1       1.941   8.676  17.804  0.00  0.00    +0.000 A 
ATOM      5  C   UNL     1       1.263   9.767  18.361  0.00  0.00    +0.000 A 
ATOM      6  C   UNL     1       0.915   9.799  19.699  0.00  0.00    +0.000 A 
ATOM      7  N   UNL     1       0.257  10.871  20.173  0.00  0.00    +0.000 NA
ATOM      8  C   UNL     1      -0.087  10.874  21.478  0.00  0.00    +0.000 A 
ATOM      9  C   UNL     1       0.202   9.846  22.353  0.00  0.00    +0.000 A 
ATOM     10  C   UNL     1       0.888   8.740  21.857  0.00  0.00    +0.000 A 
ATOM     11  C   UNL     1       1.263   8.696  20.505  0.00  0.00    +0.000 A 
ATOM     12  C   UNL     1       1.954   7.596  19.949  0.00  0.00    +0.000 A 
ENDBRANCH   2   3
BRANCH   1  14
ATOM     13  O   UNL     1       2.681   2.942  17.271  0.00  0.00    +0.000 OA
ATOM     14  C   UNL     1       3.222   4.017  17.497  0.00  0.00    +0.000 C 
BRANCH  14  15
ATOM     15  C   UNL     1       4.660   4.233  17.189  0.00  0.00    +0.000 A 
ATOM     16  C   UNL     1       5.561   4.411  18.246  0.00  0.00    +0.000 A 
ATOM     17  C   UNL     1       6.912   4.639  17.980  0.00  0.00    +0.000 A 
ATOM     18  C   UNL     1       7.365   4.700  16.661  0.00  0.00    +0.000 A 
ATOM     19  C   UNL     1       6.470   4.528  15.606  0.00  0.00    +0.000 A 
ATOM     20  C   UNL     1       5.118   4.297  15.867  0.00  0.00    +0.000 A 
ENDBRANCH  14  15
ENDBRANCH   1  14
TORSDOF 3
ENDMDL
MODEL 7
REMARK VINA RESULT:      -7.7      3.911      5.428
REMARK  Name = 
REMARK  3 active torsions:
REMARK  status: ('A' for Active; 'I' for Inactive)
REMARK    1  A    between atoms: C_2  and  C_3
REMARK    2  A    between atoms: C_2  and  C_15
REMARK    3  A    between atoms: C_4  and  C_5
REMARK                            x       y       z     vdW  Elec       q    Type
REMARK                         _______ _______ _______ _____ _____    ______ ____
ROOT
ATOM      1  C   UNL     1       3.935   5.373  19.291  0.00  0.00    +0.000 C 
ATOM      2  C   UNL     1       3.392   6.207  18.390  0.00  0.00    +0.000 C 
ENDROOT
BRANCH   2   3
ATOM      3  C   UNL     1       2.566   7.362  18.773  0.00  0.00    +0.000 A 
ATOM      4  C   UNL     1       2.205   8.339  17.843  0.00  0.00    +0.000 A 
ATOM      5  C   UNL     1       1.398   9.419  18.216  0.00  0.00    +0.000 A 
ATOM      6  C   UNL     1       0.908   9.550  19.503  0.00  0.00    +0.000 A 
ATOM      7  N   UNL     1       0.130  10.605  19.797  0.00  0.00    +0.000 NA
ATOM      8  C   UNL     1      -0.350  10.704  21.054  0.00  0.00    +0.000 A 
ATOM      9  C   UNL     1      -0.084   9.790  22.054  0.00  0.00    +0.000 A 
ATOM     10  C   UNL     1       0.727   8.702  21.745  0.00  0.00    +0.000 A 
ATOM     11  C   UNL     1       1.246   8.560  20.447  0.00  0.00    +0.000 A 
ATOM     12  C   UNL     1       2.067   7.471  20.078  0.00  0.00    +0.000 A 
ENDBRANCH   2   3
BRANCH   1  14
ATOM     13  O   UNL     1       4.968   3.247  19.564  0.00  0.00    +0.000 OA
ATOM     14  C   UNL     1       4.816   4.248  18.875  0.00  0.00    +0.000 C 
BRANCH  14  15
ATOM     15  C   UNL     1       5.465   4.370  17.544  0.00  0.00    +0.000 A 
ATOM     16  C   UNL     1       6.761   4.893  17.466  0.00  0.00    +0.000 A 
ATOM     17  C   UNL     1       7.382   5.038  16.224  0.00  0.00    +0.000 A 
ATOM     18  C   UNL     1       6.708   4.673  15.058  0.00  0.00    +0.000 A 
ATOM     19  C   UNL     1       5.414   4.157  15.131  0.00  0.00    +0.000 A 
ATOM     20  C   UNL     1       4.791   4.006  16.370  0.00  0.00    +0.000 A 
ENDBRANCH  14  15
ENDBRANCH   1  14
TORSDOF 3
ENDMDL
MODEL 8
REMARK VINA RESULT:      -7.7      5.960      8.075
REMARK  Name = 
REMARK  3 active torsions:
REMARK  status: ('A' for Active; 'I' for Inactive)
REMARK    1  A    between atoms: C_2  and  C_3
REMARK    2  A    between atoms: C_2  and  C_15
REMARK    3  A    between atoms: C_4  and  C_5
REMARK                            x       y       z     vdW  Elec       q    Type
REMARK                         _______ _______ _______ _____ _____    ______ ____
ROOT
ATOM      1  C   UNL     1       7.890  10.027  18.174  0.00  0.00    +0.000 C 
ATOM      2  C   UNL     1       8.327   8.868  17.661  0.00  0.00    +0.000 C 
ENDROOT
BRANCH   2   3
ATOM      3  C   UNL     1       7.654   7.583  17.910  0.00  0.00    +0.000 A 
ATOM      4  C   UNL     1       8.146   6.674  18.849  0.00  0.00    +0.000 A 
ATOM      5  C   UNL     1       7.481   5.467  19.093  0.00  0.00    +0.000 A 
ATOM      6  C   UNL     1       6.308   5.139  18.437  0.00  0.00    +0.000 A 
ATOM      7  N   UNL     1       5.712   3.969  18.722  0.00  0.00    +0.000 NA
ATOM      8  C   UNL     1       4.559   3.676  18.084  0.00  0.00    +0.000 A 
ATOM      9  C   UNL     1       3.963   4.504  17.153  0.00  0.00    +0.000 A 
ATOM     10  C   UNL     1       4.588   5.713  16.859  0.00  0.00    +0.000 A 
ATOM     11  C   UNL     1       5.788   6.056  17.503  0.00  0.00    +0.000 A 
ATOM     12  C   UNL     1       6.459   7.273  17.247  0.00  0.00    +0.000 A 
ENDBRANCH   2   3
BRANCH   1  14
ATOM     13  O   UNL     1       8.038  12.165  17.140  0.00  0.00    +0.000 OA
ATOM     14  C   UNL     1       8.558  11.318  17.855  0.00  0.00    +0.000 C 
BRANCH  14  15
ATOM     15  C   UNL     1       9.875  11.561  18.499  0.00  0.00    +0.000 A 
ATOM     16  C   UNL     1       9.944  11.639  19.895  0.00  0.00    +0.000 A 
ATOM     17  C   UNL     1      11.166  11.890  20.522  0.00  0.00    +0.000 A 
ATOM     18  C   UNL     1      12.318  12.076  19.757  0.00  0.00    +0.000 A 
ATOM     19  C   UNL     1      12.253  12.006  18.365  0.00  0.00    +0.000 A 
ATOM     20  C   UNL     1      11.034  11.751  17.735  0.00  0.00    +0.000 A 
ENDBRANCH  14  15
ENDBRANCH   1  14
TORSDOF 3
ENDMDL
MODEL 9
REMARK VINA RESULT:      -7.7      3.880      5.257
REMARK  Name = 
REMARK  3 active torsions:
REMARK  status: ('A' for Active; 'I' for Inactive)
REMARK    1  A    between atoms: C_2  and  C_3
REMARK    2  A    between atoms: C_2  and  C_15
REMARK    3  A    between atoms: C_4  and  C_5
REMARK                            x       y       z     vdW  Elec       q    Type
REMARK                         _______ _______ _______ _____ _____    ______ ____
ROOT
ATOM      1  C   UNL     1       4.266   5.595  19.152  0.00  0.00    +0.000 C 
ATOM      2  C   UNL     1       3.340   6.142  18.350  0.00  0.00    +0.000 C 
ENDROOT
BRANCH   2   3
ATOM      3  C   UNL     1       2.550   7.322  18.736  0.00  0.00    +0.000 A 
ATOM      4  C   UNL     1       2.192   8.296  17.802  0.00  0.00    +0.000 A 
ATOM      5  C   UNL     1       1.419   9.400  18.179  0.00  0.00    +0.000 A 
ATOM      6  C   UNL     1       0.963   9.558  19.474  0.00  0.00    +0.000 A 
ATOM      7  N   UNL     1       0.217  10.636  19.772  0.00  0.00    +0.000 NA
ATOM      8  C   UNL     1      -0.233  10.762  21.038  0.00  0.00    +0.000 A 
ATOM      9  C   UNL     1       0.034   9.854  22.044  0.00  0.00    +0.000 A 
ATOM     10  C   UNL     1       0.811   8.743  21.731  0.00  0.00    +0.000 A 
ATOM     11  C   UNL     1       1.297   8.572  20.424  0.00  0.00    +0.000 A 
ATOM     12  C   UNL     1       2.084   7.459  20.051  0.00  0.00    +0.000 A 
ENDBRANCH   2   3
BRANCH   1  14
ATOM     13  O   UNL     1       5.257   3.448  19.410  0.00  0.00    +0.000 OA
ATOM     14  C   UNL     1       5.090   4.438  18.710  0.00  0.00    +0.000 C 
BRANCH  14  15
ATOM     15  C   UNL     1       5.662   4.515  17.340  0.00  0.00    +0.000 A 
ATOM     16  C   UNL     1       4.906   4.038  16.262  0.00  0.00    +0.000 A 
ATOM     17  C   UNL     1       5.432   4.078  14.969  0.00  0.00    +0.000 A 
ATOM     18  C   UNL     1       6.715   4.583  14.751  0.00  0.00    +0.000 A 
ATOM     19  C   UNL     1       7.473   5.052  15.823  0.00  0.00    +0.000 A 
ATOM     20  C   UNL     1       6.950   5.019  17.117  0.00  0.00    +0.000 A 
ENDBRANCH  14  15
ENDBRANCH   1  14
TORSDOF 3
ENDMDL
