MODEL 1
REMARK VINA RESULT:      -6.3      0.000      0.000
REMARK  Name = 
REMARK  3 active torsions:
REMARK  status: ('A' for Active; 'I' for Inactive)
REMARK    1  A    between atoms: C_1  and  C_2
REMARK    2  A    between atoms: C_8  and  O_9
REMARK    3  A    between atoms: C_10  and  O_11
REMARK                            x       y       z     vdW  Elec       q    Type
REMARK                         _______ _______ _______ _____ _____    ______ ____
ROOT
ATOM      1  C   UNL     1       7.535   7.233  17.588  0.00  0.00    +0.000 C 
ATOM      2  C   UNL     1       6.877   6.104  16.849  0.00  0.00    +0.000 A 
ATOM      3  N   UNL     1       7.428   5.696  15.671  0.00  0.00    +0.000 NA
ATOM      4  C   UNL     1       6.916   4.671  14.944  0.00  0.00    +0.000 A 
ATOM      5  C   UNL     1       5.787   3.989  15.392  0.00  0.00    +0.000 A 
ATOM      6  C   UNL     1       5.182   4.374  16.594  0.00  0.00    +0.000 A 
ATOM      7  C   UNL     1       4.044   3.702  17.061  0.00  0.00    +0.000 A 
ATOM      8  C   UNL     1       3.430   4.089  18.260  0.00  0.00    +0.000 A 
ATOM      9  C   UNL     1       3.962   5.156  19.005  0.00  0.00    +0.000 A 
ATOM     10  C   UNL     1       5.101   5.825  18.548  0.00  0.00    +0.000 A 
ATOM     11  C   UNL     1       5.725   5.449  17.343  0.00  0.00    +0.000 A 
ENDROOT
BRANCH   8  12
ATOM     12  O   UNL     1       2.333   3.440  18.704  0.00  0.00    +0.000 OA
ATOM     13  H   UNL     1       2.047   3.482  19.628  0.00  0.00    +0.000 HD
ENDBRANCH   8  12
BRANCH   9  14
ATOM     14  O   UNL     1       3.391   5.554  20.162  0.00  0.00    +0.000 OA
ATOM     15  H   UNL     1       3.449   5.041  20.980  0.00  0.00    +0.000 HD
ENDBRANCH   9  14
TORSDOF 2
ENDMDL
MODEL 2
REMARK VINA RESULT:      -6.2      1.000      1.000
REMARK  Name = 
REMARK  3 active torsions:
REMARK  status: ('A' for Active; 'I' for Inactive)
REMARK    1  A    between atoms: C_1  and  C_2
REMARK    2  A    between atoms: C_8  and  O_9
REMARK    3  A    between atoms: C_10  and  O_11
REMARK                            x       y       z     vdW  Elec       q    Type
REMARK                         _______ _______ _______ _____ _____    ______ ____
ROOT
ATOM      1  C   UNL     1       7.800   5.894  18.922  0.00  0.00    +0.000 C 
ATOM      2  C   UNL     1       6.948   5.241  17.871  0.00  0.00    +0.000 A 
ATOM      3  N   UNL     1       7.537   4.877  16.697  0.00  0.00    +0.000 NA
ATOM      4  C   UNL     1       6.852   4.263  15.699  0.00  0.00    +0.000 A 
ATOM      5  C   UNL     1       5.496   3.980  15.850  0.00  0.00    +0.000 A 
ATOM      6  C   UNL     1       4.846   4.340  17.036  0.00  0.00    +0.000 A 
ATOM      7  C   UNL     1       3.481   4.065  17.206  0.00  0.00    +0.000 A 
ATOM      8  C   UNL     1       2.824   4.430  18.389  0.00  0.00    +0.000 A 
ATOM      9  C   UNL     1       3.537   5.072  19.417  0.00  0.00    +0.000 A 
ATOM     10  C   UNL     1       4.900   5.340  19.255  0.00  0.00    +0.000 A 
ATOM     11  C   UNL     1       5.571   4.983  18.070  0.00  0.00    +0.000 A 
ENDROOT
BRANCH   8  12
ATOM     12  O   UNL     1       1.510   4.165  18.546  0.00  0.00    +0.000 OA
ATOM     13  H   UNL     1       1.100   3.359  18.200  0.00  0.00    +0.000 HD
ENDBRANCH   8  12
BRANCH   9  14
ATOM     14  O   UNL     1       2.931   5.438  20.565  0.00  0.00    +0.000 OA
ATOM     15  H   UNL     1       2.733   4.814  21.277  0.00  0.00    +0.000 HD
ENDBRANCH   9  14
TORSDOF 2
ENDMDL
MODEL 3
REMARK VINA RESULT:      -6.2      4.014      5.032
REMARK  Name = 
REMARK  3 active torsions:
REMARK  status: ('A' for Active; 'I' for Inactive)
REMARK    1  A    between atoms: C_1  and  C_2
REMARK    2  A    between atoms: C_8  and  O_9
REMARK    3  A    between atoms: C_10  and  O_11
REMARK                            x       y       z     vdW  Elec       q    Type
REMARK                         _______ _______ _______ _____ _____    ______ ____
ROOT
ATOM      1  C   UNL     1       1.425   2.671  21.528  0.00  0.00    +0.000 C 
ATOM      2  C   UNL     1       1.818   3.019  20.121  0.00  0.00    +0.000 A 
ATOM      3  N   UNL     1       1.972   2.004  19.224  0.00  0.00    +0.000 NA
ATOM      4  C   UNL     1       2.304   2.223  17.927  0.00  0.00    +0.000 A 
ATOM      5  C   UNL     1       2.502   3.522  17.463  0.00  0.00    +0.000 A 
ATOM      6  C   UNL     1       2.361   4.598  18.348  0.00  0.00    +0.000 A 
ATOM      7  C   UNL     1       2.557   5.912  17.901  0.00  0.00    +0.000 A 
ATOM      8  C   UNL     1       2.425   6.992  18.785  0.00  0.00    +0.000 A 
ATOM      9  C   UNL     1       2.086   6.757  20.130  0.00  0.00    +0.000 A 
ATOM     10  C   UNL     1       1.881   5.449  20.578  0.00  0.00    +0.000 A 
ATOM     11  C   UNL     1       2.016   4.355  19.701  0.00  0.00    +0.000 A 
ENDROOT
BRANCH   8  12
ATOM     12  O   UNL     1       2.618   8.255  18.350  0.00  0.00    +0.000 OA
ATOM     13  H   UNL     1       3.197   8.877  18.813  0.00  0.00    +0.000 HD
ENDBRANCH   8  12
BRANCH   9  14
ATOM     14  O   UNL     1       1.955   7.776  21.005  0.00  0.00    +0.000 OA
ATOM     15  H   UNL     1       1.307   7.770  21.724  0.00  0.00    +0.000 HD
ENDBRANCH   9  14
TORSDOF 2
ENDMDL
MODEL 4
REMARK VINA RESULT:      -6.1      3.124      4.166
REMARK  Name = 
REMARK  3 active torsions:
REMARK  status: ('A' for Active; 'I' for Inactive)
REMARK    1  A    between atoms: C_1  and  C_2
REMARK    2  A    between atoms: C_8  and  O_9
REMARK    3  A    between atoms: C_10  and  O_11
REMARK                            x       y       z     vdW  Elec       q    Type
REMARK                         _______ _______ _______ _____ _____    ______ ____
ROOT
ATOM      1  C   UNL     1       2.526   7.643  18.286  0.00  0.00    +0.000 C 
ATOM      2  C   UNL     1       2.846   6.223  17.916  0.00  0.00    +0.000 A 
ATOM      3  N   UNL     1       1.857   5.292  18.018  0.00  0.00    +0.000 NA
ATOM      4  C   UNL     1       2.046   3.989  17.687  0.00  0.00    +0.000 A 
ATOM      5  C   UNL     1       3.285   3.558  17.220  0.00  0.00    +0.000 A 
ATOM      6  C   UNL     1       4.335   4.476  17.103  0.00  0.00    +0.000 A 
ATOM      7  C   UNL     1       5.590   4.061  16.637  0.00  0.00    +0.000 A 
ATOM      8  C   UNL     1       6.647   4.976  16.525  0.00  0.00    +0.000 A 
ATOM      9  C   UNL     1       6.446   6.322  16.876  0.00  0.00    +0.000 A 
ATOM     10  C   UNL     1       5.193   6.743  17.334  0.00  0.00    +0.000 A 
ATOM     11  C   UNL     1       4.125   5.833  17.455  0.00  0.00    +0.000 A 
ENDROOT
BRANCH   8  12
ATOM     12  O   UNL     1       7.854   4.570  16.078  0.00  0.00    +0.000 OA
ATOM     13  H   UNL     1       8.681   4.947  16.411  0.00  0.00    +0.000 HD
ENDBRANCH   8  12
BRANCH   9  14
ATOM     14  O   UNL     1       7.444   7.226  16.782  0.00  0.00    +0.000 OA
ATOM     15  H   UNL     1       7.974   7.504  17.543  0.00  0.00    +0.000 HD
ENDBRANCH   9  14
TORSDOF 2
ENDMDL
MODEL 5
REMARK VINA RESULT:      -6.1      2.105      2.806
REMARK  Name = 
REMARK  3 active torsions:
REMARK  status: ('A' for Active; 'I' for Inactive)
REMARK    1  A    between atoms: C_1  and  C_2
REMARK    2  A    between atoms: C_8  and  O_9
REMARK    3  A    between atoms: C_10  and  O_11
REMARK                            x       y       z     vdW  Elec       q    Type
REMARK                         _______ _______ _______ _____ _____    ______ ____
ROOT
ATOM      1  C   UNL     1       2.997   7.652  18.142  0.00  0.00    +0.000 C 
ATOM      2  C   UNL     1       3.571   6.388  17.570  0.00  0.00    +0.000 A 
ATOM      3  N   UNL     1       4.617   6.490  16.702  0.00  0.00    +0.000 NA
ATOM      4  C   UNL     1       5.214   5.403  16.151  0.00  0.00    +0.000 A 
ATOM      5  C   UNL     1       4.766   4.122  16.465  0.00  0.00    +0.000 A 
ATOM      6  C   UNL     1       3.691   3.966  17.348  0.00  0.00    +0.000 A 
ATOM      7  C   UNL     1       3.225   2.685  17.675  0.00  0.00    +0.000 A 
ATOM      8  C   UNL     1       2.144   2.524  18.553  0.00  0.00    +0.000 A 
ATOM      9  C   UNL     1       1.525   3.654  19.115  0.00  0.00    +0.000 A 
ATOM     10  C   UNL     1       1.992   4.933  18.799  0.00  0.00    +0.000 A 
ATOM     11  C   UNL     1       3.074   5.109  17.915  0.00  0.00    +0.000 A 
ENDROOT
BRANCH   8  12
ATOM     12  O   UNL     1       1.697   1.288  18.862  0.00  0.00    +0.000 OA
ATOM     13  H   UNL     1       1.999   0.497  18.393  0.00  0.00    +0.000 HD
ENDBRANCH   8  12
BRANCH   9  14
ATOM     14  O   UNL     1       0.480   3.532  19.961  0.00  0.00    +0.000 OA
ATOM     15  H   UNL     1      -0.367   3.977  19.818  0.00  0.00    +0.000 HD
ENDBRANCH   9  14
TORSDOF 2
ENDMDL
MODEL 6
REMARK VINA RESULT:      -6.0      1.284      2.759
REMARK  Name = 
REMARK  3 active torsions:
REMARK  status: ('A' for Active; 'I' for Inactive)
REMARK    1  A    between atoms: C_1  and  C_2
REMARK    2  A    between atoms: C_8  and  O_9
REMARK    3  A    between atoms: C_10  and  O_11
REMARK                            x       y       z     vdW  Elec       q    Type
REMARK                         _______ _______ _______ _____ _____    ______ ____
ROOT
ATOM      1  C   UNL     1       6.173   3.876  15.158  0.00  0.00    +0.000 C 
ATOM      2  C   UNL     1       6.250   4.399  16.564  0.00  0.00    +0.000 A 
ATOM      3  N   UNL     1       7.467   4.779  17.045  0.00  0.00    +0.000 NA
ATOM      4  C   UNL     1       7.631   5.283  18.294  0.00  0.00    +0.000 A 
ATOM      5  C   UNL     1       6.534   5.431  19.140  0.00  0.00    +0.000 A 
ATOM      6  C   UNL     1       5.263   5.050  18.692  0.00  0.00    +0.000 A 
ATOM      7  C   UNL     1       4.147   5.190  19.529  0.00  0.00    +0.000 A 
ATOM      8  C   UNL     1       2.874   4.803  19.088  0.00  0.00    +0.000 A 
ATOM      9  C   UNL     1       2.712   4.275  17.795  0.00  0.00    +0.000 A 
ATOM     10  C   UNL     1       3.821   4.141  16.954  0.00  0.00    +0.000 A 
ATOM     11  C   UNL     1       5.106   4.522  17.387  0.00  0.00    +0.000 A 
ENDROOT
BRANCH   8  12
ATOM     12  O   UNL     1       1.803   4.937  19.899  0.00  0.00    +0.000 OA
ATOM     13  H   UNL     1       1.380   5.793  20.057  0.00  0.00    +0.000 HD
ENDBRANCH   8  12
BRANCH   9  14
ATOM     14  O   UNL     1       1.500   3.890  17.344  0.00  0.00    +0.000 OA
ATOM     15  H   UNL     1       1.339   3.023  16.945  0.00  0.00    +0.000 HD
ENDBRANCH   9  14
TORSDOF 2
ENDMDL
MODEL 7
REMARK VINA RESULT:      -6.0      2.132      3.450
REMARK  Name = 
REMARK  3 active torsions:
REMARK  status: ('A' for Active; 'I' for Inactive)
REMARK    1  A    between atoms: C_1  and  C_2
REMARK    2  A    between atoms: C_8  and  O_9
REMARK    3  A    between atoms: C_10  and  O_11
REMARK                            x       y       z     vdW  Elec       q    Type
REMARK                         _______ _______ _______ _____ _____    ______ ____
ROOT
ATOM      1  C   UNL     1       5.443   3.985  15.898  0.00  0.00    +0.000 C 
ATOM      2  C   UNL     1       4.604   4.913  16.727  0.00  0.00    +0.000 A 
ATOM      3  N   UNL     1       4.851   6.251  16.647  0.00  0.00    +0.000 NA
ATOM      4  C   UNL     1       4.132   7.168  17.343  0.00  0.00    +0.000 A 
ATOM      5  C   UNL     1       3.095   6.757  18.178  0.00  0.00    +0.000 A 
ATOM      6  C   UNL     1       2.805   5.393  18.297  0.00  0.00    +0.000 A 
ATOM      7  C   UNL     1       1.766   4.960  19.133  0.00  0.00    +0.000 A 
ATOM      8  C   UNL     1       1.478   3.594  19.262  0.00  0.00    +0.000 A 
ATOM      9  C   UNL     1       2.233   2.650  18.543  0.00  0.00    +0.000 A 
ATOM     10  C   UNL     1       3.264   3.077  17.702  0.00  0.00    +0.000 A 
ATOM     11  C   UNL     1       3.566   4.446  17.567  0.00  0.00    +0.000 A 
ENDROOT
BRANCH   8  12
ATOM     12  O   UNL     1       0.479   3.183  20.070  0.00  0.00    +0.000 OA
ATOM     13  H   UNL     1      -0.281   3.746  20.279  0.00  0.00    +0.000 HD
ENDBRANCH   8  12
BRANCH   9  14
ATOM     14  O   UNL     1       1.981   1.328  18.649  0.00  0.00    +0.000 OA
ATOM     15  H   UNL     1       1.614   0.925  19.449  0.00  0.00    +0.000 HD
ENDBRANCH   9  14
TORSDOF 2
ENDMDL
MODEL 8
REMARK VINA RESULT:      -5.9      3.214      4.383
REMARK  Name = 
REMARK  3 active torsions:
REMARK  status: ('A' for Active; 'I' for Inactive)
REMARK    1  A    between atoms: C_1  and  C_2
REMARK    2  A    between atoms: C_8  and  O_9
REMARK    3  A    between atoms: C_10  and  O_11
REMARK                            x       y       z     vdW  Elec       q    Type
REMARK                         _______ _______ _______ _____ _____    ______ ____
ROOT
ATOM      1  C   UNL     1       2.830   7.989  17.794  0.00  0.00    +0.000 C 
ATOM      2  C   UNL     1       3.210   6.659  18.379  0.00  0.00    +0.000 A 
ATOM      3  N   UNL     1       2.308   6.026  19.182  0.00  0.00    +0.000 NA
ATOM      4  C   UNL     1       2.554   4.812  19.737  0.00  0.00    +0.000 A 
ATOM      5  C   UNL     1       3.763   4.163  19.497  0.00  0.00    +0.000 A 
ATOM      6  C   UNL     1       4.723   4.775  18.682  0.00  0.00    +0.000 A 
ATOM      7  C   UNL     1       5.947   4.138  18.430  0.00  0.00    +0.000 A 
ATOM      8  C   UNL     1       6.914   4.751  17.622  0.00  0.00    +0.000 A 
ATOM      9  C   UNL     1       6.656   6.011  17.054  0.00  0.00    +0.000 A 
ATOM     10  C   UNL     1       5.434   6.647  17.297  0.00  0.00    +0.000 A 
ATOM     11  C   UNL     1       4.455   6.044  18.111  0.00  0.00    +0.000 A 
ENDROOT
BRANCH   8  12
ATOM     12  O   UNL     1       8.091   4.134  17.384  0.00  0.00    +0.000 OA
ATOM     13  H   UNL     1       8.405   3.949  16.486  0.00  0.00    +0.000 HD
ENDBRANCH   8  12
BRANCH   9  14
ATOM     14  O   UNL     1       7.569   6.628  16.275  0.00  0.00    +0.000 OA
ATOM     15  H   UNL     1       7.627   6.484  15.320  0.00  0.00    +0.000 HD
ENDBRANCH   9  14
TORSDOF 2
ENDMDL
MODEL 9
REMARK VINA RESULT:      -5.9      3.144      4.090
REMARK  Name = 
REMARK  3 active torsions:
REMARK  status: ('A' for Active; 'I' for Inactive)
REMARK    1  A    between atoms: C_1  and  C_2
REMARK    2  A    between atoms: C_8  and  O_9
REMARK    3  A    between atoms: C_10  and  O_11
REMARK                            x       y       z     vdW  Elec       q    Type
REMARK                         _______ _______ _______ _____ _____    ______ ____
ROOT
ATOM      1  C   UNL     1       7.839   5.995  19.130  0.00  0.00    +0.000 C 
ATOM      2  C   UNL     1       6.646   5.198  18.686  0.00  0.00    +0.000 A 
ATOM      3  N   UNL     1       5.765   4.773  19.635  0.00  0.00    +0.000 NA
ATOM      4  C   UNL     1       4.648   4.066  19.327  0.00  0.00    +0.000 A 
ATOM      5  C   UNL     1       4.363   3.749  18.001  0.00  0.00    +0.000 A 
ATOM      6  C   UNL     1       5.241   4.159  16.991  0.00  0.00    +0.000 A 
ATOM      7  C   UNL     1       4.972   3.848  15.650  0.00  0.00    +0.000 A 
ATOM      8  C   UNL     1       5.852   4.251  14.636  0.00  0.00    +0.000 A 
ATOM      9  C   UNL     1       7.010   4.977  14.963  0.00  0.00    +0.000 A 
ATOM     10  C   UNL     1       7.279   5.297  16.297  0.00  0.00    +0.000 A 
ATOM     11  C   UNL     1       6.405   4.894  17.326  0.00  0.00    +0.000 A 
ENDROOT
BRANCH   8  12
ATOM     12  O   UNL     1       5.589   3.947  13.347  0.00  0.00    +0.000 OA
ATOM     13  H   UNL     1       5.183   3.107  13.088  0.00  0.00    +0.000 HD
ENDBRANCH   8  12
BRANCH   9  14
ATOM     14  O   UNL     1       7.878   5.376  14.009  0.00  0.00    +0.000 OA
ATOM     15  H   UNL     1       8.832   5.439  14.159  0.00  0.00    +0.000 HD
ENDBRANCH   9  14
TORSDOF 2
ENDMDL
