MODEL 1
REMARK VINA RESULT:      -6.9      0.000      0.000
REMARK  Name = 
REMARK  6 active torsions:
REMARK  status: ('A' for Active; 'I' for Inactive)
REMARK    1  A    between atoms: C_1  and  C_2
REMARK    2  A    between atoms: C_6  and  C_7
REMARK    3  A    between atoms: C_12  and  C_13
REMARK    4  A    between atoms: C_12  and  C_14
REMARK    5  A    between atoms: N_16  and  S_17
REMARK    6  A    between atoms: S_17  and  C_20
REMARK                            x       y       z     vdW  Elec       q    Type
REMARK                         _______ _______ _______ _____ _____    ______ ____
ROOT
ATOM      1  C   UNL     1       9.832  12.990  20.854  0.00  0.00    +0.000 C 
ATOM      2  O   UNL     1      10.528  13.950  21.174  0.00  0.00    +0.000 OA
ATOM      3  N   UNL     1       8.611  12.733  21.510  0.00  0.00    +0.000 N 
ATOM      4  H   UNL     1       8.033  11.926  21.289  0.00  0.00    +0.000 HD
ENDROOT
BRANCH   1  10
ATOM      5  C   UNL     1       9.117  13.074  17.797  0.00  0.00    +0.000 C 
ATOM      6  O   UNL     1       7.933  12.943  17.486  0.00  0.00    +0.000 OA
ATOM      7  N   UNL     1       9.796  11.999  18.356  0.00  0.00    +0.000 N 
ATOM      8  C   UNL     1       9.268  10.627  18.349  0.00  0.00    +0.000 C 
ATOM      9  C   UNL     1       9.484  10.571  19.853  0.00  0.00    +0.000 C 
ATOM     10  C   UNL     1      10.271  11.900  19.773  0.00  0.00    +0.000 C 
ATOM     11  C   UNL     1      11.785  11.644  19.797  0.00  0.00    +0.000 C 
BRANCH   5  17
ATOM     12  C   UNL     1      12.014  13.518  16.633  0.00  0.00    +0.000 C 
ATOM     13  C   UNL     1      11.099  14.568  17.181  0.00  0.00    +0.000 A 
ATOM     14  C   UNL     1      11.446  15.958  17.230  0.00  0.00    +0.000 A 
ATOM     15  C   UNL     1      10.471  16.728  17.815  0.00  0.00    +0.000 A 
ATOM     16  S   UNL     1       9.138  15.791  18.311  0.00  0.00    +0.000 S 
ATOM     17  C   UNL     1       9.822  14.347  17.689  0.00  0.00    +0.000 A 
ENDBRANCH   5  17
ENDBRANCH   1  10
BRANCH   3  18
ATOM     18  S   UNL     1       7.833  13.832  22.496  0.00  0.00    +0.000 S 
ATOM     19  O   UNL     1       8.731  14.891  22.889  0.00  0.00    +0.000 OA
ATOM     20  O   UNL     1       6.584  14.142  21.828  0.00  0.00    +0.000 OA
BRANCH  18  21
ATOM     21  C   UNL     1       7.408  12.875  23.928  0.00  0.00    +0.000 A 
ATOM     22  C   UNL     1       7.993  13.166  25.163  0.00  0.00    +0.000 A 
ATOM     23  C   UNL     1       7.574  12.468  26.299  0.00  0.00    +0.000 A 
ATOM     24  C   UNL     1       6.568  11.504  26.195  0.00  0.00    +0.000 A 
ATOM     25 BR   UNL     1       5.969  10.596  27.742  0.00  0.00    +0.000 Br
ATOM     26  C   UNL     1       5.983  11.218  24.963  0.00  0.00    +0.000 A 
ATOM     27  C   UNL     1       6.399  11.907  23.823  0.00  0.00    +0.000 A 
ENDBRANCH  18  21
ENDBRANCH   3  18
TORSDOF 4
ENDMDL
MODEL 2
REMARK VINA RESULT:      -6.4      1.536      1.907
REMARK  Name = 
REMARK  6 active torsions:
REMARK  status: ('A' for Active; 'I' for Inactive)
REMARK    1  A    between atoms: C_1  and  C_2
REMARK    2  A    between atoms: C_6  and  C_7
REMARK    3  A    between atoms: C_12  and  C_13
REMARK    4  A    between atoms: C_12  and  C_14
REMARK    5  A    between atoms: N_16  and  S_17
REMARK    6  A    between atoms: S_17  and  C_20
REMARK                            x       y       z     vdW  Elec       q    Type
REMARK                         _______ _______ _______ _____ _____    ______ ____
ROOT
ATOM      1  C   UNL     1       9.789  13.337  20.878  0.00  0.00    +0.000 C 
ATOM      2  O   UNL     1      10.488  14.287  21.217  0.00  0.00    +0.000 OA
ATOM      3  N   UNL     1       8.476  13.196  21.370  0.00  0.00    +0.000 N 
ATOM      4  H   UNL     1       7.887  12.400  21.133  0.00  0.00    +0.000 HD
ENDROOT
BRANCH   1  10
ATOM      5  C   UNL     1       9.241  13.032  17.801  0.00  0.00    +0.000 C 
ATOM      6  O   UNL     1       8.079  12.831  17.447  0.00  0.00    +0.000 OA
ATOM      7  N   UNL     1       9.910  12.052  18.521  0.00  0.00    +0.000 N 
ATOM      8  C   UNL     1       9.413  10.675  18.654  0.00  0.00    +0.000 C 
ATOM      9  C   UNL     1       9.548  10.806  20.162  0.00  0.00    +0.000 C 
ATOM     10  C   UNL     1      10.309  12.137  19.962  0.00  0.00    +0.000 C 
ATOM     11  C   UNL     1      11.825  11.927  20.095  0.00  0.00    +0.000 C 
BRANCH   5  17
ATOM     12  C   UNL     1      12.159  13.414  16.671  0.00  0.00    +0.000 C 
ATOM     13  C   UNL     1      11.210  14.496  17.079  0.00  0.00    +0.000 A 
ATOM     14  C   UNL     1      11.527  15.891  16.988  0.00  0.00    +0.000 A 
ATOM     15  C   UNL     1      10.521  16.696  17.462  0.00  0.00    +0.000 A 
ATOM     16  S   UNL     1       9.194  15.788  18.021  0.00  0.00    +0.000 S 
ATOM     17  C   UNL     1       9.923  14.302  17.575  0.00  0.00    +0.000 A 
ENDBRANCH   5  17
ENDBRANCH   1  10
BRANCH   3  18
ATOM     18  S   UNL     1       7.634  14.411  22.143  0.00  0.00    +0.000 S 
ATOM     19  O   UNL     1       7.888  15.686  21.516  0.00  0.00    +0.000 OA
ATOM     20  O   UNL     1       6.276  13.922  22.280  0.00  0.00    +0.000 OA
BRANCH  18  21
ATOM     21  C   UNL     1       8.326  14.422  23.776  0.00  0.00    +0.000 A 
ATOM     22  C   UNL     1       9.042  15.535  24.225  0.00  0.00    +0.000 A 
ATOM     23  C   UNL     1       9.496  15.568  25.546  0.00  0.00    +0.000 A 
ATOM     24  C   UNL     1       9.218  14.503  26.407  0.00  0.00    +0.000 A 
ATOM     25 BR   UNL     1       9.791  14.572  28.207  0.00  0.00    +0.000 Br
ATOM     26  C   UNL     1       8.500  13.396  25.959  0.00  0.00    +0.000 A 
ATOM     27  C   UNL     1       8.048  13.353  24.639  0.00  0.00    +0.000 A 
ENDBRANCH  18  21
ENDBRANCH   3  18
TORSDOF 4
ENDMDL
MODEL 3
REMARK VINA RESULT:      -6.4      9.235     11.072
REMARK  Name = 
REMARK  6 active torsions:
REMARK  status: ('A' for Active; 'I' for Inactive)
REMARK    1  A    between atoms: C_1  and  C_2
REMARK    2  A    between atoms: C_6  and  C_7
REMARK    3  A    between atoms: C_12  and  C_13
REMARK    4  A    between atoms: C_12  and  C_14
REMARK    5  A    between atoms: N_16  and  S_17
REMARK    6  A    between atoms: S_17  and  C_20
REMARK                            x       y       z     vdW  Elec       q    Type
REMARK                         _______ _______ _______ _____ _____    ______ ____
ROOT
ATOM      1  C   UNL     1       0.366  11.110  20.488  0.00  0.00    +0.000 C 
ATOM      2  O   UNL     1       0.660  11.549  21.597  0.00  0.00    +0.000 OA
ATOM      3  N   UNL     1       0.533   9.743  20.187  0.00  0.00    +0.000 N 
ATOM      4  H   UNL     1       0.331   9.361  19.266  0.00  0.00    +0.000 HD
ENDROOT
BRANCH   1  10
ATOM      5  C   UNL     1      -2.271  12.813  20.427  0.00  0.00    +0.000 C 
ATOM      6  O   UNL     1      -3.341  12.205  20.422  0.00  0.00    +0.000 OA
ATOM      7  N   UNL     1      -1.435  12.726  19.321  0.00  0.00    +0.000 N 
ATOM      8  C   UNL     1      -1.869  12.173  18.030  0.00  0.00    +0.000 C 
ATOM      9  C   UNL     1      -0.670  11.240  18.063  0.00  0.00    +0.000 C 
ATOM     10  C   UNL     1      -0.112  12.027  19.272  0.00  0.00    +0.000 C 
ATOM     11  C   UNL     1       0.980  13.011  18.829  0.00  0.00    +0.000 C 
BRANCH   5  17
ATOM     12  C   UNL     1      -2.630  11.991  23.449  0.00  0.00    +0.000 C 
ATOM     13  C   UNL     1      -1.942  13.215  22.931  0.00  0.00    +0.000 A 
ATOM     14  C   UNL     1      -1.330  14.189  23.786  0.00  0.00    +0.000 A 
ATOM     15  C   UNL     1      -0.800  15.248  23.089  0.00  0.00    +0.000 A 
ATOM     16  S   UNL     1      -1.035  15.083  21.411  0.00  0.00    +0.000 S 
ATOM     17  C   UNL     1      -1.794  13.555  21.589  0.00  0.00    +0.000 A 
ENDBRANCH   5  17
ENDBRANCH   1  10
BRANCH   3  18
ATOM     18  S   UNL     1       0.792   8.560  21.333  0.00  0.00    +0.000 S 
ATOM     19  O   UNL     1       1.674   9.039  22.371  0.00  0.00    +0.000 OA
ATOM     20  O   UNL     1      -0.521   8.045  21.670  0.00  0.00    +0.000 OA
BRANCH  18  21
ATOM     21  C   UNL     1       1.613   7.276  20.426  0.00  0.00    +0.000 A 
ATOM     22  C   UNL     1       1.538   5.952  20.864  0.00  0.00    +0.000 A 
ATOM     23  C   UNL     1       2.106   4.941  20.085  0.00  0.00    +0.000 A 
ATOM     24  C   UNL     1       2.725   5.257  18.873  0.00  0.00    +0.000 A 
ATOM     25 BR   UNL     1       3.451   3.882  17.797  0.00  0.00    +0.000 Br
ATOM     26  C   UNL     1       2.796   6.578  18.435  0.00  0.00    +0.000 A 
ATOM     27  C   UNL     1       2.236   7.594  19.211  0.00  0.00    +0.000 A 
ENDBRANCH  18  21
ENDBRANCH   3  18
TORSDOF 4
ENDMDL
MODEL 4
REMARK VINA RESULT:      -6.4      3.065      3.599
REMARK  Name = 
REMARK  6 active torsions:
REMARK  status: ('A' for Active; 'I' for Inactive)
REMARK    1  A    between atoms: C_1  and  C_2
REMARK    2  A    between atoms: C_6  and  C_7
REMARK    3  A    between atoms: C_12  and  C_13
REMARK    4  A    between atoms: C_12  and  C_14
REMARK    5  A    between atoms: N_16  and  S_17
REMARK    6  A    between atoms: S_17  and  C_20
REMARK                            x       y       z     vdW  Elec       q    Type
REMARK                         _______ _______ _______ _____ _____    ______ ____
ROOT
ATOM      1  C   UNL     1       9.708  13.392  20.885  0.00  0.00    +0.000 C 
ATOM      2  O   UNL     1      10.469  14.186  21.431  0.00  0.00    +0.000 OA
ATOM      3  N   UNL     1       8.318  13.456  21.108  0.00  0.00    +0.000 N 
ATOM      4  H   UNL     1       7.670  12.789  20.697  0.00  0.00    +0.000 HD
ENDROOT
BRANCH   1  10
ATOM      5  C   UNL     1       9.160  13.068  17.811  0.00  0.00    +0.000 C 
ATOM      6  O   UNL     1       7.994  12.892  17.456  0.00  0.00    +0.000 OA
ATOM      7  N   UNL     1       9.805  12.080  18.542  0.00  0.00    +0.000 N 
ATOM      8  C   UNL     1       9.275  10.717  18.689  0.00  0.00    +0.000 C 
ATOM      9  C   UNL     1       9.409  10.861  20.196  0.00  0.00    +0.000 C 
ATOM     10  C   UNL     1      10.202  12.171  19.983  0.00  0.00    +0.000 C 
ATOM     11  C   UNL     1      11.712  11.927  20.122  0.00  0.00    +0.000 C 
BRANCH   5  17
ATOM     12  C   UNL     1      12.104  13.368  16.723  0.00  0.00    +0.000 C 
ATOM     13  C   UNL     1      11.171  14.477  17.096  0.00  0.00    +0.000 A 
ATOM     14  C   UNL     1      11.520  15.863  16.984  0.00  0.00    +0.000 A 
ATOM     15  C   UNL     1      10.523  16.698  17.426  0.00  0.00    +0.000 A 
ATOM     16  S   UNL     1       9.168  15.828  17.980  0.00  0.00    +0.000 S 
ATOM     17  C   UNL     1       9.873  14.319  17.573  0.00  0.00    +0.000 A 
ENDBRANCH   5  17
ENDBRANCH   1  10
BRANCH   3  18
ATOM     18  S   UNL     1       7.545  14.756  21.812  0.00  0.00    +0.000 S 
ATOM     19  O   UNL     1       7.447  14.581  23.241  0.00  0.00    +0.000 OA
ATOM     20  O   UNL     1       8.184  15.936  21.262  0.00  0.00    +0.000 OA
BRANCH  18  21
ATOM     21  C   UNL     1       5.917  14.699  21.110  0.00  0.00    +0.000 A 
ATOM     22  C   UNL     1       4.834  14.280  21.888  0.00  0.00    +0.000 A 
ATOM     23  C   UNL     1       3.546  14.334  21.351  0.00  0.00    +0.000 A 
ATOM     24  C   UNL     1       3.348  14.821  20.056  0.00  0.00    +0.000 A 
ATOM     25 BR   UNL     1       1.598  14.939  19.350  0.00  0.00    +0.000 Br
ATOM     26  C   UNL     1       4.428  15.242  19.283  0.00  0.00    +0.000 A 
ATOM     27  C   UNL     1       5.720  15.186  19.810  0.00  0.00    +0.000 A 
ENDBRANCH  18  21
ENDBRANCH   3  18
TORSDOF 4
ENDMDL
MODEL 5
REMARK VINA RESULT:      -6.3      8.138      9.662
REMARK  Name = 
REMARK  6 active torsions:
REMARK  status: ('A' for Active; 'I' for Inactive)
REMARK    1  A    between atoms: C_1  and  C_2
REMARK    2  A    between atoms: C_6  and  C_7
REMARK    3  A    between atoms: C_12  and  C_13
REMARK    4  A    between atoms: C_12  and  C_14
REMARK    5  A    between atoms: N_16  and  S_17
REMARK    6  A    between atoms: S_17  and  C_20
REMARK                            x       y       z     vdW  Elec       q    Type
REMARK                         _______ _______ _______ _____ _____    ______ ____
ROOT
ATOM      1  C   UNL     1       2.631   6.674  18.258  0.00  0.00    +0.000 C 
ATOM      2  O   UNL     1       3.161   6.909  17.176  0.00  0.00    +0.000 OA
ATOM      3  N   UNL     1       1.991   7.697  18.986  0.00  0.00    +0.000 N 
ATOM      4  H   UNL     1       1.574   7.536  19.900  0.00  0.00    +0.000 HD
ENDROOT
BRANCH   1  10
ATOM      5  C   UNL     1       4.486   4.287  17.410  0.00  0.00    +0.000 C 
ATOM      6  O   UNL     1       4.258   3.745  16.328  0.00  0.00    +0.000 OA
ATOM      7  N   UNL     1       3.563   4.160  18.440  0.00  0.00    +0.000 N 
ATOM      8  C   UNL     1       2.457   3.192  18.412  0.00  0.00    +0.000 C 
ATOM      9  C   UNL     1       1.496   4.332  18.706  0.00  0.00    +0.000 C 
ATOM     10  C   UNL     1       2.703   5.256  18.989  0.00  0.00    +0.000 C 
ATOM     11  C   UNL     1       2.943   5.399  20.499  0.00  0.00    +0.000 C 
BRANCH   5  17
ATOM     12  C   UNL     1       5.965   6.038  15.246  0.00  0.00    +0.000 C 
ATOM     13  C   UNL     1       6.320   5.918  16.695  0.00  0.00    +0.000 A 
ATOM     14  C   UNL     1       7.413   6.627  17.293  0.00  0.00    +0.000 A 
ATOM     15  C   UNL     1       7.576   6.326  18.623  0.00  0.00    +0.000 A 
ATOM     16  S   UNL     1       6.425   5.193  19.161  0.00  0.00    +0.000 S 
ATOM     17  C   UNL     1       5.649   5.139  17.633  0.00  0.00    +0.000 A 
ENDBRANCH   5  17
ENDBRANCH   1  10
BRANCH   3  18
ATOM     18  S   UNL     1       1.585   9.183  18.346  0.00  0.00    +0.000 S 
ATOM     19  O   UNL     1       2.770   9.942  18.026  0.00  0.00    +0.000 OA
ATOM     20  O   UNL     1       0.592   8.912  17.324  0.00  0.00    +0.000 OA
BRANCH  18  21
ATOM     21  C   UNL     1       0.726   9.986  19.674  0.00  0.00    +0.000 A 
ATOM     22  C   UNL     1       0.006  11.159  19.433  0.00  0.00    +0.000 A 
ATOM     23  C   UNL     1      -0.744  11.725  20.468  0.00  0.00    +0.000 A 
ATOM     24  C   UNL     1      -0.784  11.107  21.720  0.00  0.00    +0.000 A 
ATOM     25 BR   UNL     1      -1.840  11.847  23.103  0.00  0.00    +0.000 Br
ATOM     26  C   UNL     1      -0.070   9.934  21.957  0.00  0.00    +0.000 A 
ATOM     27  C   UNL     1       0.687   9.366  20.931  0.00  0.00    +0.000 A 
ENDBRANCH  18  21
ENDBRANCH   3  18
TORSDOF 4
ENDMDL
MODEL 6
REMARK VINA RESULT:      -6.3      8.787     10.214
REMARK  Name = 
REMARK  6 active torsions:
REMARK  status: ('A' for Active; 'I' for Inactive)
REMARK    1  A    between atoms: C_1  and  C_2
REMARK    2  A    between atoms: C_6  and  C_7
REMARK    3  A    between atoms: C_12  and  C_13
REMARK    4  A    between atoms: C_12  and  C_14
REMARK    5  A    between atoms: N_16  and  S_17
REMARK    6  A    between atoms: S_17  and  C_20
REMARK                            x       y       z     vdW  Elec       q    Type
REMARK                         _______ _______ _______ _____ _____    ______ ____
ROOT
ATOM      1  C   UNL     1       0.149  11.443  20.773  0.00  0.00    +0.000 C 
ATOM      2  O   UNL     1       1.054  11.000  21.474  0.00  0.00    +0.000 OA
ATOM      3  N   UNL     1      -1.113  11.742  21.327  0.00  0.00    +0.000 N 
ATOM      4  H   UNL     1      -1.890  12.076  20.763  0.00  0.00    +0.000 HD
ENDROOT
BRANCH   1  10
ATOM      5  C   UNL     1       0.427  14.183  19.265  0.00  0.00    +0.000 C 
ATOM      6  O   UNL     1      -0.530  14.956  19.308  0.00  0.00    +0.000 OA
ATOM      7  N   UNL     1       0.301  12.984  18.577  0.00  0.00    +0.000 N 
ATOM      8  C   UNL     1      -0.815  12.698  17.663  0.00  0.00    +0.000 C 
ATOM      9  C   UNL     1      -1.071  11.411  18.431  0.00  0.00    +0.000 C 
ATOM     10  C   UNL     1       0.260  11.619  19.190  0.00  0.00    +0.000 C 
ATOM     11  C   UNL     1       1.374  10.746  18.592  0.00  0.00    +0.000 C 
BRANCH   5  17
ATOM     12  C   UNL     1       3.349  13.911  18.110  0.00  0.00    +0.000 C 
ATOM     13  C   UNL     1       2.970  14.315  19.500  0.00  0.00    +0.000 A 
ATOM     14  C   UNL     1       3.935  14.652  20.506  0.00  0.00    +0.000 A 
ATOM     15  C   UNL     1       3.357  14.947  21.717  0.00  0.00    +0.000 A 
ATOM     16  S   UNL     1       1.661  14.819  21.657  0.00  0.00    +0.000 S 
ATOM     17  C   UNL     1       1.671  14.430  19.987  0.00  0.00    +0.000 A 
ENDBRANCH   5  17
ENDBRANCH   1  10
BRANCH   3  18
ATOM     18  S   UNL     1      -1.407  11.862  22.965  0.00  0.00    +0.000 S 
ATOM     19  O   UNL     1      -1.275  10.575  23.604  0.00  0.00    +0.000 OA
ATOM     20  O   UNL     1      -0.618  12.990  23.423  0.00  0.00    +0.000 OA
BRANCH  18  21
ATOM     21  C   UNL     1      -3.103  12.375  23.044  0.00  0.00    +0.000 A 
ATOM     22  C   UNL     1      -3.796  12.683  21.871  0.00  0.00    +0.000 A 
ATOM     23  C   UNL     1      -5.157  12.990  21.942  0.00  0.00    +0.000 A 
ATOM     24  C   UNL     1      -5.815  12.969  23.175  0.00  0.00    +0.000 A 
ATOM     25 BR   UNL     1      -7.668  13.337  23.262  0.00  0.00    +0.000 Br
ATOM     26  C   UNL     1      -5.123  12.658  24.344  0.00  0.00    +0.000 A 
ATOM     27  C   UNL     1      -3.762  12.356  24.282  0.00  0.00    +0.000 A 
ENDBRANCH  18  21
ENDBRANCH   3  18
TORSDOF 4
ENDMDL
MODEL 7
REMARK VINA RESULT:      -6.2      9.035     11.003
REMARK  Name = 
REMARK  6 active torsions:
REMARK  status: ('A' for Active; 'I' for Inactive)
REMARK    1  A    between atoms: C_1  and  C_2
REMARK    2  A    between atoms: C_6  and  C_7
REMARK    3  A    between atoms: C_12  and  C_13
REMARK    4  A    between atoms: C_12  and  C_14
REMARK    5  A    between atoms: N_16  and  S_17
REMARK    6  A    between atoms: S_17  and  C_20
REMARK                            x       y       z     vdW  Elec       q    Type
REMARK                         _______ _______ _______ _____ _____    ______ ____
ROOT
ATOM      1  C   UNL     1       0.551  11.704  20.938  0.00  0.00    +0.000 C 
ATOM      2  O   UNL     1       0.491  11.952  22.139  0.00  0.00    +0.000 OA
ATOM      3  N   UNL     1       0.885  10.412  20.484  0.00  0.00    +0.000 N 
ATOM      4  H   UNL     1       0.976  10.189  19.495  0.00  0.00    +0.000 HD
ENDROOT
BRANCH   1  10
ATOM      5  C   UNL     1      -2.181  12.954  20.026  0.00  0.00    +0.000 C 
ATOM      6  O   UNL     1      -2.988  12.211  19.467  0.00  0.00    +0.000 OA
ATOM      7  N   UNL     1      -0.989  13.266  19.385  0.00  0.00    +0.000 N 
ATOM      8  C   UNL     1      -0.746  12.985  17.963  0.00  0.00    +0.000 C 
ATOM      9  C   UNL     1       0.532  12.264  18.357  0.00  0.00    +0.000 C 
ATOM     10  C   UNL     1       0.375  12.807  19.797  0.00  0.00    +0.000 C 
ATOM     11  C   UNL     1       1.286  14.023  20.027  0.00  0.00    +0.000 C 
BRANCH   5  17
ATOM     12  C   UNL     1      -1.741  15.915  21.014  0.00  0.00    +0.000 C 
ATOM     13  C   UNL     1      -2.192  14.754  21.842  0.00  0.00    +0.000 A 
ATOM     14  C   UNL     1      -2.502  14.862  23.238  0.00  0.00    +0.000 A 
ATOM     15  C   UNL     1      -2.850  13.658  23.799  0.00  0.00    +0.000 A 
ATOM     16  S   UNL     1      -2.805  12.393  22.661  0.00  0.00    +0.000 S 
ATOM     17  C   UNL     1      -2.382  13.453  21.382  0.00  0.00    +0.000 A 
ENDBRANCH   5  17
ENDBRANCH   1  10
BRANCH   3  18
ATOM     18  S   UNL     1       0.888   9.054  21.453  0.00  0.00    +0.000 S 
ATOM     19  O   UNL     1       1.712   9.261  22.620  0.00  0.00    +0.000 OA
ATOM     20  O   UNL     1      -0.504   8.674  21.601  0.00  0.00    +0.000 OA
BRANCH  18  21
ATOM     21  C   UNL     1       1.637   7.815  20.429  0.00  0.00    +0.000 A 
ATOM     22  C   UNL     1       1.690   6.488  20.863  0.00  0.00    +0.000 A 
ATOM     23  C   UNL     1       2.194   5.508  20.004  0.00  0.00    +0.000 A 
ATOM     24  C   UNL     1       2.621   5.857  18.720  0.00  0.00    +0.000 A 
ATOM     25 BR   UNL     1       3.257   4.522  17.541  0.00  0.00    +0.000 Br
ATOM     26  C   UNL     1       2.563   7.181  18.287  0.00  0.00    +0.000 A 
ATOM     27  C   UNL     1       2.066   8.166  19.142  0.00  0.00    +0.000 A 
ENDBRANCH  18  21
ENDBRANCH   3  18
TORSDOF 4
ENDMDL
MODEL 8
REMARK VINA RESULT:      -6.2      8.507     10.287
REMARK  Name = 
REMARK  6 active torsions:
REMARK  status: ('A' for Active; 'I' for Inactive)
REMARK    1  A    between atoms: C_1  and  C_2
REMARK    2  A    between atoms: C_6  and  C_7
REMARK    3  A    between atoms: C_12  and  C_13
REMARK    4  A    between atoms: C_12  and  C_14
REMARK    5  A    between atoms: N_16  and  S_17
REMARK    6  A    between atoms: S_17  and  C_20
REMARK                            x       y       z     vdW  Elec       q    Type
REMARK                         _______ _______ _______ _____ _____    ______ ____
ROOT
ATOM      1  C   UNL     1       2.039   5.559  18.621  0.00  0.00    +0.000 C 
ATOM      2  O   UNL     1       1.563   5.413  17.499  0.00  0.00    +0.000 OA
ATOM      3  N   UNL     1       2.428   6.834  19.080  0.00  0.00    +0.000 N 
ATOM      4  H   UNL     1       2.858   6.978  19.991  0.00  0.00    +0.000 HD
ENDROOT
BRANCH   1  10
ATOM      5  C   UNL     1       4.112   3.268  18.060  0.00  0.00    +0.000 C 
ATOM      6  O   UNL     1       3.861   2.486  17.143  0.00  0.00    +0.000 OA
ATOM      7  N   UNL     1       3.312   3.263  19.195  0.00  0.00    +0.000 N 
ATOM      8  C   UNL     1       2.347   2.195  19.490  0.00  0.00    +0.000 C 
ATOM      9  C   UNL     1       1.272   3.256  19.660  0.00  0.00    +0.000 C 
ATOM     10  C   UNL     1       2.366   4.348  19.608  0.00  0.00    +0.000 C 
ATOM     11  C   UNL     1       2.720   4.836  21.021  0.00  0.00    +0.000 C 
BRANCH   5  17
ATOM     12  C   UNL     1       5.312   4.490  15.413  0.00  0.00    +0.000 C 
ATOM     13  C   UNL     1       5.714   4.825  16.815  0.00  0.00    +0.000 A 
ATOM     14  C   UNL     1       6.725   5.792  17.129  0.00  0.00    +0.000 A 
ATOM     15  C   UNL     1       6.956   5.899  18.479  0.00  0.00    +0.000 A 
ATOM     16  S   UNL     1       5.966   4.843  19.376  0.00  0.00    +0.000 S 
ATOM     17  C   UNL     1       5.166   4.273  17.970  0.00  0.00    +0.000 A 
ENDBRANCH   5  17
ENDBRANCH   1  10
BRANCH   3  18
ATOM     18  S   UNL     1       1.986   8.265  18.344  0.00  0.00    +0.000 S 
ATOM     19  O   UNL     1       3.152   9.002  17.919  0.00  0.00    +0.000 OA
ATOM     20  O   UNL     1       0.956   7.912  17.386  0.00  0.00    +0.000 OA
BRANCH  18  21
ATOM     21  C   UNL     1       1.175   9.164  19.639  0.00  0.00    +0.000 A 
ATOM     22  C   UNL     1       0.510  10.359  19.351  0.00  0.00    +0.000 A 
ATOM     23  C   UNL     1      -0.207  11.003  20.362  0.00  0.00    +0.000 A 
ATOM     24  C   UNL     1      -0.268  10.443  21.641  0.00  0.00    +0.000 A 
ATOM     25 BR   UNL     1      -1.279  11.291  22.995  0.00  0.00    +0.000 Br
ATOM     26  C   UNL     1       0.392   9.249  21.926  0.00  0.00    +0.000 A 
ATOM     27  C   UNL     1       1.115   8.602  20.922  0.00  0.00    +0.000 A 
ENDBRANCH  18  21
ENDBRANCH   3  18
TORSDOF 4
ENDMDL
MODEL 9
REMARK VINA RESULT:      -6.2      9.475     11.296
REMARK  Name = 
REMARK  6 active torsions:
REMARK  status: ('A' for Active; 'I' for Inactive)
REMARK    1  A    between atoms: C_1  and  C_2
REMARK    2  A    between atoms: C_6  and  C_7
REMARK    3  A    between atoms: C_12  and  C_13
REMARK    4  A    between atoms: C_12  and  C_14
REMARK    5  A    between atoms: N_16  and  S_17
REMARK    6  A    between atoms: S_17  and  C_20
REMARK                            x       y       z     vdW  Elec       q    Type
REMARK                         _______ _______ _______ _____ _____    ______ ____
ROOT
ATOM      1  C   UNL     1      -0.228  11.378  19.896  0.00  0.00    +0.000 C 
ATOM      2  O   UNL     1       0.713  11.945  20.444  0.00  0.00    +0.000 OA
ATOM      3  N   UNL     1      -0.423   9.990  20.052  0.00  0.00    +0.000 N 
ATOM      4  H   UNL     1      -1.173   9.490  19.581  0.00  0.00    +0.000 HD
ENDROOT
BRANCH   1  10
ATOM      5  C   UNL     1      -2.959  12.702  20.697  0.00  0.00    +0.000 C 
ATOM      6  O   UNL     1      -3.856  11.960  21.098  0.00  0.00    +0.000 OA
ATOM      7  N   UNL     1      -2.552  12.621  19.372  0.00  0.00    +0.000 N 
ATOM      8  C   UNL     1      -3.310  11.894  18.344  0.00  0.00    +0.000 C 
ATOM      9  C   UNL     1      -2.041  11.136  17.991  0.00  0.00    +0.000 C 
ATOM     10  C   UNL     1      -1.233  12.101  18.889  0.00  0.00    +0.000 C 
ATOM     11  C   UNL     1      -0.529  13.175  18.046  0.00  0.00    +0.000 C 
BRANCH   5  17
ATOM     12  C   UNL     1      -1.456  11.921  23.356  0.00  0.00    +0.000 C 
ATOM     13  C   UNL     1      -1.567  13.289  22.761  0.00  0.00    +0.000 A 
ATOM     14  C   UNL     1      -0.966  14.450  23.350  0.00  0.00    +0.000 A 
ATOM     15  C   UNL     1      -1.240  15.601  22.653  0.00  0.00    +0.000 A 
ATOM     16  S   UNL     1      -2.219  15.299  21.293  0.00  0.00    +0.000 S 
ATOM     17  C   UNL     1      -2.236  13.609  21.582  0.00  0.00    +0.000 A 
ENDBRANCH   5  17
ENDBRANCH   1  10
BRANCH   3  18
ATOM     18  S   UNL     1       0.337   9.067  21.215  0.00  0.00    +0.000 S 
ATOM     19  O   UNL     1       1.136   9.896  22.084  0.00  0.00    +0.000 OA
ATOM     20  O   UNL     1      -0.691   8.207  21.768  0.00  0.00    +0.000 OA
BRANCH  18  21
ATOM     21  C   UNL     1       1.411   8.016  20.272  0.00  0.00    +0.000 A 
ATOM     22  C   UNL     1       1.689   6.720  20.716  0.00  0.00    +0.000 A 
ATOM     23  C   UNL     1       2.456   5.873  19.914  0.00  0.00    +0.000 A 
ATOM     24  C   UNL     1       2.921   6.317  18.673  0.00  0.00    +0.000 A 
ATOM     25 BR   UNL     1       3.917   5.151  17.567  0.00  0.00    +0.000 Br
ATOM     26  C   UNL     1       2.639   7.607  18.229  0.00  0.00    +0.000 A 
ATOM     27  C   UNL     1       1.878   8.462  19.028  0.00  0.00    +0.000 A 
ENDBRANCH  18  21
ENDBRANCH   3  18
TORSDOF 4
ENDMDL
