MODEL 1
REMARK VINA RESULT:      -7.3      0.000      0.000
REMARK  Name = 
REMARK  5 active torsions:
REMARK  status: ('A' for Active; 'I' for Inactive)
REMARK    1  A    between atoms: C_1  and  C_2
REMARK    2  A    between atoms: C_2  and  C_3
REMARK    3  A    between atoms: C_3  and  C_4
REMARK    4  A    between atoms: N_6  and  C_7
REMARK    5  A    between atoms: N_16  and  N_17
REMARK                            x       y       z     vdW  Elec       q    Type
REMARK                         _______ _______ _______ _____ _____    ______ ____
ROOT
ATOM      1  C   UNL     1       2.232   4.814  20.232  0.00  0.00    +0.000 C 
ATOM      2  O   UNL     1       1.020   4.616  20.250  0.00  0.00    +0.000 OA
ATOM      3  N   UNL     1       2.827   6.052  20.070  0.00  0.00    +0.000 N 
ATOM      4  H   UNL     1       3.724   6.049  19.586  0.00  0.00    +0.000 HD
ENDROOT
BRANCH   3   5
ATOM      5  C   UNL     1       2.094   7.262  20.012  0.00  0.00    +0.000 A 
ATOM      6  C   UNL     1       1.308   7.688  21.091  0.00  0.00    +0.000 A 
ATOM      7  C   UNL     1       0.605   8.899  21.021  0.00  0.00    +0.000 A 
ATOM      8 CL   UNL     1      -0.298   9.392  22.408  0.00  0.00    +0.000 Cl
ATOM      9  C   UNL     1       0.663   9.674  19.855  0.00  0.00    +0.000 A 
ATOM     10 CL   UNL     1      -0.209  11.155  19.681  0.00  0.00    +0.000 Cl
ATOM     11  C   UNL     1       1.449   9.256  18.778  0.00  0.00    +0.000 A 
ATOM     12  C   UNL     1       2.180   8.071  18.870  0.00  0.00    +0.000 A 
ATOM     13 CL   UNL     1       3.133   7.584  17.511  0.00  0.00    +0.000 Cl
ENDBRANCH   3   5
BRANCH   1  14
ATOM     14  C   UNL     1       3.213   3.680  20.376  0.00  0.00    +0.000 C 
BRANCH  14  16
ATOM     15  C   UNL     1       3.631   2.777  17.987  0.00  0.00    +0.000 C 
ATOM     16  C   UNL     1       4.150   3.514  19.203  0.00  0.00    +0.000 C 
ATOM     17  N   UNL     1       5.348   4.016  19.308  0.00  0.00    +0.000 NA
BRANCH  17  18
ATOM     18  N   UNL     1       6.203   3.837  18.251  0.00  0.00    +0.000 N 
ATOM     19  C   UNL     1       6.956   4.852  17.717  0.00  0.00    +0.000 C 
ATOM     20  N   UNL     1       6.739   6.070  18.270  0.00  0.00    +0.000 N 
ATOM     21  O   UNL     1       7.772   4.674  16.822  0.00  0.00    +0.000 OA
ATOM     22  H   UNL     1       6.377   2.922  17.851  0.00  0.00    +0.000 HD
ATOM     23  H   UNL     1       6.318   6.064  19.182  0.00  0.00    +0.000 HD
ATOM     24  H   UNL     1       7.394   6.802  18.026  0.00  0.00    +0.000 HD
ENDBRANCH  17  18
ENDBRANCH  14  16
ENDBRANCH   1  14
TORSDOF 4
ENDMDL
MODEL 2
REMARK VINA RESULT:      -7.3      1.073      1.162
REMARK  Name = 
REMARK  5 active torsions:
REMARK  status: ('A' for Active; 'I' for Inactive)
REMARK    1  A    between atoms: C_1  and  C_2
REMARK    2  A    between atoms: C_2  and  C_3
REMARK    3  A    between atoms: C_3  and  C_4
REMARK    4  A    between atoms: N_6  and  C_7
REMARK    5  A    between atoms: N_16  and  N_17
REMARK                            x       y       z     vdW  Elec       q    Type
REMARK                         _______ _______ _______ _____ _____    ______ ____
ROOT
ATOM      1  C   UNL     1       2.240   5.532  20.161  0.00  0.00    +0.000 C 
ATOM      2  O   UNL     1       1.101   5.165  20.436  0.00  0.00    +0.000 OA
ATOM      3  N   UNL     1       2.626   6.850  19.994  0.00  0.00    +0.000 N 
ATOM      4  H   UNL     1       3.373   7.009  19.320  0.00  0.00    +0.000 HD
ENDROOT
BRANCH   3   5
ATOM      5  C   UNL     1       1.761   7.946  20.231  0.00  0.00    +0.000 A 
ATOM      6  C   UNL     1       1.224   8.187  21.503  0.00  0.00    +0.000 A 
ATOM      7  C   UNL     1       0.385   9.288  21.721  0.00  0.00    +0.000 A 
ATOM      8 CL   UNL     1      -0.196   9.558  23.325  0.00  0.00    +0.000 Cl
ATOM      9  C   UNL     1       0.055  10.137  20.656  0.00  0.00    +0.000 A 
ATOM     10 CL   UNL     1      -1.004  11.488  20.840  0.00  0.00    +0.000 Cl
ATOM     11  C   UNL     1       0.592   9.904  19.387  0.00  0.00    +0.000 A 
ATOM     12  C   UNL     1       1.461   8.831  19.185  0.00  0.00    +0.000 A 
ATOM     13 CL   UNL     1       2.096   8.572  17.598  0.00  0.00    +0.000 Cl
ENDBRANCH   3   5
BRANCH   1  14
ATOM     14  C   UNL     1       3.355   4.540  19.957  0.00  0.00    +0.000 C 
BRANCH  14  16
ATOM     15  C   UNL     1       3.278   3.969  17.435  0.00  0.00    +0.000 C 
ATOM     16  C   UNL     1       4.008   4.607  18.597  0.00  0.00    +0.000 C 
ATOM     17  N   UNL     1       5.160   5.209  18.506  0.00  0.00    +0.000 NA
BRANCH  17  18
ATOM     18  N   UNL     1       5.761   5.241  17.273  0.00  0.00    +0.000 N 
ATOM     19  C   UNL     1       7.033   4.779  17.048  0.00  0.00    +0.000 C 
ATOM     20  N   UNL     1       7.684   4.350  18.155  0.00  0.00    +0.000 N 
ATOM     21  O   UNL     1       7.539   4.741  15.934  0.00  0.00    +0.000 OA
ATOM     22  H   UNL     1       5.265   5.545  16.442  0.00  0.00    +0.000 HD
ATOM     23  H   UNL     1       7.101   4.116  18.939  0.00  0.00    +0.000 HD
ATOM     24  H   UNL     1       8.548   3.845  18.007  0.00  0.00    +0.000 HD
ENDBRANCH  17  18
ENDBRANCH  14  16
ENDBRANCH   1  14
TORSDOF 4
ENDMDL
MODEL 3
REMARK VINA RESULT:      -6.8      1.347      1.600
REMARK  Name = 
REMARK  5 active torsions:
REMARK  status: ('A' for Active; 'I' for Inactive)
REMARK    1  A    between atoms: C_1  and  C_2
REMARK    2  A    between atoms: C_2  and  C_3
REMARK    3  A    between atoms: C_3  and  C_4
REMARK    4  A    between atoms: N_6  and  C_7
REMARK    5  A    between atoms: N_16  and  N_17
REMARK                            x       y       z     vdW  Elec       q    Type
REMARK                         _______ _______ _______ _____ _____    ______ ____
ROOT
ATOM      1  C   UNL     1       2.833   5.299  19.111  0.00  0.00    +0.000 C 
ATOM      2  O   UNL     1       1.904   5.144  18.322  0.00  0.00    +0.000 OA
ATOM      3  N   UNL     1       3.039   6.433  19.876  0.00  0.00    +0.000 N 
ATOM      4  H   UNL     1       4.013   6.660  20.074  0.00  0.00    +0.000 HD
ENDROOT
BRANCH   3   5
ATOM      5  C   UNL     1       2.128   7.517  19.913  0.00  0.00    +0.000 A 
ATOM      6  C   UNL     1       1.313   7.743  21.031  0.00  0.00    +0.000 A 
ATOM      7  C   UNL     1       0.432   8.833  21.055  0.00  0.00    +0.000 A 
ATOM      8 CL   UNL     1      -0.502   9.086  22.486  0.00  0.00    +0.000 Cl
ATOM      9  C   UNL     1       0.343   9.685  19.947  0.00  0.00    +0.000 A 
ATOM     10 CL   UNL     1      -0.749  11.022  19.890  0.00  0.00    +0.000 Cl
ATOM     11  C   UNL     1       1.157   9.467  18.832  0.00  0.00    +0.000 A 
ATOM     12  C   UNL     1       2.063   8.405  18.830  0.00  0.00    +0.000 A 
ATOM     13 CL   UNL     1       3.046   8.164  17.428  0.00  0.00    +0.000 Cl
ENDBRANCH   3   5
BRANCH   1  14
ATOM     14  C   UNL     1       3.877   4.232  19.310  0.00  0.00    +0.000 C 
BRANCH  14  16
ATOM     15  C   UNL     1       6.267   5.222  19.286  0.00  0.00    +0.000 C 
ATOM     16  C   UNL     1       5.168   4.475  18.564  0.00  0.00    +0.000 C 
ATOM     17  N   UNL     1       5.256   4.026  17.343  0.00  0.00    +0.000 NA
BRANCH  17  18
ATOM     18  N   UNL     1       6.420   4.275  16.662  0.00  0.00    +0.000 N 
ATOM     19  C   UNL     1       6.539   5.267  15.722  0.00  0.00    +0.000 C 
ATOM     20  N   UNL     1       5.394   5.942  15.462  0.00  0.00    +0.000 N 
ATOM     21  O   UNL     1       7.598   5.534  15.168  0.00  0.00    +0.000 OA
ATOM     22  H   UNL     1       7.280   3.780  16.871  0.00  0.00    +0.000 HD
ATOM     23  H   UNL     1       4.685   5.883  16.171  0.00  0.00    +0.000 HD
ATOM     24  H   UNL     1       5.480   6.786  14.911  0.00  0.00    +0.000 HD
ENDBRANCH  17  18
ENDBRANCH  14  16
ENDBRANCH   1  14
TORSDOF 4
ENDMDL
MODEL 4
REMARK VINA RESULT:      -6.8      2.413      3.111
REMARK  Name = 
REMARK  5 active torsions:
REMARK  status: ('A' for Active; 'I' for Inactive)
REMARK    1  A    between atoms: C_1  and  C_2
REMARK    2  A    between atoms: C_2  and  C_3
REMARK    3  A    between atoms: C_3  and  C_4
REMARK    4  A    between atoms: N_6  and  C_7
REMARK    5  A    between atoms: N_16  and  N_17
REMARK                            x       y       z     vdW  Elec       q    Type
REMARK                         _______ _______ _______ _____ _____    ______ ____
ROOT
ATOM      1  C   UNL     1       2.756   4.693  17.755  0.00  0.00    +0.000 C 
ATOM      2  O   UNL     1       1.547   4.494  17.669  0.00  0.00    +0.000 OA
ATOM      3  N   UNL     1       3.334   5.814  18.326  0.00  0.00    +0.000 N 
ATOM      4  H   UNL     1       4.220   6.108  17.918  0.00  0.00    +0.000 HD
ENDROOT
BRANCH   3   5
ATOM      5  C   UNL     1       2.585   6.822  18.980  0.00  0.00    +0.000 A 
ATOM      6  C   UNL     1       2.343   8.060  18.368  0.00  0.00    +0.000 A 
ATOM      7  C   UNL     1       1.583   9.037  19.025  0.00  0.00    +0.000 A 
ATOM      8 CL   UNL     1       1.275  10.518  18.191  0.00  0.00    +0.000 Cl
ATOM      9  C   UNL     1       1.087   8.790  20.312  0.00  0.00    +0.000 A 
ATOM     10 CL   UNL     1       0.179   9.961  21.197  0.00  0.00    +0.000 Cl
ATOM     11  C   UNL     1       1.321   7.555  20.923  0.00  0.00    +0.000 A 
ATOM     12  C   UNL     1       2.043   6.570  20.248  0.00  0.00    +0.000 A 
ATOM     13 CL   UNL     1       2.319   5.060  21.044  0.00  0.00    +0.000 Cl
ENDBRANCH   3   5
BRANCH   1  14
ATOM     14  C   UNL     1       3.753   3.703  17.212  0.00  0.00    +0.000 C 
BRANCH  14  16
ATOM     15  C   UNL     1       6.222   4.282  17.727  0.00  0.00    +0.000 C 
ATOM     16  C   UNL     1       5.058   4.316  16.761  0.00  0.00    +0.000 C 
ATOM     17  N   UNL     1       5.103   4.837  15.567  0.00  0.00    +0.000 NA
BRANCH  17  18
ATOM     18  N   UNL     1       6.282   5.417  15.175  0.00  0.00    +0.000 N 
ATOM     19  C   UNL     1       7.038   4.945  14.132  0.00  0.00    +0.000 C 
ATOM     20  N   UNL     1       6.568   3.811  13.559  0.00  0.00    +0.000 N 
ATOM     21  O   UNL     1       8.052   5.507  13.739  0.00  0.00    +0.000 OA
ATOM     22  H   UNL     1       6.623   6.275  15.594  0.00  0.00    +0.000 HD
ATOM     23  H   UNL     1       5.596   3.614  13.720  0.00  0.00    +0.000 HD
ATOM     24  H   UNL     1       6.996   3.533  12.686  0.00  0.00    +0.000 HD
ENDBRANCH  17  18
ENDBRANCH  14  16
ENDBRANCH   1  14
TORSDOF 4
ENDMDL
MODEL 5
REMARK VINA RESULT:      -6.7      3.714      6.849
REMARK  Name = 
REMARK  5 active torsions:
REMARK  status: ('A' for Active; 'I' for Inactive)
REMARK    1  A    between atoms: C_1  and  C_2
REMARK    2  A    between atoms: C_2  and  C_3
REMARK    3  A    between atoms: C_3  and  C_4
REMARK    4  A    between atoms: N_6  and  C_7
REMARK    5  A    between atoms: N_16  and  N_17
REMARK                            x       y       z     vdW  Elec       q    Type
REMARK                         _______ _______ _______ _____ _____    ______ ____
ROOT
ATOM      1  C   UNL     1       3.600   3.254  17.777  0.00  0.00    +0.000 C 
ATOM      2  O   UNL     1       2.855   3.351  16.806  0.00  0.00    +0.000 OA
ATOM      3  N   UNL     1       4.968   3.464  17.747  0.00  0.00    +0.000 N 
ATOM      4  H   UNL     1       5.514   2.903  18.400  0.00  0.00    +0.000 HD
ENDROOT
BRANCH   3   5
ATOM      5  C   UNL     1       5.655   3.925  16.598  0.00  0.00    +0.000 A 
ATOM      6  C   UNL     1       5.332   3.452  15.319  0.00  0.00    +0.000 A 
ATOM      7  C   UNL     1       6.012   3.935  14.193  0.00  0.00    +0.000 A 
ATOM      8 CL   UNL     1       5.524   3.352  12.642  0.00  0.00    +0.000 Cl
ATOM      9  C   UNL     1       7.040   4.874  14.347  0.00  0.00    +0.000 A 
ATOM     10 CL   UNL     1       7.947   5.484  13.010  0.00  0.00    +0.000 Cl
ATOM     11  C   UNL     1       7.362   5.354  15.619  0.00  0.00    +0.000 A 
ATOM     12  C   UNL     1       6.654   4.900  16.733  0.00  0.00    +0.000 A 
ATOM     13 CL   UNL     1       7.090   5.510  18.291  0.00  0.00    +0.000 Cl
ENDBRANCH   3   5
BRANCH   1  14
ATOM     14  C   UNL     1       3.072   2.869  19.135  0.00  0.00    +0.000 C 
BRANCH  14  16
ATOM     15  C   UNL     1       1.284   3.720  20.799  0.00  0.00    +0.000 C 
ATOM     16  C   UNL     1       2.481   4.014  19.922  0.00  0.00    +0.000 C 
ATOM     17  N   UNL     1       3.037   5.186  19.798  0.00  0.00    +0.000 NA
BRANCH  17  18
ATOM     18  N   UNL     1       2.478   6.228  20.493  0.00  0.00    +0.000 N 
ATOM     19  C   UNL     1       2.124   7.416  19.906  0.00  0.00    +0.000 C 
ATOM     20  N   UNL     1       2.435   7.513  18.591  0.00  0.00    +0.000 N 
ATOM     21  O   UNL     1       1.558   8.315  20.514  0.00  0.00    +0.000 OA
ATOM     22  H   UNL     1       2.229   6.146  21.473  0.00  0.00    +0.000 HD
ATOM     23  H   UNL     1       2.587   6.641  18.115  0.00  0.00    +0.000 HD
ATOM     24  H   UNL     1       2.037   8.294  18.087  0.00  0.00    +0.000 HD
ENDBRANCH  17  18
ENDBRANCH  14  16
ENDBRANCH   1  14
TORSDOF 4
ENDMDL
MODEL 6
REMARK VINA RESULT:      -6.7      1.046      1.046
REMARK  Name = 
REMARK  5 active torsions:
REMARK  status: ('A' for Active; 'I' for Inactive)
REMARK    1  A    between atoms: C_1  and  C_2
REMARK    2  A    between atoms: C_2  and  C_3
REMARK    3  A    between atoms: C_3  and  C_4
REMARK    4  A    between atoms: N_6  and  C_7
REMARK    5  A    between atoms: N_16  and  N_17
REMARK                            x       y       z     vdW  Elec       q    Type
REMARK                         _______ _______ _______ _____ _____    ______ ____
ROOT
ATOM      1  C   UNL     1       2.111   4.819  20.312  0.00  0.00    +0.000 C 
ATOM      2  O   UNL     1       0.899   4.621  20.315  0.00  0.00    +0.000 OA
ATOM      3  N   UNL     1       2.707   6.062  20.195  0.00  0.00    +0.000 N 
ATOM      4  H   UNL     1       3.608   6.075  19.718  0.00  0.00    +0.000 HD
ENDROOT
BRANCH   3   5
ATOM      5  C   UNL     1       1.974   7.274  20.171  0.00  0.00    +0.000 A 
ATOM      6  C   UNL     1       1.203   7.678  21.269  0.00  0.00    +0.000 A 
ATOM      7  C   UNL     1       0.500   8.890  21.232  0.00  0.00    +0.000 A 
ATOM      8 CL   UNL     1      -0.385   9.356  22.641  0.00  0.00    +0.000 Cl
ATOM      9  C   UNL     1       0.543   9.688  20.082  0.00  0.00    +0.000 A 
ATOM     10 CL   UNL     1      -0.330  11.173  19.949  0.00  0.00    +0.000 Cl
ATOM     11  C   UNL     1       1.315   9.292  18.986  0.00  0.00    +0.000 A 
ATOM     12  C   UNL     1       2.046   8.105  19.044  0.00  0.00    +0.000 A 
ATOM     13 CL   UNL     1       2.981   7.645  17.664  0.00  0.00    +0.000 Cl
ENDBRANCH   3   5
BRANCH   1  14
ATOM     14  C   UNL     1       3.091   3.681  20.426  0.00  0.00    +0.000 C 
BRANCH  14  16
ATOM     15  C   UNL     1       2.935   1.925  18.532  0.00  0.00    +0.000 C 
ATOM     16  C   UNL     1       3.598   3.160  19.102  0.00  0.00    +0.000 C 
ATOM     17  N   UNL     1       4.575   3.807  18.530  0.00  0.00    +0.000 NA
BRANCH  17  18
ATOM     18  N   UNL     1       5.049   3.312  17.342  0.00  0.00    +0.000 N 
ATOM     19  C   UNL     1       5.542   4.111  16.342  0.00  0.00    +0.000 C 
ATOM     20  N   UNL     1       5.459   5.440  16.586  0.00  0.00    +0.000 N 
ATOM     21  O   UNL     1       6.031   3.662  15.313  0.00  0.00    +0.000 OA
ATOM     22  H   UNL     1       5.126   2.316  17.168  0.00  0.00    +0.000 HD
ATOM     23  H   UNL     1       5.357   5.699  17.551  0.00  0.00    +0.000 HD
ATOM     24  H   UNL     1       5.966   6.050  15.957  0.00  0.00    +0.000 HD
ENDBRANCH  17  18
ENDBRANCH  14  16
ENDBRANCH   1  14
TORSDOF 4
ENDMDL
MODEL 7
REMARK VINA RESULT:      -6.7      4.423      5.918
REMARK  Name = 
REMARK  5 active torsions:
REMARK  status: ('A' for Active; 'I' for Inactive)
REMARK    1  A    between atoms: C_1  and  C_2
REMARK    2  A    between atoms: C_2  and  C_3
REMARK    3  A    between atoms: C_3  and  C_4
REMARK    4  A    between atoms: N_6  and  C_7
REMARK    5  A    between atoms: N_16  and  N_17
REMARK                            x       y       z     vdW  Elec       q    Type
REMARK                         _______ _______ _______ _____ _____    ______ ____
ROOT
ATOM      1  C   UNL     1       4.606   5.982  16.573  0.00  0.00    +0.000 C 
ATOM      2  O   UNL     1       4.156   6.882  17.277  0.00  0.00    +0.000 OA
ATOM      3  N   UNL     1       4.528   4.633  16.871  0.00  0.00    +0.000 N 
ATOM      4  H   UNL     1       5.306   4.063  16.541  0.00  0.00    +0.000 HD
ENDROOT
BRANCH   3   5
ATOM      5  C   UNL     1       3.815   4.126  17.986  0.00  0.00    +0.000 A 
ATOM      6  C   UNL     1       2.563   3.516  17.832  0.00  0.00    +0.000 A 
ATOM      7  C   UNL     1       1.884   3.005  18.946  0.00  0.00    +0.000 A 
ATOM      8 CL   UNL     1       0.371   2.214  18.678  0.00  0.00    +0.000 Cl
ATOM      9  C   UNL     1       2.443   3.130  20.225  0.00  0.00    +0.000 A 
ATOM     10 CL   UNL     1       1.646   2.560  21.646  0.00  0.00    +0.000 Cl
ATOM     11  C   UNL     1       3.694   3.733  20.382  0.00  0.00    +0.000 A 
ATOM     12  C   UNL     1       4.386   4.203  19.265  0.00  0.00    +0.000 A 
ATOM     13 CL   UNL     1       5.926   4.951  19.504  0.00  0.00    +0.000 Cl
ENDBRANCH   3   5
BRANCH   1  14
ATOM     14  C   UNL     1       5.324   6.279  15.282  0.00  0.00    +0.000 C 
BRANCH  14  16
ATOM     15  C   UNL     1       7.419   4.773  15.100  0.00  0.00    +0.000 C 
ATOM     16  C   UNL     1       6.006   5.085  14.658  0.00  0.00    +0.000 C 
ATOM     17  N   UNL     1       5.336   4.396  13.778  0.00  0.00    +0.000 NA
BRANCH  17  18
ATOM     18  N   UNL     1       5.972   3.330  13.194  0.00  0.00    +0.000 N 
ATOM     19  C   UNL     1       5.555   2.762  12.017  0.00  0.00    +0.000 C 
ATOM     20  N   UNL     1       4.417   3.290  11.506  0.00  0.00    +0.000 N 
ATOM     21  O   UNL     1       6.166   1.858  11.462  0.00  0.00    +0.000 OA
ATOM     22  H   UNL     1       6.833   2.948  13.569  0.00  0.00    +0.000 HD
ATOM     23  H   UNL     1       4.178   4.208  11.835  0.00  0.00    +0.000 HD
ATOM     24  H   UNL     1       4.177   3.020  10.561  0.00  0.00    +0.000 HD
ENDBRANCH  17  18
ENDBRANCH  14  16
ENDBRANCH   1  14
TORSDOF 4
ENDMDL
MODEL 8
REMARK VINA RESULT:      -6.7      4.130      5.979
REMARK  Name = 
REMARK  5 active torsions:
REMARK  status: ('A' for Active; 'I' for Inactive)
REMARK    1  A    between atoms: C_1  and  C_2
REMARK    2  A    between atoms: C_2  and  C_3
REMARK    3  A    between atoms: C_3  and  C_4
REMARK    4  A    between atoms: N_6  and  C_7
REMARK    5  A    between atoms: N_16  and  N_17
REMARK                            x       y       z     vdW  Elec       q    Type
REMARK                         _______ _______ _______ _____ _____    ______ ____
ROOT
ATOM      1  C   UNL     1       4.777   5.684  16.872  0.00  0.00    +0.000 C 
ATOM      2  O   UNL     1       4.978   6.432  17.825  0.00  0.00    +0.000 OA
ATOM      3  N   UNL     1       4.177   4.440  16.957  0.00  0.00    +0.000 N 
ATOM      4  H   UNL     1       4.501   3.748  16.283  0.00  0.00    +0.000 HD
ENDROOT
BRANCH   3   5
ATOM      5  C   UNL     1       3.623   3.928  18.156  0.00  0.00    +0.000 A 
ATOM      6  C   UNL     1       4.352   3.061  18.981  0.00  0.00    +0.000 A 
ATOM      7  C   UNL     1       3.793   2.581  20.173  0.00  0.00    +0.000 A 
ATOM      8 CL   UNL     1       4.767   1.562  21.171  0.00  0.00    +0.000 Cl
ATOM      9  C   UNL     1       2.488   2.944  20.529  0.00  0.00    +0.000 A 
ATOM     10 CL   UNL     1       1.719   2.360  21.961  0.00  0.00    +0.000 Cl
ATOM     11  C   UNL     1       1.759   3.813  19.712  0.00  0.00    +0.000 A 
ATOM     12  C   UNL     1       2.336   4.321  18.547  0.00  0.00    +0.000 A 
ATOM     13 CL   UNL     1       1.397   5.385  17.559  0.00  0.00    +0.000 Cl
ENDBRANCH   3   5
BRANCH   1  14
ATOM     14  C   UNL     1       5.196   6.064  15.476  0.00  0.00    +0.000 C 
BRANCH  14  16
ATOM     15  C   UNL     1       7.439   4.829  15.103  0.00  0.00    +0.000 C 
ATOM     16  C   UNL     1       5.978   4.997  14.747  0.00  0.00    +0.000 C 
ATOM     17  N   UNL     1       5.347   4.284  13.856  0.00  0.00    +0.000 NA
BRANCH  17  18
ATOM     18  N   UNL     1       6.070   3.337  13.178  0.00  0.00    +0.000 N 
ATOM     19  C   UNL     1       5.657   2.788  11.991  0.00  0.00    +0.000 C 
ATOM     20  N   UNL     1       4.438   3.203  11.569  0.00  0.00    +0.000 N 
ATOM     21  O   UNL     1       6.338   1.997  11.352  0.00  0.00    +0.000 OA
ATOM     22  H   UNL     1       6.989   3.041  13.487  0.00  0.00    +0.000 HD
ATOM     23  H   UNL     1       4.111   4.066  11.965  0.00  0.00    +0.000 HD
ATOM     24  H   UNL     1       4.179   2.958  10.622  0.00  0.00    +0.000 HD
ENDBRANCH  17  18
ENDBRANCH  14  16
ENDBRANCH   1  14
TORSDOF 4
ENDMDL
MODEL 9
REMARK VINA RESULT:      -6.7      1.682      1.972
REMARK  Name = 
REMARK  5 active torsions:
REMARK  status: ('A' for Active; 'I' for Inactive)
REMARK    1  A    between atoms: C_1  and  C_2
REMARK    2  A    between atoms: C_2  and  C_3
REMARK    3  A    between atoms: C_3  and  C_4
REMARK    4  A    between atoms: N_6  and  C_7
REMARK    5  A    between atoms: N_16  and  N_17
REMARK                            x       y       z     vdW  Elec       q    Type
REMARK                         _______ _______ _______ _____ _____    ______ ____
ROOT
ATOM      1  C   UNL     1       2.302   5.720  20.091  0.00  0.00    +0.000 C 
ATOM      2  O   UNL     1       1.179   5.295  20.351  0.00  0.00    +0.000 OA
ATOM      3  N   UNL     1       2.631   7.058  19.965  0.00  0.00    +0.000 N 
ATOM      4  H   UNL     1       3.372   7.268  19.298  0.00  0.00    +0.000 HD
ENDROOT
BRANCH   3   5
ATOM      5  C   UNL     1       1.718   8.108  20.231  0.00  0.00    +0.000 A 
ATOM      6  C   UNL     1       1.208   8.319  21.519  0.00  0.00    +0.000 A 
ATOM      7  C   UNL     1       0.321   9.376  21.765  0.00  0.00    +0.000 A 
ATOM      8 CL   UNL     1      -0.224   9.614  23.387  0.00  0.00    +0.000 Cl
ATOM      9  C   UNL     1      -0.084  10.208  20.713  0.00  0.00    +0.000 A 
ATOM     10 CL   UNL     1      -1.205  11.503  20.932  0.00  0.00    +0.000 Cl
ATOM     11  C   UNL     1       0.426  10.004  19.428  0.00  0.00    +0.000 A 
ATOM     12  C   UNL     1       1.341   8.977  19.197  0.00  0.00    +0.000 A 
ATOM     13 CL   UNL     1       1.940   8.752  17.590  0.00  0.00    +0.000 Cl
ENDBRANCH   3   5
BRANCH   1  14
ATOM     14  C   UNL     1       3.460   4.784  19.863  0.00  0.00    +0.000 C 
BRANCH  14  16
ATOM     15  C   UNL     1       5.934   5.292  19.301  0.00  0.00    +0.000 C 
ATOM     16  C   UNL     1       4.483   5.288  18.872  0.00  0.00    +0.000 C 
ATOM     17  N   UNL     1       4.053   5.688  17.708  0.00  0.00    +0.000 NA
BRANCH  17  18
ATOM     18  N   UNL     1       4.984   6.170  16.824  0.00  0.00    +0.000 N 
ATOM     19  C   UNL     1       5.461   5.439  15.766  0.00  0.00    +0.000 C 
ATOM     20  N   UNL     1       4.995   4.170  15.698  0.00  0.00    +0.000 N 
ATOM     21  O   UNL     1       6.237   5.898  14.937  0.00  0.00    +0.000 OA
ATOM     22  H   UNL     1       5.318   7.127  16.866  0.00  0.00    +0.000 HD
ATOM     23  H   UNL     1       4.144   3.992  16.203  0.00  0.00    +0.000 HD
ATOM     24  H   UNL     1       5.184   3.661  14.844  0.00  0.00    +0.000 HD
ENDBRANCH  17  18
ENDBRANCH  14  16
ENDBRANCH   1  14
TORSDOF 4
ENDMDL
