MODEL 1
REMARK VINA RESULT:      -8.2      0.000      0.000
REMARK  Name = 
REMARK  7 active torsions:
REMARK  status: ('A' for Active; 'I' for Inactive)
REMARK    1  A    between atoms: C_1  and  C_2
REMARK    2  A    between atoms: N_4  and  C_5
REMARK    3  A    between atoms: N_4  and  S_16
REMARK    4  A    between atoms: C_5  and  C_6
REMARK    5  A    between atoms: S_16  and  C_19
REMARK    6  A    between atoms: C_22  and  C_23
REMARK    7  A    between atoms: C_23  and  O_25
REMARK                            x       y       z     vdW  Elec       q    Type
REMARK                         _______ _______ _______ _____ _____    ______ ____
ROOT
ATOM      1  C   UNL     1      -1.159   9.755  17.875  0.00  0.00    +0.000 C 
ATOM      2  C   UNL     1      -1.813  10.782  18.758  0.00  0.00    +0.000 A 
ATOM      3  C   UNL     1      -1.249  11.215  19.963  0.00  0.00    +0.000 A 
ATOM      4  N   UNL     1       0.142  11.051  20.265  0.00  0.00    +0.000 N 
ATOM      5  N   UNL     1      -1.931  11.923  20.888  0.00  0.00    +0.000 NA
ATOM      6  C   UNL     1      -3.187  12.307  20.569  0.00  0.00    +0.000 A 
ATOM      7  C   UNL     1      -3.783  12.104  19.327  0.00  0.00    +0.000 A 
ATOM      8  C   UNL     1      -5.032  12.669  19.000  0.00  0.00    +0.000 A 
ATOM      9  C   UNL     1      -5.546  12.555  17.710  0.00  0.00    +0.000 A 
ATOM     10  C   UNL     1      -4.841  11.836  16.753  0.00  0.00    +0.000 A 
ATOM     11  C   UNL     1      -3.642  11.205  17.095  0.00  0.00    +0.000 A 
ATOM     12  C   UNL     1      -3.071  11.335  18.385  0.00  0.00    +0.000 A 
ENDROOT
BRANCH   4  13
ATOM     13  S   UNL     1       0.559   9.620  21.091  0.00  0.00    +0.000 S 
ATOM     14  O   UNL     1       1.421   9.926  22.218  0.00  0.00    +0.000 OA
ATOM     15  O   UNL     1      -0.671   8.874  21.308  0.00  0.00    +0.000 OA
BRANCH  13  16
ATOM     16  C   UNL     1       1.542   8.643  19.963  0.00  0.00    +0.000 A 
ATOM     17  C   UNL     1       1.900   7.341  20.308  0.00  0.00    +0.000 A 
ATOM     18  C   UNL     1       2.666   6.576  19.429  0.00  0.00    +0.000 A 
ATOM     19  C   UNL     1       3.045   7.096  18.183  0.00  0.00    +0.000 A 
ATOM     20  C   UNL     1       2.603   8.368  17.800  0.00  0.00    +0.000 A 
ATOM     21  C   UNL     1       1.863   9.149  18.694  0.00  0.00    +0.000 A 
BRANCH  19  22
ATOM     22  C   UNL     1       3.871   6.232  17.295  0.00  0.00    +0.000 C 
ATOM     23  O   UNL     1       3.787   5.015  17.295  0.00  0.00    +0.000 OA
BRANCH  22  24
ATOM     24  O   UNL     1       4.758   6.908  16.538  0.00  0.00    +0.000 OA
ATOM     25  H   UNL     1       5.554   7.223  17.003  0.00  0.00    +0.000 HD
ENDBRANCH  22  24
ENDBRANCH  19  22
ENDBRANCH  13  16
ENDBRANCH   4  13
BRANCH   4  26
ATOM     26  C   UNL     1       0.842  12.292  20.724  0.00  0.00    +0.000 C 
BRANCH  26  27
ATOM     27  C   UNL     1       1.371  13.231  19.652  0.00  0.00    +0.000 A 
ATOM     28  C   UNL     1       2.552  12.999  18.947  0.00  0.00    +0.000 A 
ATOM     29  C   UNL     1       3.107  14.002  18.145  0.00  0.00    +0.000 A 
ATOM     30  C   UNL     1       2.480  15.250  18.001  0.00  0.00    +0.000 A 
ATOM     31  C   UNL     1       3.096  16.310  17.311  0.00  0.00    +0.000 A 
ATOM     32  C   UNL     1       2.447  17.537  17.149  0.00  0.00    +0.000 A 
ATOM     33  C   UNL     1       1.163  17.708  17.645  0.00  0.00    +0.000 A 
ATOM     34  C   UNL     1       0.546  16.674  18.364  0.00  0.00    +0.000 A 
ATOM     35  C   UNL     1       1.214  15.454  18.587  0.00  0.00    +0.000 A 
ATOM     36  C   UNL     1       0.676  14.437  19.404  0.00  0.00    +0.000 A 
ENDBRANCH  26  27
ENDBRANCH   4  26
TORSDOF 6
ENDMDL
MODEL 2
REMARK VINA RESULT:      -8.2      3.424      7.844
REMARK  Name = 
REMARK  7 active torsions:
REMARK  status: ('A' for Active; 'I' for Inactive)
REMARK    1  A    between atoms: C_1  and  C_2
REMARK    2  A    between atoms: N_4  and  C_5
REMARK    3  A    between atoms: N_4  and  S_16
REMARK    4  A    between atoms: C_5  and  C_6
REMARK    5  A    between atoms: S_16  and  C_19
REMARK    6  A    between atoms: C_22  and  C_23
REMARK    7  A    between atoms: C_23  and  O_25
REMARK                            x       y       z     vdW  Elec       q    Type
REMARK                         _______ _______ _______ _____ _____    ______ ____
ROOT
ATOM      1  C   UNL     1      -2.286  15.618  20.245  0.00  0.00    +0.000 C 
ATOM      2  C   UNL     1      -0.837  15.504  19.858  0.00  0.00    +0.000 A 
ATOM      3  C   UNL     1       0.007  14.510  20.366  0.00  0.00    +0.000 A 
ATOM      4  N   UNL     1      -0.493  13.301  20.951  0.00  0.00    +0.000 N 
ATOM      5  N   UNL     1       1.351  14.546  20.245  0.00  0.00    +0.000 NA
ATOM      6  C   UNL     1       1.876  15.548  19.506  0.00  0.00    +0.000 A 
ATOM      7  C   UNL     1       1.129  16.480  18.793  0.00  0.00    +0.000 A 
ATOM      8  C   UNL     1       1.730  17.401  17.912  0.00  0.00    +0.000 A 
ATOM      9  C   UNL     1       0.949  18.237  17.116  0.00  0.00    +0.000 A 
ATOM     10  C   UNL     1      -0.435  18.195  17.231  0.00  0.00    +0.000 A 
ATOM     11  C   UNL     1      -1.033  17.342  18.163  0.00  0.00    +0.000 A 
ATOM     12  C   UNL     1      -0.271  16.450  18.956  0.00  0.00    +0.000 A 
ENDROOT
BRANCH   4  13
ATOM     13  S   UNL     1      -0.739  13.338  22.637  0.00  0.00    +0.000 S 
ATOM     14  O   UNL     1      -0.147  12.166  23.254  0.00  0.00    +0.000 OA
ATOM     15  O   UNL     1      -0.357  14.663  23.098  0.00  0.00    +0.000 OA
BRANCH  13  16
ATOM     16  C   UNL     1      -2.501  13.206  22.901  0.00  0.00    +0.000 A 
ATOM     17  C   UNL     1      -3.061  13.698  24.080  0.00  0.00    +0.000 A 
ATOM     18  C   UNL     1      -4.436  13.597  24.288  0.00  0.00    +0.000 A 
ATOM     19  C   UNL     1      -5.263  13.040  23.304  0.00  0.00    +0.000 A 
ATOM     20  C   UNL     1      -4.710  12.634  22.083  0.00  0.00    +0.000 A 
ATOM     21  C   UNL     1      -3.327  12.704  21.885  0.00  0.00    +0.000 A 
BRANCH  19  22
ATOM     22  C   UNL     1      -6.721  12.952  23.592  0.00  0.00    +0.000 C 
ATOM     23  O   UNL     1      -7.435  12.080  23.125  0.00  0.00    +0.000 OA
BRANCH  22  24
ATOM     24  O   UNL     1      -7.192  13.952  24.364  0.00  0.00    +0.000 OA
ATOM     25  H   UNL     1      -7.187  14.837  23.956  0.00  0.00    +0.000 HD
ENDBRANCH  22  24
ENDBRANCH  19  22
ENDBRANCH  13  16
ENDBRANCH   4  13
BRANCH   4  26
ATOM     26  C   UNL     1       0.107  12.040  20.410  0.00  0.00    +0.000 C 
BRANCH  26  27
ATOM     27  C   UNL     1      -0.677  11.298  19.340  0.00  0.00    +0.000 A 
ATOM     28  C   UNL     1      -0.150  10.240  18.601  0.00  0.00    +0.000 A 
ATOM     29  C   UNL     1      -0.829   9.752  17.479  0.00  0.00    +0.000 A 
ATOM     30  C   UNL     1      -2.067  10.286  17.087  0.00  0.00    +0.000 A 
ATOM     31  C   UNL     1      -2.691   9.899  15.888  0.00  0.00    +0.000 A 
ATOM     32  C   UNL     1      -3.937  10.416  15.525  0.00  0.00    +0.000 A 
ATOM     33  C   UNL     1      -4.590  11.299  16.372  0.00  0.00    +0.000 A 
ATOM     34  C   UNL     1      -3.969  11.722  17.556  0.00  0.00    +0.000 A 
ATOM     35  C   UNL     1      -2.685  11.255  17.903  0.00  0.00    +0.000 A 
ATOM     36  C   UNL     1      -1.981  11.747  19.022  0.00  0.00    +0.000 A 
ENDBRANCH  26  27
ENDBRANCH   4  26
TORSDOF 6
ENDMDL
MODEL 3
REMARK VINA RESULT:      -7.9      1.191      5.599
REMARK  Name = 
REMARK  7 active torsions:
REMARK  status: ('A' for Active; 'I' for Inactive)
REMARK    1  A    between atoms: C_1  and  C_2
REMARK    2  A    between atoms: N_4  and  C_5
REMARK    3  A    between atoms: N_4  and  S_16
REMARK    4  A    between atoms: C_5  and  C_6
REMARK    5  A    between atoms: S_16  and  C_19
REMARK    6  A    between atoms: C_22  and  C_23
REMARK    7  A    between atoms: C_23  and  O_25
REMARK                            x       y       z     vdW  Elec       q    Type
REMARK                         _______ _______ _______ _____ _____    ______ ____
ROOT
ATOM      1  C   UNL     1       0.221  13.514  21.195  0.00  0.00    +0.000 C 
ATOM      2  C   UNL     1       1.027  13.309  19.941  0.00  0.00    +0.000 A 
ATOM      3  C   UNL     1       1.158  12.062  19.321  0.00  0.00    +0.000 A 
ATOM      4  N   UNL     1       0.243  10.985  19.557  0.00  0.00    +0.000 N 
ATOM      5  N   UNL     1       2.075  11.803  18.365  0.00  0.00    +0.000 NA
ATOM      6  C   UNL     1       2.826  12.840  17.933  0.00  0.00    +0.000 A 
ATOM      7  C   UNL     1       2.652  14.162  18.334  0.00  0.00    +0.000 A 
ATOM      8  C   UNL     1       3.356  15.222  17.729  0.00  0.00    +0.000 A 
ATOM      9  C   UNL     1       3.070  16.545  18.063  0.00  0.00    +0.000 A 
ATOM     10  C   UNL     1       2.119  16.815  19.038  0.00  0.00    +0.000 A 
ATOM     11  C   UNL     1       1.479  15.764  19.700  0.00  0.00    +0.000 A 
ATOM     12  C   UNL     1       1.714  14.411  19.356  0.00  0.00    +0.000 A 
ENDROOT
BRANCH   4  13
ATOM     13  S   UNL     1       0.667   9.913  20.813  0.00  0.00    +0.000 S 
ATOM     14  O   UNL     1       1.703  10.500  21.643  0.00  0.00    +0.000 OA
ATOM     15  O   UNL     1      -0.570   9.455  21.425  0.00  0.00    +0.000 OA
BRANCH  13  16
ATOM     16  C   UNL     1       1.402   8.481  20.038  0.00  0.00    +0.000 A 
ATOM     17  C   UNL     1       1.963   8.595  18.767  0.00  0.00    +0.000 A 
ATOM     18  C   UNL     1       2.538   7.479  18.160  0.00  0.00    +0.000 A 
ATOM     19  C   UNL     1       2.591   6.253  18.837  0.00  0.00    +0.000 A 
ATOM     20  C   UNL     1       2.114   6.165  20.150  0.00  0.00    +0.000 A 
ATOM     21  C   UNL     1       1.506   7.275  20.748  0.00  0.00    +0.000 A 
BRANCH  19  22
ATOM     22  C   UNL     1       3.210   5.098  18.130  0.00  0.00    +0.000 C 
ATOM     23  O   UNL     1       2.554   4.270  17.520  0.00  0.00    +0.000 OA
BRANCH  22  24
ATOM     24  O   UNL     1       4.548   5.015  18.274  0.00  0.00    +0.000 OA
ATOM     25  H   UNL     1       5.054   4.899  17.450  0.00  0.00    +0.000 HD
ENDBRANCH  22  24
ENDBRANCH  19  22
ENDBRANCH  13  16
ENDBRANCH   4  13
BRANCH   4  26
ATOM     26  C   UNL     1      -0.320  10.348  18.324  0.00  0.00    +0.000 C 
BRANCH  26  27
ATOM     27  C   UNL     1      -1.789  10.594  18.022  0.00  0.00    +0.000 A 
ATOM     28  C   UNL     1      -2.402  10.197  16.835  0.00  0.00    +0.000 A 
ATOM     29  C   UNL     1      -3.686  10.652  16.514  0.00  0.00    +0.000 A 
ATOM     30  C   UNL     1      -4.403  11.487  17.387  0.00  0.00    +0.000 A 
ATOM     31  C   UNL     1      -5.633  12.059  17.016  0.00  0.00    +0.000 A 
ATOM     32  C   UNL     1      -6.350  12.863  17.906  0.00  0.00    +0.000 A 
ATOM     33  C   UNL     1      -5.863  13.077  19.187  0.00  0.00    +0.000 A 
ATOM     34  C   UNL     1      -4.623  12.542  19.563  0.00  0.00    +0.000 A 
ATOM     35  C   UNL     1      -3.861  11.781  18.655  0.00  0.00    +0.000 A 
ATOM     36  C   UNL     1      -2.559  11.327  18.956  0.00  0.00    +0.000 A 
ENDBRANCH  26  27
ENDBRANCH   4  26
TORSDOF 6
ENDMDL
MODEL 4
REMARK VINA RESULT:      -7.9      2.073      5.188
REMARK  Name = 
REMARK  7 active torsions:
REMARK  status: ('A' for Active; 'I' for Inactive)
REMARK    1  A    between atoms: C_1  and  C_2
REMARK    2  A    between atoms: N_4  and  C_5
REMARK    3  A    between atoms: N_4  and  S_16
REMARK    4  A    between atoms: C_5  and  C_6
REMARK    5  A    between atoms: S_16  and  C_19
REMARK    6  A    between atoms: C_22  and  C_23
REMARK    7  A    between atoms: C_23  and  O_25
REMARK                            x       y       z     vdW  Elec       q    Type
REMARK                         _______ _______ _______ _____ _____    ______ ____
ROOT
ATOM      1  C   UNL     1      -1.549  11.540  23.091  0.00  0.00    +0.000 C 
ATOM      2  C   UNL     1      -0.568  12.260  22.207  0.00  0.00    +0.000 A 
ATOM      3  C   UNL     1       0.178  11.612  21.217  0.00  0.00    +0.000 A 
ATOM      4  N   UNL     1      -0.200  10.338  20.679  0.00  0.00    +0.000 N 
ATOM      5  N   UNL     1       1.240  12.173  20.602  0.00  0.00    +0.000 NA
ATOM      6  C   UNL     1       1.516  13.461  20.903  0.00  0.00    +0.000 A 
ATOM      7  C   UNL     1       0.731  14.267  21.722  0.00  0.00    +0.000 A 
ATOM      8  C   UNL     1       0.979  15.646  21.869  0.00  0.00    +0.000 A 
ATOM      9  C   UNL     1       0.103  16.452  22.594  0.00  0.00    +0.000 A 
ATOM     10  C   UNL     1      -0.997  15.879  23.218  0.00  0.00    +0.000 A 
ATOM     11  C   UNL     1      -1.201  14.498  23.145  0.00  0.00    +0.000 A 
ATOM     12  C   UNL     1      -0.355  13.658  22.382  0.00  0.00    +0.000 A 
ENDROOT
BRANCH   4  13
ATOM     13  S   UNL     1       0.468   8.976  21.457  0.00  0.00    +0.000 S 
ATOM     14  O   UNL     1       1.359   9.396  22.522  0.00  0.00    +0.000 OA
ATOM     15  O   UNL     1      -0.629   8.068  21.752  0.00  0.00    +0.000 OA
BRANCH  13  16
ATOM     16  C   UNL     1       1.491   8.147  20.249  0.00  0.00    +0.000 A 
ATOM     17  C   UNL     1       1.869   6.821  20.458  0.00  0.00    +0.000 A 
ATOM     18  C   UNL     1       2.666   6.171  19.516  0.00  0.00    +0.000 A 
ATOM     19  C   UNL     1       3.057   6.830  18.343  0.00  0.00    +0.000 A 
ATOM     20  C   UNL     1       2.597   8.129  18.091  0.00  0.00    +0.000 A 
ATOM     21  C   UNL     1       1.825   8.794  19.050  0.00  0.00    +0.000 A 
BRANCH  19  22
ATOM     22  C   UNL     1       3.916   6.084  17.383  0.00  0.00    +0.000 C 
ATOM     23  O   UNL     1       4.719   6.636  16.649  0.00  0.00    +0.000 OA
BRANCH  22  24
ATOM     24  O   UNL     1       3.685   4.756  17.353  0.00  0.00    +0.000 OA
ATOM     25  H   UNL     1       2.778   4.481  17.579  0.00  0.00    +0.000 HD
ENDBRANCH  22  24
ENDBRANCH  19  22
ENDBRANCH  13  16
ENDBRANCH   4  13
BRANCH   4  26
ATOM     26  C   UNL     1      -0.251  10.271  19.184  0.00  0.00    +0.000 C 
BRANCH  26  27
ATOM     27  C   UNL     1      -1.604  10.479  18.523  0.00  0.00    +0.000 A 
ATOM     28  C   UNL     1      -1.897  10.053  17.229  0.00  0.00    +0.000 A 
ATOM     29  C   UNL     1      -3.070  10.474  16.592  0.00  0.00    +0.000 A 
ATOM     30  C   UNL     1      -3.997  11.302  17.246  0.00  0.00    +0.000 A 
ATOM     31  C   UNL     1      -5.107  11.841  16.572  0.00  0.00    +0.000 A 
ATOM     32  C   UNL     1      -6.038  12.639  17.243  0.00  0.00    +0.000 A 
ATOM     33  C   UNL     1      -5.887  12.880  18.601  0.00  0.00    +0.000 A 
ATOM     34  C   UNL     1      -4.769  12.379  19.281  0.00  0.00    +0.000 A 
ATOM     35  C   UNL     1      -3.792  11.625  18.603  0.00  0.00    +0.000 A 
ATOM     36  C   UNL     1      -2.596  11.205  19.224  0.00  0.00    +0.000 A 
ENDBRANCH  26  27
ENDBRANCH   4  26
TORSDOF 6
ENDMDL
MODEL 5
REMARK VINA RESULT:      -7.8      1.172      5.356
REMARK  Name = 
REMARK  7 active torsions:
REMARK  status: ('A' for Active; 'I' for Inactive)
REMARK    1  A    between atoms: C_1  and  C_2
REMARK    2  A    between atoms: N_4  and  C_5
REMARK    3  A    between atoms: N_4  and  S_16
REMARK    4  A    between atoms: C_5  and  C_6
REMARK    5  A    between atoms: S_16  and  C_19
REMARK    6  A    between atoms: C_22  and  C_23
REMARK    7  A    between atoms: C_23  and  O_25
REMARK                            x       y       z     vdW  Elec       q    Type
REMARK                         _______ _______ _______ _____ _____    ______ ____
ROOT
ATOM      1  C   UNL     1      -0.340  12.898  21.762  0.00  0.00    +0.000 C 
ATOM      2  C   UNL     1       0.509  12.962  20.521  0.00  0.00    +0.000 A 
ATOM      3  C   UNL     1       0.856  11.827  19.781  0.00  0.00    +0.000 A 
ATOM      4  N   UNL     1       0.130  10.595  19.877  0.00  0.00    +0.000 N 
ATOM      5  N   UNL     1       1.819  11.824  18.836  0.00  0.00    +0.000 NA
ATOM      6  C   UNL     1       2.392  13.011  18.536  0.00  0.00    +0.000 A 
ATOM      7  C   UNL     1       1.994  14.236  19.064  0.00  0.00    +0.000 A 
ATOM      8  C   UNL     1       2.519  15.456  18.593  0.00  0.00    +0.000 A 
ATOM      9  C   UNL     1       2.012  16.671  19.050  0.00  0.00    +0.000 A 
ATOM     10  C   UNL     1       1.013  16.676  20.016  0.00  0.00    +0.000 A 
ATOM     11  C   UNL     1       0.547  15.470  20.546  0.00  0.00    +0.000 A 
ATOM     12  C   UNL     1       1.011  14.218  20.074  0.00  0.00    +0.000 A 
ENDROOT
BRANCH   4  13
ATOM     13  S   UNL     1       0.708   9.481  21.031  0.00  0.00    +0.000 S 
ATOM     14  O   UNL     1       1.729  10.100  21.856  0.00  0.00    +0.000 OA
ATOM     15  O   UNL     1      -0.453   8.872  21.660  0.00  0.00    +0.000 OA
BRANCH  13  16
ATOM     16  C   UNL     1       1.525   8.178  20.121  0.00  0.00    +0.000 A 
ATOM     17  C   UNL     1       1.571   6.889  20.652  0.00  0.00    +0.000 A 
ATOM     18  C   UNL     1       2.207   5.870  19.943  0.00  0.00    +0.000 A 
ATOM     19  C   UNL     1       2.765   6.124  18.684  0.00  0.00    +0.000 A 
ATOM     20  C   UNL     1       2.633   7.396  18.111  0.00  0.00    +0.000 A 
ATOM     21  C   UNL     1       2.026   8.428  18.835  0.00  0.00    +0.000 A 
BRANCH  19  22
ATOM     22  C   UNL     1       3.438   4.996  17.984  0.00  0.00    +0.000 C 
ATOM     23  O   UNL     1       4.256   5.165  17.095  0.00  0.00    +0.000 OA
BRANCH  22  24
ATOM     24  O   UNL     1       3.019   3.776  18.375  0.00  0.00    +0.000 OA
ATOM     25  H   UNL     1       3.654   3.264  18.909  0.00  0.00    +0.000 HD
ENDBRANCH  22  24
ENDBRANCH  19  22
ENDBRANCH  13  16
ENDBRANCH   4  13
BRANCH   4  26
ATOM     26  C   UNL     1      -0.298  10.008  18.568  0.00  0.00    +0.000 C 
BRANCH  26  27
ATOM     27  C   UNL     1      -1.711  10.315  18.096  0.00  0.00    +0.000 A 
ATOM     28  C   UNL     1      -2.174  10.006  16.819  0.00  0.00    +0.000 A 
ATOM     29  C   UNL     1      -3.396  10.517  16.365  0.00  0.00    +0.000 A 
ATOM     30  C   UNL     1      -4.200  11.321  17.189  0.00  0.00    +0.000 A 
ATOM     31  C   UNL     1      -5.359  11.950  16.701  0.00  0.00    +0.000 A 
ATOM     32  C   UNL     1      -6.167  12.722  17.539  0.00  0.00    +0.000 A 
ATOM     33  C   UNL     1      -5.844  12.847  18.883  0.00  0.00    +0.000 A 
ATOM     34  C   UNL     1      -4.675  12.254  19.380  0.00  0.00    +0.000 A 
ATOM     35  C   UNL     1      -3.820  11.524  18.531  0.00  0.00    +0.000 A 
ATOM     36  C   UNL     1      -2.578  11.015  18.967  0.00  0.00    +0.000 A 
ENDBRANCH  26  27
ENDBRANCH   4  26
TORSDOF 6
ENDMDL
MODEL 6
REMARK VINA RESULT:      -7.8      1.437      1.805
REMARK  Name = 
REMARK  7 active torsions:
REMARK  status: ('A' for Active; 'I' for Inactive)
REMARK    1  A    between atoms: C_1  and  C_2
REMARK    2  A    between atoms: N_4  and  C_5
REMARK    3  A    between atoms: N_4  and  S_16
REMARK    4  A    between atoms: C_5  and  C_6
REMARK    5  A    between atoms: S_16  and  C_19
REMARK    6  A    between atoms: C_22  and  C_23
REMARK    7  A    between atoms: C_23  and  O_25
REMARK                            x       y       z     vdW  Elec       q    Type
REMARK                         _______ _______ _______ _____ _____    ______ ____
ROOT
ATOM      1  C   UNL     1      -1.402  10.065  18.020  0.00  0.00    +0.000 C 
ATOM      2  C   UNL     1      -2.108  11.056  18.904  0.00  0.00    +0.000 A 
ATOM      3  C   UNL     1      -1.581  11.493  20.124  0.00  0.00    +0.000 A 
ATOM      4  N   UNL     1      -0.190  11.375  20.447  0.00  0.00    +0.000 N 
ATOM      5  N   UNL     1      -2.304  12.164  21.046  0.00  0.00    +0.000 NA
ATOM      6  C   UNL     1      -3.567  12.506  20.709  0.00  0.00    +0.000 A 
ATOM      7  C   UNL     1      -4.134  12.299  19.455  0.00  0.00    +0.000 A 
ATOM      8  C   UNL     1      -5.397  12.822  19.113  0.00  0.00    +0.000 A 
ATOM      9  C   UNL     1      -5.884  12.706  17.812  0.00  0.00    +0.000 A 
ATOM     10  C   UNL     1      -5.138  12.026  16.859  0.00  0.00    +0.000 A 
ATOM     11  C   UNL     1      -3.923  11.434  17.214  0.00  0.00    +0.000 A 
ATOM     12  C   UNL     1      -3.379  11.568  18.515  0.00  0.00    +0.000 A 
ENDROOT
BRANCH   4  13
ATOM     13  S   UNL     1       0.264   9.949  21.264  0.00  0.00    +0.000 S 
ATOM     14  O   UNL     1       1.121  10.269  22.390  0.00  0.00    +0.000 OA
ATOM     15  O   UNL     1      -0.946   9.172  21.479  0.00  0.00    +0.000 OA
BRANCH  13  16
ATOM     16  C   UNL     1       1.268   9.005  20.126  0.00  0.00    +0.000 A 
ATOM     17  C   UNL     1       1.686   7.722  20.476  0.00  0.00    +0.000 A 
ATOM     18  C   UNL     1       2.469   6.982  19.589  0.00  0.00    +0.000 A 
ATOM     19  C   UNL     1       2.804   7.506  18.333  0.00  0.00    +0.000 A 
ATOM     20  C   UNL     1       2.302   8.755  17.947  0.00  0.00    +0.000 A 
ATOM     21  C   UNL     1       1.545   9.513  18.848  0.00  0.00    +0.000 A 
BRANCH  19  22
ATOM     22  C   UNL     1       3.650   6.670  17.438  0.00  0.00    +0.000 C 
ATOM     23  O   UNL     1       4.478   7.146  16.679  0.00  0.00    +0.000 OA
BRANCH  22  24
ATOM     24  O   UNL     1       3.378   5.351  17.495  0.00  0.00    +0.000 OA
ATOM     25  H   UNL     1       3.041   4.954  16.671  0.00  0.00    +0.000 HD
ENDBRANCH  22  24
ENDBRANCH  19  22
ENDBRANCH  13  16
ENDBRANCH   4  13
BRANCH   4  26
ATOM     26  C   UNL     1       0.456  12.635  20.934  0.00  0.00    +0.000 C 
BRANCH  26  27
ATOM     27  C   UNL     1       1.488  13.284  20.026  0.00  0.00    +0.000 A 
ATOM     28  C   UNL     1       1.509  13.109  18.644  0.00  0.00    +0.000 A 
ATOM     29  C   UNL     1       2.608  13.537  17.891  0.00  0.00    +0.000 A 
ATOM     30  C   UNL     1       3.699  14.181  18.497  0.00  0.00    +0.000 A 
ATOM     31  C   UNL     1       4.866  14.491  17.775  0.00  0.00    +0.000 A 
ATOM     32  C   UNL     1       5.931  15.159  18.383  0.00  0.00    +0.000 A 
ATOM     33  C   UNL     1       5.830  15.556  19.709  0.00  0.00    +0.000 A 
ATOM     34  C   UNL     1       4.689  15.226  20.453  0.00  0.00    +0.000 A 
ATOM     35  C   UNL     1       3.633  14.498  19.869  0.00  0.00    +0.000 A 
ATOM     36  C   UNL     1       2.524  14.046  20.615  0.00  0.00    +0.000 A 
ENDBRANCH  26  27
ENDBRANCH   4  26
TORSDOF 6
ENDMDL
MODEL 7
REMARK VINA RESULT:      -7.6      3.147      6.831
REMARK  Name = 
REMARK  7 active torsions:
REMARK  status: ('A' for Active; 'I' for Inactive)
REMARK    1  A    between atoms: C_1  and  C_2
REMARK    2  A    between atoms: N_4  and  C_5
REMARK    3  A    between atoms: N_4  and  S_16
REMARK    4  A    between atoms: C_5  and  C_6
REMARK    5  A    between atoms: S_16  and  C_19
REMARK    6  A    between atoms: C_22  and  C_23
REMARK    7  A    between atoms: C_23  and  O_25
REMARK                            x       y       z     vdW  Elec       q    Type
REMARK                         _______ _______ _______ _____ _____    ______ ____
ROOT
ATOM      1  C   UNL     1       0.437   9.077  21.317  0.00  0.00    +0.000 C 
ATOM      2  C   UNL     1       1.144   8.912  19.999  0.00  0.00    +0.000 A 
ATOM      3  C   UNL     1       1.192   9.923  19.033  0.00  0.00    +0.000 A 
ATOM      4  N   UNL     1       0.950  11.300  19.348  0.00  0.00    +0.000 N 
ATOM      5  N   UNL     1       1.582   9.712  17.759  0.00  0.00    +0.000 NA
ATOM      6  C   UNL     1       2.038   8.478  17.450  0.00  0.00    +0.000 A 
ATOM      7  C   UNL     1       2.221   7.450  18.370  0.00  0.00    +0.000 A 
ATOM      8  C   UNL     1       2.852   6.240  18.020  0.00  0.00    +0.000 A 
ATOM      9  C   UNL     1       3.134   5.280  18.990  0.00  0.00    +0.000 A 
ATOM     10  C   UNL     1       2.744   5.499  20.304  0.00  0.00    +0.000 A 
ATOM     11  C   UNL     1       2.044   6.661  20.641  0.00  0.00    +0.000 A 
ATOM     12  C   UNL     1       1.778   7.675  19.689  0.00  0.00    +0.000 A 
ENDROOT
BRANCH   4  13
ATOM     13  S   UNL     1      -0.662  11.827  19.185  0.00  0.00    +0.000 S 
ATOM     14  O   UNL     1      -0.792  12.691  18.027  0.00  0.00    +0.000 OA
ATOM     15  O   UNL     1      -1.513  10.654  19.305  0.00  0.00    +0.000 OA
BRANCH  13  16
ATOM     16  C   UNL     1      -1.014  12.847  20.610  0.00  0.00    +0.000 A 
ATOM     17  C   UNL     1      -0.760  12.357  21.890  0.00  0.00    +0.000 A 
ATOM     18  C   UNL     1      -1.033  13.151  23.003  0.00  0.00    +0.000 A 
ATOM     19  C   UNL     1      -1.523  14.454  22.841  0.00  0.00    +0.000 A 
ATOM     20  C   UNL     1      -1.686  14.978  21.553  0.00  0.00    +0.000 A 
ATOM     21  C   UNL     1      -1.446  14.171  20.435  0.00  0.00    +0.000 A 
BRANCH  19  22
ATOM     22  C   UNL     1      -1.802  15.246  24.070  0.00  0.00    +0.000 C 
ATOM     23  O   UNL     1      -2.835  15.876  24.229  0.00  0.00    +0.000 OA
BRANCH  22  24
ATOM     24  O   UNL     1      -0.792  15.256  24.962  0.00  0.00    +0.000 OA
ATOM     25  H   UNL     1      -0.934  14.724  25.766  0.00  0.00    +0.000 HD
ENDBRANCH  22  24
ENDBRANCH  19  22
ENDBRANCH  13  16
ENDBRANCH   4  13
BRANCH   4  26
ATOM     26  C   UNL     1       1.996  12.255  18.862  0.00  0.00    +0.000 C 
BRANCH  26  27
ATOM     27  C   UNL     1       2.105  13.592  19.575  0.00  0.00    +0.000 A 
ATOM     28  C   UNL     1       2.463  13.717  20.917  0.00  0.00    +0.000 A 
ATOM     29  C   UNL     1       2.322  14.942  21.577  0.00  0.00    +0.000 A 
ATOM     30  C   UNL     1       1.852  16.082  20.906  0.00  0.00    +0.000 A 
ATOM     31  C   UNL     1       1.576  17.280  21.589  0.00  0.00    +0.000 A 
ATOM     32  C   UNL     1       1.137  18.415  20.904  0.00  0.00    +0.000 A 
ATOM     33  C   UNL     1       1.002  18.377  19.524  0.00  0.00    +0.000 A 
ATOM     34  C   UNL     1       1.240  17.183  18.829  0.00  0.00    +0.000 A 
ATOM     35  C   UNL     1       1.623  16.014  19.516  0.00  0.00    +0.000 A 
ATOM     36  C   UNL     1       1.756  14.767  18.869  0.00  0.00    +0.000 A 
ENDBRANCH  26  27
ENDBRANCH   4  26
TORSDOF 6
ENDMDL
MODEL 8
REMARK VINA RESULT:      -7.6      2.959      6.868
REMARK  Name = 
REMARK  7 active torsions:
REMARK  status: ('A' for Active; 'I' for Inactive)
REMARK    1  A    between atoms: C_1  and  C_2
REMARK    2  A    between atoms: N_4  and  C_5
REMARK    3  A    between atoms: N_4  and  S_16
REMARK    4  A    between atoms: C_5  and  C_6
REMARK    5  A    between atoms: S_16  and  C_19
REMARK    6  A    between atoms: C_22  and  C_23
REMARK    7  A    between atoms: C_23  and  O_25
REMARK                            x       y       z     vdW  Elec       q    Type
REMARK                         _______ _______ _______ _____ _____    ______ ____
ROOT
ATOM      1  C   UNL     1       0.773   8.555  21.200  0.00  0.00    +0.000 C 
ATOM      2  C   UNL     1       1.460   8.465  19.864  0.00  0.00    +0.000 A 
ATOM      3  C   UNL     1       1.407   9.490  18.914  0.00  0.00    +0.000 A 
ATOM      4  N   UNL     1       1.067  10.840  19.257  0.00  0.00    +0.000 N 
ATOM      5  N   UNL     1       1.783   9.329  17.628  0.00  0.00    +0.000 NA
ATOM      6  C   UNL     1       2.326   8.139  17.289  0.00  0.00    +0.000 A 
ATOM      7  C   UNL     1       2.609   7.115  18.188  0.00  0.00    +0.000 A 
ATOM      8  C   UNL     1       3.324   5.963  17.804  0.00  0.00    +0.000 A 
ATOM      9  C   UNL     1       3.702   5.014  18.752  0.00  0.00    +0.000 A 
ATOM     10  C   UNL     1       3.326   5.182  20.078  0.00  0.00    +0.000 A 
ATOM     11  C   UNL     1       2.546   6.281  20.449  0.00  0.00    +0.000 A 
ATOM     12  C   UNL     1       2.181   7.286  19.520  0.00  0.00    +0.000 A 
ENDROOT
BRANCH   4  13
ATOM     13  S   UNL     1      -0.585  11.242  19.139  0.00  0.00    +0.000 S 
ATOM     14  O   UNL     1      -0.810  12.097  17.989  0.00  0.00    +0.000 OA
ATOM     15  O   UNL     1      -1.340  10.006  19.274  0.00  0.00    +0.000 OA
BRANCH  13  16
ATOM     16  C   UNL     1      -0.977  12.227  20.577  0.00  0.00    +0.000 A 
ATOM     17  C   UNL     1      -1.531  13.496  20.414  0.00  0.00    +0.000 A 
ATOM     18  C   UNL     1      -1.840  14.267  21.535  0.00  0.00    +0.000 A 
ATOM     19  C   UNL     1      -1.633  13.757  22.824  0.00  0.00    +0.000 A 
ATOM     20  C   UNL     1      -1.166  12.446  22.985  0.00  0.00    +0.000 A 
ATOM     21  C   UNL     1      -0.825  11.684  21.862  0.00  0.00    +0.000 A 
BRANCH  19  22
ATOM     22  C   UNL     1      -1.973  14.634  23.978  0.00  0.00    +0.000 C 
ATOM     23  O   UNL     1      -3.079  15.128  24.127  0.00  0.00    +0.000 OA
BRANCH  22  24
ATOM     24  O   UNL     1      -0.940  14.881  24.807  0.00  0.00    +0.000 OA
ATOM     25  H   UNL     1      -0.105  14.431  24.585  0.00  0.00    +0.000 HD
ENDBRANCH  22  24
ENDBRANCH  19  22
ENDBRANCH  13  16
ENDBRANCH   4  13
BRANCH   4  26
ATOM     26  C   UNL     1       2.024  11.880  18.763  0.00  0.00    +0.000 C 
BRANCH  26  27
ATOM     27  C   UNL     1       2.016  13.226  19.469  0.00  0.00    +0.000 A 
ATOM     28  C   UNL     1       2.306  13.381  20.824  0.00  0.00    +0.000 A 
ATOM     29  C   UNL     1       2.057  14.599  21.467  0.00  0.00    +0.000 A 
ATOM     30  C   UNL     1       1.545  15.702  20.765  0.00  0.00    +0.000 A 
ATOM     31  C   UNL     1       1.163  16.884  21.426  0.00  0.00    +0.000 A 
ATOM     32  C   UNL     1       0.683  17.984  20.712  0.00  0.00    +0.000 A 
ATOM     33  C   UNL     1       0.611  17.929  19.327  0.00  0.00    +0.000 A 
ATOM     34  C   UNL     1       0.956  16.749  18.654  0.00  0.00    +0.000 A 
ATOM     35  C   UNL     1       1.382  15.611  19.368  0.00  0.00    +0.000 A 
ATOM     36  C   UNL     1       1.623  14.372  18.738  0.00  0.00    +0.000 A 
ENDBRANCH  26  27
ENDBRANCH   4  26
TORSDOF 6
ENDMDL
MODEL 9
REMARK VINA RESULT:      -7.6      3.691      8.121
REMARK  Name = 
REMARK  7 active torsions:
REMARK  status: ('A' for Active; 'I' for Inactive)
REMARK    1  A    between atoms: C_1  and  C_2
REMARK    2  A    between atoms: N_4  and  C_5
REMARK    3  A    between atoms: N_4  and  S_16
REMARK    4  A    between atoms: C_5  and  C_6
REMARK    5  A    between atoms: S_16  and  C_19
REMARK    6  A    between atoms: C_22  and  C_23
REMARK    7  A    between atoms: C_23  and  O_25
REMARK                            x       y       z     vdW  Elec       q    Type
REMARK                         _______ _______ _______ _____ _____    ______ ____
ROOT
ATOM      1  C   UNL     1      -0.278  15.815  19.405  0.00  0.00    +0.000 C 
ATOM      2  C   UNL     1       0.939  15.041  19.833  0.00  0.00    +0.000 A 
ATOM      3  C   UNL     1       0.882  13.987  20.751  0.00  0.00    +0.000 A 
ATOM      4  N   UNL     1      -0.334  13.289  21.046  0.00  0.00    +0.000 N 
ATOM      5  N   UNL     1       1.974  13.461  21.344  0.00  0.00    +0.000 NA
ATOM      6  C   UNL     1       3.178  13.925  20.941  0.00  0.00    +0.000 A 
ATOM      7  C   UNL     1       3.368  14.829  19.900  0.00  0.00    +0.000 A 
ATOM      8  C   UNL     1       4.653  15.151  19.418  0.00  0.00    +0.000 A 
ATOM      9  C   UNL     1       4.807  15.961  18.294  0.00  0.00    +0.000 A 
ATOM     10  C   UNL     1       3.684  16.494  17.675  0.00  0.00    +0.000 A 
ATOM     11  C   UNL     1       2.412  16.245  18.199  0.00  0.00    +0.000 A 
ATOM     12  C   UNL     1       2.217  15.393  19.313  0.00  0.00    +0.000 A 
ENDROOT
BRANCH   4  13
ATOM     13  S   UNL     1      -1.240  13.898  22.356  0.00  0.00    +0.000 S 
ATOM     14  O   UNL     1      -1.136  13.003  23.494  0.00  0.00    +0.000 OA
ATOM     15  O   UNL     1      -0.887  15.300  22.509  0.00  0.00    +0.000 OA
BRANCH  13  16
ATOM     16  C   UNL     1      -2.954  13.866  21.852  0.00  0.00    +0.000 A 
ATOM     17  C   UNL     1      -3.785  12.838  22.296  0.00  0.00    +0.000 A 
ATOM     18  C   UNL     1      -5.124  12.812  21.905  0.00  0.00    +0.000 A 
ATOM     19  C   UNL     1      -5.648  13.833  21.102  0.00  0.00    +0.000 A 
ATOM     20  C   UNL     1      -4.835  14.914  20.737  0.00  0.00    +0.000 A 
ATOM     21  C   UNL     1      -3.484  14.925  21.100  0.00  0.00    +0.000 A 
BRANCH  19  22
ATOM     22  C   UNL     1      -7.082  13.741  20.712  0.00  0.00    +0.000 C 
ATOM     23  O   UNL     1      -7.558  14.386  19.793  0.00  0.00    +0.000 OA
BRANCH  22  24
ATOM     24  O   UNL     1      -7.817  12.931  21.500  0.00  0.00    +0.000 OA
ATOM     25  H   UNL     1      -8.771  12.908  21.307  0.00  0.00    +0.000 HD
ENDBRANCH  22  24
ENDBRANCH  19  22
ENDBRANCH  13  16
ENDBRANCH   4  13
BRANCH   4  26
ATOM     26  C   UNL     1      -0.246  11.797  20.956  0.00  0.00    +0.000 C 
BRANCH  26  27
ATOM     27  C   UNL     1      -0.873  11.135  19.740  0.00  0.00    +0.000 A 
ATOM     28  C   UNL     1      -0.207  10.199  18.950  0.00  0.00    +0.000 A 
ATOM     29  C   UNL     1      -0.742   9.800  17.720  0.00  0.00    +0.000 A 
ATOM     30  C   UNL     1      -1.972  10.300  17.265  0.00  0.00    +0.000 A 
ATOM     31  C   UNL     1      -2.452  10.013  15.974  0.00  0.00    +0.000 A 
ATOM     32  C   UNL     1      -3.692  10.493  15.544  0.00  0.00    +0.000 A 
ATOM     33  C   UNL     1      -4.481  11.236  16.411  0.00  0.00    +0.000 A 
ATOM     34  C   UNL     1      -4.005  11.559  17.689  0.00  0.00    +0.000 A 
ATOM     35  C   UNL     1      -2.730  11.134  18.111  0.00  0.00    +0.000 A 
ATOM     36  C   UNL     1      -2.169  11.538  19.342  0.00  0.00    +0.000 A 
ENDBRANCH  26  27
ENDBRANCH   4  26
TORSDOF 6
ENDMDL
