MODEL 1
REMARK VINA RESULT:      -8.5      0.000      0.000
REMARK  Name = 
REMARK  4 active torsions:
REMARK  status: ('A' for Active; 'I' for Inactive)
REMARK    1  A    between atoms: C_1  and  O_2
REMARK    2  A    between atoms: O_2  and  C_3
REMARK    3  A    between atoms: C_12  and  C_13
REMARK    4  A    between atoms: C_19  and  C_20
REMARK                            x       y       z     vdW  Elec       q    Type
REMARK                         _______ _______ _______ _____ _____    ______ ____
ROOT
ATOM      1  C   UNL     1       6.871   4.943  16.888  0.00  0.00    +0.000 C 
ATOM      2  O   UNL     1       7.900   5.378  16.369  0.00  0.00    +0.000 OA
ATOM      3  N   UNL     1       5.633   5.094  16.345  0.00  0.00    +0.000 N 
ATOM      4  C   UNL     1       5.161   6.015  15.319  0.00  0.00    +0.000 C 
ATOM      5  C   UNL     1       4.745   6.972  16.470  0.00  0.00    +0.000 C 
ATOM      6  C   UNL     1       4.212   7.257  17.929  0.00  0.00    +0.000 C 
ATOM      7  C   UNL     1       2.800   7.927  18.172  0.00  0.00    +0.000 C 
ATOM      8  C   UNL     1       1.967   6.945  17.386  0.00  0.00    +0.000 C 
ATOM      9  C   UNL     1       2.470   5.749  18.243  0.00  0.00    +0.000 C 
ATOM     10  C   UNL     1       2.112   6.193  19.615  0.00  0.00    +0.000 C 
ATOM     11  C   UNL     1       2.164   7.547  19.543  0.00  0.00    +0.000 C 
ATOM     12  C   UNL     1       4.000   5.809  18.269  0.00  0.00    +0.000 C 
ATOM     13  C   UNL     1       4.385   5.329  16.955  0.00  0.00    +0.000 C 
ENDROOT
BRANCH  10  14
ATOM     14  C   UNL     1       1.694   5.047  20.433  0.00  0.00    +0.000 A 
ATOM     15  C   UNL     1       2.527   4.619  21.481  0.00  0.00    +0.000 A 
ATOM     16  C   UNL     1       2.405   3.325  22.004  0.00  0.00    +0.000 A 
ATOM     17  C   UNL     1       1.447   2.453  21.491  0.00  0.00    +0.000 A 
ATOM     18  C   UNL     1       0.638   2.857  20.433  0.00  0.00    +0.000 A 
ATOM     19  C   UNL     1       0.768   4.142  19.903  0.00  0.00    +0.000 A 
ENDBRANCH  10  14
BRANCH  11  20
ATOM     20  C   UNL     1       1.339   8.467  20.339  0.00  0.00    +0.000 A 
ATOM     21  C   UNL     1       1.135   8.358  21.716  0.00  0.00    +0.000 A 
ATOM     22  C   UNL     1       0.276   9.253  22.375  0.00  0.00    +0.000 A 
ATOM     23  C   UNL     1      -0.353  10.284  21.670  0.00  0.00    +0.000 A 
ATOM     24  C   UNL     1      -0.043  10.487  20.336  0.00  0.00    +0.000 A 
ATOM     25  C   UNL     1       0.816   9.603  19.695  0.00  0.00    +0.000 A 
ENDBRANCH  11  20
BRANCH   1  27
ATOM     26  C   UNL     1       7.361   5.048  19.173  0.00  0.00    +0.000 C 
ATOM     27  O   UNL     1       6.828   4.295  18.082  0.00  0.00    +0.000 OA
ENDBRANCH   1  27
TORSDOF 3
ENDMDL
MODEL 2
REMARK VINA RESULT:      -7.2      5.719      9.162
REMARK  Name = 
REMARK  4 active torsions:
REMARK  status: ('A' for Active; 'I' for Inactive)
REMARK    1  A    between atoms: C_1  and  O_2
REMARK    2  A    between atoms: O_2  and  C_3
REMARK    3  A    between atoms: C_12  and  C_13
REMARK    4  A    between atoms: C_19  and  C_20
REMARK                            x       y       z     vdW  Elec       q    Type
REMARK                         _______ _______ _______ _____ _____    ______ ____
ROOT
ATOM      1  C   UNL     1      -0.299  16.629  20.035  0.00  0.00    +0.000 C 
ATOM      2  O   UNL     1       0.432  17.593  20.265  0.00  0.00    +0.000 OA
ATOM      3  N   UNL     1      -0.656  15.713  20.975  0.00  0.00    +0.000 N 
ATOM      4  C   UNL     1      -0.062  15.416  22.273  0.00  0.00    +0.000 C 
ATOM      5  C   UNL     1       0.775  14.320  21.558  0.00  0.00    +0.000 C 
ATOM      6  C   UNL     1       0.974  13.207  20.455  0.00  0.00    +0.000 C 
ATOM      7  C   UNL     1       1.104  11.679  20.843  0.00  0.00    +0.000 C 
ATOM      8  C   UNL     1      -0.177  11.554  21.629  0.00  0.00    +0.000 C 
ATOM      9  C   UNL     1      -1.030  12.027  20.418  0.00  0.00    +0.000 C 
ATOM     10  C   UNL     1      -0.628  11.052  19.371  0.00  0.00    +0.000 C 
ATOM     11  C   UNL     1       0.641  10.713  19.712  0.00  0.00    +0.000 C 
ATOM     12  C   UNL     1      -0.417  13.332  19.901  0.00  0.00    +0.000 C 
ATOM     13  C   UNL     1      -0.837  14.319  20.878  0.00  0.00    +0.000 C 
ENDROOT
BRANCH  10  14
ATOM     14  C   UNL     1      -1.771  10.722  18.511  0.00  0.00    +0.000 A 
ATOM     15  C   UNL     1      -1.545  10.004  17.323  0.00  0.00    +0.000 A 
ATOM     16  C   UNL     1      -2.486  10.027  16.286  0.00  0.00    +0.000 A 
ATOM     17  C   UNL     1      -3.663  10.760  16.429  0.00  0.00    +0.000 A 
ATOM     18  C   UNL     1      -3.883  11.498  17.589  0.00  0.00    +0.000 A 
ATOM     19  C   UNL     1      -2.939  11.485  18.616  0.00  0.00    +0.000 A 
ENDBRANCH  10  14
BRANCH  11  20
ATOM     20  C   UNL     1       1.265   9.407  19.451  0.00  0.00    +0.000 A 
ATOM     21  C   UNL     1       1.322   8.360  20.373  0.00  0.00    +0.000 A 
ATOM     22  C   UNL     1       1.997   7.171  20.048  0.00  0.00    +0.000 A 
ATOM     23  C   UNL     1       2.585   7.009  18.790  0.00  0.00    +0.000 A 
ATOM     24  C   UNL     1       2.408   7.983  17.822  0.00  0.00    +0.000 A 
ATOM     25  C   UNL     1       1.729   9.150  18.148  0.00  0.00    +0.000 A 
ENDBRANCH  11  20
BRANCH   1  27
ATOM     26  C   UNL     1      -0.646  17.364  17.841  0.00  0.00    +0.000 C 
ATOM     27  O   UNL     1      -0.812  16.329  18.812  0.00  0.00    +0.000 OA
ENDBRANCH   1  27
TORSDOF 3
ENDMDL
MODEL 3
REMARK VINA RESULT:      -6.8      3.654      7.384
REMARK  Name = 
REMARK  4 active torsions:
REMARK  status: ('A' for Active; 'I' for Inactive)
REMARK    1  A    between atoms: C_1  and  O_2
REMARK    2  A    between atoms: O_2  and  C_3
REMARK    3  A    between atoms: C_12  and  C_13
REMARK    4  A    between atoms: C_19  and  C_20
REMARK                            x       y       z     vdW  Elec       q    Type
REMARK                         _______ _______ _______ _____ _____    ______ ____
ROOT
ATOM      1  C   UNL     1       2.743   2.709  20.945  0.00  0.00    +0.000 C 
ATOM      2  O   UNL     1       1.959   1.805  21.241  0.00  0.00    +0.000 OA
ATOM      3  N   UNL     1       2.399   3.784  20.188  0.00  0.00    +0.000 N 
ATOM      4  C   UNL     1       1.261   3.985  19.300  0.00  0.00    +0.000 C 
ATOM      5  C   UNL     1       2.171   3.492  18.141  0.00  0.00    +0.000 C 
ATOM      6  C   UNL     1       3.570   3.352  17.423  0.00  0.00    +0.000 C 
ATOM      7  C   UNL     1       3.864   4.072  16.046  0.00  0.00    +0.000 C 
ATOM      8  C   UNL     1       3.520   5.479  16.470  0.00  0.00    +0.000 C 
ATOM      9  C   UNL     1       4.565   5.445  17.621  0.00  0.00    +0.000 C 
ATOM     10  C   UNL     1       5.810   5.106  16.885  0.00  0.00    +0.000 C 
ATOM     11  C   UNL     1       5.374   4.385  15.822  0.00  0.00    +0.000 C 
ATOM     12  C   UNL     1       4.313   4.174  18.438  0.00  0.00    +0.000 C 
ATOM     13  C   UNL     1       3.128   4.492  19.212  0.00  0.00    +0.000 C 
ENDROOT
BRANCH  10  14
ATOM     14  C   UNL     1       6.961   5.799  17.477  0.00  0.00    +0.000 A 
ATOM     15  C   UNL     1       7.509   5.309  18.675  0.00  0.00    +0.000 A 
ATOM     16  C   UNL     1       8.298   6.133  19.487  0.00  0.00    +0.000 A 
ATOM     17  C   UNL     1       8.553   7.449  19.107  0.00  0.00    +0.000 A 
ATOM     18  C   UNL     1       7.991   7.953  17.938  0.00  0.00    +0.000 A 
ATOM     19  C   UNL     1       7.194   7.136  17.135  0.00  0.00    +0.000 A 
ENDBRANCH  10  14
BRANCH  11  20
ATOM     20  C   UNL     1       6.026   4.343  14.504  0.00  0.00    +0.000 A 
ATOM     21  C   UNL     1       7.198   5.029  14.179  0.00  0.00    +0.000 A 
ATOM     22  C   UNL     1       7.708   4.974  12.872  0.00  0.00    +0.000 A 
ATOM     23  C   UNL     1       7.072   4.205  11.893  0.00  0.00    +0.000 A 
ATOM     24  C   UNL     1       5.994   3.408  12.243  0.00  0.00    +0.000 A 
ATOM     25  C   UNL     1       5.504   3.460  13.542  0.00  0.00    +0.000 A 
ENDBRANCH  11  20
BRANCH   1  27
ATOM     26  C   UNL     1       4.813   1.628  20.802  0.00  0.00    +0.000 C 
ATOM     27  O   UNL     1       4.055   2.733  21.298  0.00  0.00    +0.000 OA
ENDBRANCH   1  27
TORSDOF 3
ENDMDL
MODEL 4
REMARK VINA RESULT:      -6.7      5.825      9.207
REMARK  Name = 
REMARK  4 active torsions:
REMARK  status: ('A' for Active; 'I' for Inactive)
REMARK    1  A    between atoms: C_1  and  O_2
REMARK    2  A    between atoms: O_2  and  C_3
REMARK    3  A    between atoms: C_12  and  C_13
REMARK    4  A    between atoms: C_19  and  C_20
REMARK                            x       y       z     vdW  Elec       q    Type
REMARK                         _______ _______ _______ _____ _____    ______ ____
ROOT
ATOM      1  C   UNL     1       0.257  17.081  19.641  0.00  0.00    +0.000 C 
ATOM      2  O   UNL     1       1.051  17.994  19.877  0.00  0.00    +0.000 OA
ATOM      3  N   UNL     1      -0.218  16.234  20.593  0.00  0.00    +0.000 N 
ATOM      4  C   UNL     1       0.283  15.943  21.930  0.00  0.00    +0.000 C 
ATOM      5  C   UNL     1       1.066  14.757  21.300  0.00  0.00    +0.000 C 
ATOM      6  C   UNL     1       1.231  13.590  20.250  0.00  0.00    +0.000 C 
ATOM      7  C   UNL     1       1.219  12.073  20.698  0.00  0.00    +0.000 C 
ATOM      8  C   UNL     1      -0.107  12.079  21.417  0.00  0.00    +0.000 C 
ATOM      9  C   UNL     1      -0.857  12.569  20.147  0.00  0.00    +0.000 C 
ATOM     10  C   UNL     1      -0.481  11.525  19.158  0.00  0.00    +0.000 C 
ATOM     11  C   UNL     1       0.737  11.103  19.578  0.00  0.00    +0.000 C 
ATOM     12  C   UNL     1      -0.116  13.801  19.618  0.00  0.00    +0.000 C 
ATOM     13  C   UNL     1      -0.505  14.856  20.535  0.00  0.00    +0.000 C 
ENDROOT
BRANCH  10  14
ATOM     14  C   UNL     1      -1.602  11.251  18.250  0.00  0.00    +0.000 A 
ATOM     15  C   UNL     1      -2.900  11.634  18.634  0.00  0.00    +0.000 A 
ATOM     16  C   UNL     1      -4.021  11.045  18.038  0.00  0.00    +0.000 A 
ATOM     17  C   UNL     1      -3.858  10.076  17.050  0.00  0.00    +0.000 A 
ATOM     18  C   UNL     1      -2.579   9.669  16.683  0.00  0.00    +0.000 A 
ATOM     19  C   UNL     1      -1.460  10.246  17.286  0.00  0.00    +0.000 A 
ENDBRANCH  10  14
BRANCH  11  20
ATOM     20  C   UNL     1       1.268   9.743  19.397  0.00  0.00    +0.000 A 
ATOM     21  C   UNL     1       1.262   8.754  20.383  0.00  0.00    +0.000 A 
ATOM     22  C   UNL     1       1.850   7.503  20.131  0.00  0.00    +0.000 A 
ATOM     23  C   UNL     1       2.414   7.222  18.883  0.00  0.00    +0.000 A 
ATOM     24  C   UNL     1       2.295   8.143  17.856  0.00  0.00    +0.000 A 
ATOM     25  C   UNL     1       1.701   9.373  18.111  0.00  0.00    +0.000 A 
ENDBRANCH  11  20
BRANCH   1  27
ATOM     26  C   UNL     1      -0.843  17.868  17.732  0.00  0.00    +0.000 C 
ATOM     27  O   UNL     1      -0.215  16.775  18.404  0.00  0.00    +0.000 OA
ENDBRANCH   1  27
TORSDOF 3
ENDMDL
MODEL 5
REMARK VINA RESULT:      -6.7      3.576      6.421
REMARK  Name = 
REMARK  4 active torsions:
REMARK  status: ('A' for Active; 'I' for Inactive)
REMARK    1  A    between atoms: C_1  and  O_2
REMARK    2  A    between atoms: O_2  and  C_3
REMARK    3  A    between atoms: C_12  and  C_13
REMARK    4  A    between atoms: C_19  and  C_20
REMARK                            x       y       z     vdW  Elec       q    Type
REMARK                         _______ _______ _______ _____ _____    ______ ____
ROOT
ATOM      1  C   UNL     1      -0.997  10.602  18.240  0.00  0.00    +0.000 C 
ATOM      2  O   UNL     1      -1.251  11.676  17.691  0.00  0.00    +0.000 OA
ATOM      3  N   UNL     1       0.073  10.409  19.055  0.00  0.00    +0.000 N 
ATOM      4  C   UNL     1       1.293  11.193  19.210  0.00  0.00    +0.000 C 
ATOM      5  C   UNL     1       1.948  10.246  18.167  0.00  0.00    +0.000 C 
ATOM      6  C   UNL     1       2.135   8.837  17.478  0.00  0.00    +0.000 C 
ATOM      7  C   UNL     1       3.487   8.027  17.617  0.00  0.00    +0.000 C 
ATOM      8  C   UNL     1       3.557   7.997  19.123  0.00  0.00    +0.000 C 
ATOM      9  C   UNL     1       2.168   7.307  19.230  0.00  0.00    +0.000 C 
ATOM     10  C   UNL     1       2.370   6.098  18.389  0.00  0.00    +0.000 C 
ATOM     11  C   UNL     1       3.300   6.486  17.480  0.00  0.00    +0.000 C 
ATOM     12  C   UNL     1       1.179   8.124  18.392  0.00  0.00    +0.000 C 
ATOM     13  C   UNL     1       0.919   9.292  19.213  0.00  0.00    +0.000 C 
ENDROOT
BRANCH  10  14
ATOM     14  C   UNL     1       1.643   4.954  18.951  0.00  0.00    +0.000 A 
ATOM     15  C   UNL     1       1.667   4.748  20.342  0.00  0.00    +0.000 A 
ATOM     16  C   UNL     1       1.368   3.491  20.881  0.00  0.00    +0.000 A 
ATOM     17  C   UNL     1       1.035   2.432  20.039  0.00  0.00    +0.000 A 
ATOM     18  C   UNL     1       1.038   2.617  18.659  0.00  0.00    +0.000 A 
ATOM     19  C   UNL     1       1.349   3.867  18.121  0.00  0.00    +0.000 A 
ENDBRANCH  10  14
BRANCH  11  20
ATOM     20  C   UNL     1       4.294   5.599  16.857  0.00  0.00    +0.000 A 
ATOM     21  C   UNL     1       4.386   4.226  17.092  0.00  0.00    +0.000 A 
ATOM     22  C   UNL     1       5.413   3.476  16.495  0.00  0.00    +0.000 A 
ATOM     23  C   UNL     1       6.329   4.085  15.633  0.00  0.00    +0.000 A 
ATOM     24  C   UNL     1       6.158   5.414  15.282  0.00  0.00    +0.000 A 
ATOM     25  C   UNL     1       5.132   6.145  15.869  0.00  0.00    +0.000 A 
ENDBRANCH  11  20
BRANCH   1  27
ATOM     26  C   UNL     1      -3.049   9.685  17.589  0.00  0.00    +0.000 C 
ATOM     27  O   UNL     1      -1.724   9.465  18.074  0.00  0.00    +0.000 OA
ENDBRANCH   1  27
TORSDOF 3
ENDMDL
MODEL 6
REMARK VINA RESULT:      -6.6      6.622      8.374
REMARK  Name = 
REMARK  4 active torsions:
REMARK  status: ('A' for Active; 'I' for Inactive)
REMARK    1  A    between atoms: C_1  and  O_2
REMARK    2  A    between atoms: O_2  and  C_3
REMARK    3  A    between atoms: C_12  and  C_13
REMARK    4  A    between atoms: C_19  and  C_20
REMARK                            x       y       z     vdW  Elec       q    Type
REMARK                         _______ _______ _______ _____ _____    ______ ____
ROOT
ATOM      1  C   UNL     1       3.419  16.784  20.789  0.00  0.00    +0.000 C 
ATOM      2  O   UNL     1       3.619  17.936  20.399  0.00  0.00    +0.000 OA
ATOM      3  N   UNL     1       3.801  15.678  20.096  0.00  0.00    +0.000 N 
ATOM      4  C   UNL     1       4.173  15.528  18.694  0.00  0.00    +0.000 C 
ATOM      5  C   UNL     1       2.689  15.160  18.415  0.00  0.00    +0.000 C 
ATOM      6  C   UNL     1       1.309  14.510  18.819  0.00  0.00    +0.000 C 
ATOM      7  C   UNL     1       0.749  13.234  18.070  0.00  0.00    +0.000 C 
ATOM      8  C   UNL     1       1.943  12.335  18.273  0.00  0.00    +0.000 C 
ATOM      9  C   UNL     1       1.863  12.484  19.818  0.00  0.00    +0.000 C 
ATOM     10  C   UNL     1       0.469  12.046  20.088  0.00  0.00    +0.000 C 
ATOM     11  C   UNL     1      -0.199  12.367  18.952  0.00  0.00    +0.000 C 
ATOM     12  C   UNL     1       1.802  13.981  20.137  0.00  0.00    +0.000 C 
ATOM     13  C   UNL     1       3.166  14.431  19.933  0.00  0.00    +0.000 C 
ENDROOT
BRANCH  10  14
ATOM     14  C   UNL     1       0.398  11.314  21.359  0.00  0.00    +0.000 A 
ATOM     15  C   UNL     1       1.094  10.099  21.485  0.00  0.00    +0.000 A 
ATOM     16  C   UNL     1       0.739   9.174  22.475  0.00  0.00    +0.000 A 
ATOM     17  C   UNL     1      -0.308   9.456  23.350  0.00  0.00    +0.000 A 
ATOM     18  C   UNL     1      -1.023  10.642  23.214  0.00  0.00    +0.000 A 
ATOM     19  C   UNL     1      -0.678  11.558  22.220  0.00  0.00    +0.000 A 
ENDBRANCH  10  14
BRANCH  11  20
ATOM     20  C   UNL     1      -1.362  11.639  18.421  0.00  0.00    +0.000 A 
ATOM     21  C   UNL     1      -1.285  10.469  17.664  0.00  0.00    +0.000 A 
ATOM     22  C   UNL     1      -2.454   9.883  17.150  0.00  0.00    +0.000 A 
ATOM     23  C   UNL     1      -3.706  10.442  17.421  0.00  0.00    +0.000 A 
ATOM     24  C   UNL     1      -3.802  11.516  18.289  0.00  0.00    +0.000 A 
ATOM     25  C   UNL     1      -2.642  12.082  18.802  0.00  0.00    +0.000 A 
ENDBRANCH  11  20
BRANCH   1  27
ATOM     26  C   UNL     1       1.523  17.156  22.108  0.00  0.00    +0.000 C 
ATOM     27  O   UNL     1       2.762  16.465  21.935  0.00  0.00    +0.000 OA
ENDBRANCH   1  27
TORSDOF 3
ENDMDL
MODEL 7
REMARK VINA RESULT:      -6.6      5.955      9.317
REMARK  Name = 
REMARK  4 active torsions:
REMARK  status: ('A' for Active; 'I' for Inactive)
REMARK    1  A    between atoms: C_1  and  O_2
REMARK    2  A    between atoms: O_2  and  C_3
REMARK    3  A    between atoms: C_12  and  C_13
REMARK    4  A    between atoms: C_19  and  C_20
REMARK                            x       y       z     vdW  Elec       q    Type
REMARK                         _______ _______ _______ _____ _____    ______ ____
ROOT
ATOM      1  C   UNL     1       0.722  17.459  18.874  0.00  0.00    +0.000 C 
ATOM      2  O   UNL     1       1.577  18.347  18.892  0.00  0.00    +0.000 OA
ATOM      3  N   UNL     1       0.395  16.708  19.960  0.00  0.00    +0.000 N 
ATOM      4  C   UNL     1       1.118  16.491  21.207  0.00  0.00    +0.000 C 
ATOM      5  C   UNL     1       1.732  15.226  20.547  0.00  0.00    +0.000 C 
ATOM      6  C   UNL     1       1.664  13.978  19.582  0.00  0.00    +0.000 C 
ATOM      7  C   UNL     1       1.680  12.500  20.145  0.00  0.00    +0.000 C 
ATOM      8  C   UNL     1       0.506  12.624  21.084  0.00  0.00    +0.000 C 
ATOM      9  C   UNL     1      -0.443  13.057  19.931  0.00  0.00    +0.000 C 
ATOM     10  C   UNL     1      -0.288  11.926  18.978  0.00  0.00    +0.000 C 
ATOM     11  C   UNL     1       0.971  11.475  19.210  0.00  0.00    +0.000 C 
ATOM     12  C   UNL     1       0.234  14.208  19.181  0.00  0.00    +0.000 C 
ATOM     13  C   UNL     1       0.054  15.345  20.065  0.00  0.00    +0.000 C 
ENDROOT
BRANCH  10  14
ATOM     14  C   UNL     1      -1.563  11.642  18.307  0.00  0.00    +0.000 A 
ATOM     15  C   UNL     1      -2.750  12.165  18.850  0.00  0.00    +0.000 A 
ATOM     16  C   UNL     1      -3.990  11.603  18.523  0.00  0.00    +0.000 A 
ATOM     17  C   UNL     1      -4.057  10.522  17.647  0.00  0.00    +0.000 A 
ATOM     18  C   UNL     1      -2.886   9.978  17.128  0.00  0.00    +0.000 A 
ATOM     19  C   UNL     1      -1.648  10.529  17.464  0.00  0.00    +0.000 A 
ENDBRANCH  10  14
BRANCH  11  20
ATOM     20  C   UNL     1       1.411  10.082  19.049  0.00  0.00    +0.000 A 
ATOM     21  C   UNL     1       1.997   9.565  17.891  0.00  0.00    +0.000 A 
ATOM     22  C   UNL     1       2.326   8.202  17.815  0.00  0.00    +0.000 A 
ATOM     23  C   UNL     1       2.108   7.356  18.907  0.00  0.00    +0.000 A 
ATOM     24  C   UNL     1       1.663   7.888  20.105  0.00  0.00    +0.000 A 
ATOM     25  C   UNL     1       1.351   9.240  20.175  0.00  0.00    +0.000 A 
ENDBRANCH  11  20
BRANCH   1  27
ATOM     26  C   UNL     1      -0.471  18.181  16.996  0.00  0.00    +0.000 C 
ATOM     27  O   UNL     1       0.025  17.087  17.769  0.00  0.00    +0.000 OA
ENDBRANCH   1  27
TORSDOF 3
ENDMDL
MODEL 8
REMARK VINA RESULT:      -6.6      6.565      8.495
REMARK  Name = 
REMARK  4 active torsions:
REMARK  status: ('A' for Active; 'I' for Inactive)
REMARK    1  A    between atoms: C_1  and  O_2
REMARK    2  A    between atoms: O_2  and  C_3
REMARK    3  A    between atoms: C_12  and  C_13
REMARK    4  A    between atoms: C_19  and  C_20
REMARK                            x       y       z     vdW  Elec       q    Type
REMARK                         _______ _______ _______ _____ _____    ______ ____
ROOT
ATOM      1  C   UNL     1       2.864  16.186  21.686  0.00  0.00    +0.000 C 
ATOM      2  O   UNL     1       3.105  17.389  21.572  0.00  0.00    +0.000 OA
ATOM      3  N   UNL     1       3.207  15.258  20.753  0.00  0.00    +0.000 N 
ATOM      4  C   UNL     1       3.578  15.424  19.353  0.00  0.00    +0.000 C 
ATOM      5  C   UNL     1       2.082  15.184  19.004  0.00  0.00    +0.000 C 
ATOM      6  C   UNL     1       0.678  14.507  19.254  0.00  0.00    +0.000 C 
ATOM      7  C   UNL     1       0.076  13.460  18.233  0.00  0.00    +0.000 C 
ATOM      8  C   UNL     1       1.236  12.497  18.215  0.00  0.00    +0.000 C 
ATOM      9  C   UNL     1       1.157  12.286  19.753  0.00  0.00    +0.000 C 
ATOM     10  C   UNL     1      -0.253  11.847  19.922  0.00  0.00    +0.000 C 
ATOM     11  C   UNL     1      -0.905  12.447  18.894  0.00  0.00    +0.000 C 
ATOM     12  C   UNL     1       1.148  13.670  20.410  0.00  0.00    +0.000 C 
ATOM     13  C   UNL     1       2.529  14.106  20.309  0.00  0.00    +0.000 C 
ENDROOT
BRANCH  10  14
ATOM     14  C   UNL     1      -0.354  10.843  20.989  0.00  0.00    +0.000 A 
ATOM     15  C   UNL     1      -1.132  11.132  22.124  0.00  0.00    +0.000 A 
ATOM     16  C   UNL     1      -0.935  10.430  23.319  0.00  0.00    +0.000 A 
ATOM     17  C   UNL     1       0.034   9.431  23.390  0.00  0.00    +0.000 A 
ATOM     18  C   UNL     1       0.830   9.158  22.281  0.00  0.00    +0.000 A 
ATOM     19  C   UNL     1       0.642   9.867  21.093  0.00  0.00    +0.000 A 
ENDBRANCH  10  14
BRANCH  11  20
ATOM     20  C   UNL     1      -2.092  11.903  18.216  0.00  0.00    +0.000 A 
ATOM     21  C   UNL     1      -2.066  11.229  16.994  0.00  0.00    +0.000 A 
ATOM     22  C   UNL     1      -3.264  10.803  16.398  0.00  0.00    +0.000 A 
ATOM     23  C   UNL     1      -4.490  11.015  17.036  0.00  0.00    +0.000 A 
ATOM     24  C   UNL     1      -4.512  11.551  18.312  0.00  0.00    +0.000 A 
ATOM     25  C   UNL     1      -3.321  11.960  18.899  0.00  0.00    +0.000 A 
ENDBRANCH  11  20
BRANCH   1  27
ATOM     26  C   UNL     1       0.953  16.278  23.033  0.00  0.00    +0.000 C 
ATOM     27  O   UNL     1       2.192  15.633  22.730  0.00  0.00    +0.000 OA
ENDBRANCH   1  27
TORSDOF 3
ENDMDL
MODEL 9
REMARK VINA RESULT:      -6.6      5.868      9.445
REMARK  Name = 
REMARK  4 active torsions:
REMARK  status: ('A' for Active; 'I' for Inactive)
REMARK    1  A    between atoms: C_1  and  O_2
REMARK    2  A    between atoms: O_2  and  C_3
REMARK    3  A    between atoms: C_12  and  C_13
REMARK    4  A    between atoms: C_19  and  C_20
REMARK                            x       y       z     vdW  Elec       q    Type
REMARK                         _______ _______ _______ _____ _____    ______ ____
ROOT
ATOM      1  C   UNL     1      -1.241  16.444  21.475  0.00  0.00    +0.000 C 
ATOM      2  O   UNL     1      -0.672  17.325  22.123  0.00  0.00    +0.000 OA
ATOM      3  N   UNL     1      -1.735  15.304  22.028  0.00  0.00    +0.000 N 
ATOM      4  C   UNL     1      -1.450  14.682  23.315  0.00  0.00    +0.000 C 
ATOM      5  C   UNL     1      -0.373  13.832  22.584  0.00  0.00    +0.000 C 
ATOM      6  C   UNL     1       0.181  13.059  21.324  0.00  0.00    +0.000 C 
ATOM      7  C   UNL     1       0.344  11.486  21.331  0.00  0.00    +0.000 C 
ATOM      8  C   UNL     1      -1.074  11.132  21.703  0.00  0.00    +0.000 C 
ATOM      9  C   UNL     1      -1.646  11.896  20.476  0.00  0.00    +0.000 C 
ATOM     10  C   UNL     1      -0.920  11.244  19.355  0.00  0.00    +0.000 C 
ATOM     11  C   UNL     1       0.253  10.849  19.911  0.00  0.00    +0.000 C 
ATOM     12  C   UNL     1      -1.040  13.302  20.482  0.00  0.00    +0.000 C 
ATOM     13  C   UNL     1      -1.767  13.984  21.537  0.00  0.00    +0.000 C 
ENDROOT
BRANCH  10  14
ATOM     14  C   UNL     1      -1.788  11.135  18.175  0.00  0.00    +0.000 A 
ATOM     15  C   UNL     1      -3.025  11.803  18.176  0.00  0.00    +0.000 A 
ATOM     16  C   UNL     1      -4.047  11.411  17.302  0.00  0.00    +0.000 A 
ATOM     17  C   UNL     1      -3.840  10.356  16.416  0.00  0.00    +0.000 A 
ATOM     18  C   UNL     1      -2.630   9.668  16.429  0.00  0.00    +0.000 A 
ATOM     19  C   UNL     1      -1.616  10.050  17.308  0.00  0.00    +0.000 A 
ENDBRANCH  10  14
BRANCH  11  20
ATOM     20  C   UNL     1       1.031   9.672  19.496  0.00  0.00    +0.000 A 
ATOM     21  C   UNL     1       1.227   8.536  20.283  0.00  0.00    +0.000 A 
ATOM     22  C   UNL     1       2.040   7.489  19.819  0.00  0.00    +0.000 A 
ATOM     23  C   UNL     1       2.631   7.555  18.554  0.00  0.00    +0.000 A 
ATOM     24  C   UNL     1       2.325   8.610  17.711  0.00  0.00    +0.000 A 
ATOM     25  C   UNL     1       1.510   9.636  18.174  0.00  0.00    +0.000 A 
ENDBRANCH  11  20
BRANCH   1  27
ATOM     26  C   UNL     1      -0.226  16.771  19.393  0.00  0.00    +0.000 C 
ATOM     27  O   UNL     1      -1.414  16.474  20.128  0.00  0.00    +0.000 OA
ENDBRANCH   1  27
TORSDOF 3
ENDMDL
