MODEL 1
REMARK VINA RESULT:      -8.0      0.000      0.000
REMARK  Name = 
REMARK  14 active torsions:
REMARK  status: ('A' for Active; 'I' for Inactive)
REMARK    1  A    between atoms: C_1  and  C_2
REMARK    2  A    between atoms: C_2  and  C_3
REMARK    3  A    between atoms: C_2  and  O_4
REMARK    4  A    between atoms: O_4  and  C_5
REMARK    5  A    between atoms: C_7  and  C_8
REMARK    6  A    between atoms: C_8  and  N_9
REMARK    7  A    between atoms: N_12  and  C_13
REMARK    8  A    between atoms: C_13  and  C_14
REMARK    9  A    between atoms: C_14  and  O_15
REMARK   10  A    between atoms: C_19  and  O_20
REMARK   11  A    between atoms: O_20  and  C_21
REMARK   12  A    between atoms: C_21  and  C_22
REMARK   13  A    between atoms: C_21  and  C_23
REMARK   14  A    between atoms: C_24  and  O_25
REMARK                            x       y       z     vdW  Elec       q    Type
REMARK                         _______ _______ _______ _____ _____    ______ ____
ROOT
ATOM      1  C   UNL     1       6.800   5.646  15.921  0.00  0.00    +0.000 A 
ATOM      2  C   UNL     1       5.665   5.156  16.597  0.00  0.00    +0.000 A 
ATOM      3  C   UNL     1       4.778   4.275  15.992  0.00  0.00    +0.000 A 
ATOM      4  C   UNL     1       5.047   3.810  14.703  0.00  0.00    +0.000 A 
ATOM      5  C   UNL     1       6.212   4.198  14.011  0.00  0.00    +0.000 A 
ATOM      6  C   UNL     1       7.079   5.144  14.617  0.00  0.00    +0.000 A 
ENDROOT
BRANCH   6   7
ATOM      7  O   UNL     1       8.193   5.564  13.979  0.00  0.00    +0.000 OA
ATOM      8  H   UNL     1       8.174   5.905  13.071  0.00  0.00    +0.000 HD
ENDBRANCH   6   7
BRANCH   1   9
ATOM      9  O   UNL     1       7.634   6.558  16.506  0.00  0.00    +0.000 OA
BRANCH   9  11
ATOM     10  C   UNL     1       8.039   6.270  18.863  0.00  0.00    +0.000 C 
ATOM     11  C   UNL     1       7.451   7.153  17.764  0.00  0.00    +0.000 C 
ATOM     12  C   UNL     1       8.067   8.545  17.794  0.00  0.00    +0.000 C 
ENDBRANCH   9  11
ENDBRANCH   1   9
BRANCH   3  13
ATOM     13  C   UNL     1       3.598   3.711  16.746  0.00  0.00    +0.000 C 
BRANCH  13  14
ATOM     14  N   UNL     1       3.852   3.460  18.189  0.00  0.00    +0.000 NA
ATOM     15  C   UNL     1       3.426   4.528  19.114  0.00  0.00    +0.000 C 
ATOM     16  C   UNL     1       1.888   4.640  19.237  0.00  0.00    +0.000 C 
ATOM     17  N   UNL     1       1.203   3.339  19.463  0.00  0.00    +0.000 NA
ATOM     18  C   UNL     1       1.723   2.250  18.611  0.00  0.00    +0.000 C 
ATOM     19  C   UNL     1       3.260   2.185  18.630  0.00  0.00    +0.000 C 
BRANCH  17  20
ATOM     20  C   UNL     1       0.979   2.932  20.868  0.00  0.00    +0.000 C 
BRANCH  20  21
ATOM     21  C   UNL     1       2.133   3.375  21.782  0.00  0.00    +0.000 C 
BRANCH  21  22
ATOM     22  O   UNL     1       2.997   2.299  22.050  0.00  0.00    +0.000 OA
ATOM     23  H   UNL     1       3.833   2.695  22.414  0.00  0.00    +0.000 HD
ENDBRANCH  21  22
ENDBRANCH  20  21
ENDBRANCH  17  20
ENDBRANCH  13  14
ENDBRANCH   3  13
BRANCH   5  24
ATOM     24  O   UNL     1       6.525   3.637  12.791  0.00  0.00    +0.000 OA
BRANCH  24  25
ATOM     25  C   UNL     1       5.787   2.637  12.155  0.00  0.00    +0.000 C 
ATOM     26  C   UNL     1       4.594   3.230  11.393  0.00  0.00    +0.000 C 
ATOM     27  C   UNL     1       6.674   1.869  11.151  0.00  0.00    +0.000 C 
ENDBRANCH  24  25
ENDBRANCH   5  24
TORSDOF 10
ENDMDL
MODEL 2
REMARK VINA RESULT:      -7.3      0.848      4.682
REMARK  Name = 
REMARK  14 active torsions:
REMARK  status: ('A' for Active; 'I' for Inactive)
REMARK    1  A    between atoms: C_1  and  C_2
REMARK    2  A    between atoms: C_2  and  C_3
REMARK    3  A    between atoms: C_2  and  O_4
REMARK    4  A    between atoms: O_4  and  C_5
REMARK    5  A    between atoms: C_7  and  C_8
REMARK    6  A    between atoms: C_8  and  N_9
REMARK    7  A    between atoms: N_12  and  C_13
REMARK    8  A    between atoms: C_13  and  C_14
REMARK    9  A    between atoms: C_14  and  O_15
REMARK   10  A    between atoms: C_19  and  O_20
REMARK   11  A    between atoms: O_20  and  C_21
REMARK   12  A    between atoms: C_21  and  C_22
REMARK   13  A    between atoms: C_21  and  C_23
REMARK   14  A    between atoms: C_24  and  O_25
REMARK                            x       y       z     vdW  Elec       q    Type
REMARK                         _______ _______ _______ _____ _____    ______ ____
ROOT
ATOM      1  C   UNL     1       6.294   4.218  14.022  0.00  0.00    +0.000 A 
ATOM      2  C   UNL     1       5.164   3.805  14.755  0.00  0.00    +0.000 A 
ATOM      3  C   UNL     1       4.928   4.252  16.048  0.00  0.00    +0.000 A 
ATOM      4  C   UNL     1       5.796   5.186  16.618  0.00  0.00    +0.000 A 
ATOM      5  C   UNL     1       6.894   5.701  15.901  0.00  0.00    +0.000 A 
ATOM      6  C   UNL     1       7.158   5.191  14.603  0.00  0.00    +0.000 A 
ENDROOT
BRANCH   6   7
ATOM      7  O   UNL     1       8.214   5.636  13.889  0.00  0.00    +0.000 OA
ATOM      8  H   UNL     1       8.114   6.245  13.140  0.00  0.00    +0.000 HD
ENDBRANCH   6   7
BRANCH   1   9
ATOM      9  O   UNL     1       6.546   3.725  12.772  0.00  0.00    +0.000 OA
BRANCH   9  11
ATOM     10  C   UNL     1       4.648   3.231  11.373  0.00  0.00    +0.000 C 
ATOM     11  C   UNL     1       5.849   2.683  12.142  0.00  0.00    +0.000 C 
ATOM     12  C   UNL     1       6.775   1.897  11.221  0.00  0.00    +0.000 C 
ENDBRANCH   9  11
ENDBRANCH   1   9
BRANCH   3  13
ATOM     13  C   UNL     1       3.684   3.849  16.802  0.00  0.00    +0.000 C 
BRANCH  13  14
ATOM     14  N   UNL     1       3.570   4.434  18.162  0.00  0.00    +0.000 NA
ATOM     15  C   UNL     1       2.242   4.339  18.797  0.00  0.00    +0.000 C 
ATOM     16  C   UNL     1       1.873   2.895  19.210  0.00  0.00    +0.000 C 
ATOM     17  N   UNL     1       2.948   2.186  19.956  0.00  0.00    +0.000 NA
ATOM     18  C   UNL     1       4.291   2.389  19.376  0.00  0.00    +0.000 C 
ATOM     19  C   UNL     1       4.576   3.871  19.081  0.00  0.00    +0.000 C 
BRANCH  17  20
ATOM     20  C   UNL     1       2.922   2.288  21.432  0.00  0.00    +0.000 C 
BRANCH  20  21
ATOM     21  C   UNL     1       1.753   3.158  21.924  0.00  0.00    +0.000 C 
BRANCH  21  22
ATOM     22  O   UNL     1       0.766   2.366  22.536  0.00  0.00    +0.000 OA
ATOM     23  H   UNL     1      -0.109   2.767  22.289  0.00  0.00    +0.000 HD
ENDBRANCH  21  22
ENDBRANCH  20  21
ENDBRANCH  17  20
ENDBRANCH  13  14
ENDBRANCH   3  13
BRANCH   5  24
ATOM     24  O   UNL     1       7.670   6.710  16.430  0.00  0.00    +0.000 OA
BRANCH  24  25
ATOM     25  C   UNL     1       7.448   7.331  17.661  0.00  0.00    +0.000 C 
ATOM     26  C   UNL     1       8.068   6.521  18.808  0.00  0.00    +0.000 C 
ATOM     27  C   UNL     1       8.068   8.745  17.672  0.00  0.00    +0.000 C 
ENDBRANCH  24  25
ENDBRANCH   5  24
TORSDOF 10
ENDMDL
MODEL 3
REMARK VINA RESULT:      -7.3      0.956      1.259
REMARK  Name = 
REMARK  14 active torsions:
REMARK  status: ('A' for Active; 'I' for Inactive)
REMARK    1  A    between atoms: C_1  and  C_2
REMARK    2  A    between atoms: C_2  and  C_3
REMARK    3  A    between atoms: C_2  and  O_4
REMARK    4  A    between atoms: O_4  and  C_5
REMARK    5  A    between atoms: C_7  and  C_8
REMARK    6  A    between atoms: C_8  and  N_9
REMARK    7  A    between atoms: N_12  and  C_13
REMARK    8  A    between atoms: C_13  and  C_14
REMARK    9  A    between atoms: C_14  and  O_15
REMARK   10  A    between atoms: C_19  and  O_20
REMARK   11  A    between atoms: O_20  and  C_21
REMARK   12  A    between atoms: C_21  and  C_22
REMARK   13  A    between atoms: C_21  and  C_23
REMARK   14  A    between atoms: C_24  and  O_25
REMARK                            x       y       z     vdW  Elec       q    Type
REMARK                         _______ _______ _______ _____ _____    ______ ____
ROOT
ATOM      1  C   UNL     1       6.953   5.530  15.868  0.00  0.00    +0.000 A 
ATOM      2  C   UNL     1       5.943   4.879  16.606  0.00  0.00    +0.000 A 
ATOM      3  C   UNL     1       5.111   3.930  16.025  0.00  0.00    +0.000 A 
ATOM      4  C   UNL     1       5.319   3.560  14.695  0.00  0.00    +0.000 A 
ATOM      5  C   UNL     1       6.368   4.113  13.934  0.00  0.00    +0.000 A 
ATOM      6  C   UNL     1       7.173   5.126  14.520  0.00  0.00    +0.000 A 
ENDROOT
BRANCH   6   7
ATOM      7  O   UNL     1       8.173   5.702  13.820  0.00  0.00    +0.000 OA
ATOM      8  H   UNL     1       8.062   5.994  12.901  0.00  0.00    +0.000 HD
ENDBRANCH   6   7
BRANCH   1   9
ATOM      9  O   UNL     1       7.726   6.505  16.435  0.00  0.00    +0.000 OA
BRANCH   9  11
ATOM     10  C   UNL     1       8.011   6.350  18.822  0.00  0.00    +0.000 C 
ATOM     11  C   UNL     1       7.466   7.161  17.648  0.00  0.00    +0.000 C 
ATOM     12  C   UNL     1       8.054   8.566  17.636  0.00  0.00    +0.000 C 
ENDBRANCH   9  11
ENDBRANCH   1   9
BRANCH   3  13
ATOM     13  C   UNL     1       4.073   3.197  16.839  0.00  0.00    +0.000 C 
BRANCH  13  14
ATOM     14  N   UNL     1       3.255   4.069  17.722  0.00  0.00    +0.000 NA
ATOM     15  C   UNL     1       1.813   3.763  17.773  0.00  0.00    +0.000 C 
ATOM     16  C   UNL     1       1.502   2.442  18.516  0.00  0.00    +0.000 C 
ATOM     17  N   UNL     1       2.191   2.309  19.828  0.00  0.00    +0.000 NA
ATOM     18  C   UNL     1       3.606   2.732  19.788  0.00  0.00    +0.000 C 
ATOM     19  C   UNL     1       3.783   4.095  19.099  0.00  0.00    +0.000 C 
BRANCH  17  20
ATOM     20  C   UNL     1       1.464   2.794  21.021  0.00  0.00    +0.000 C 
BRANCH  20  21
ATOM     21  C   UNL     1       0.749   4.127  20.752  0.00  0.00    +0.000 C 
BRANCH  21  22
ATOM     22  O   UNL     1       1.578   5.214  21.082  0.00  0.00    +0.000 OA
ATOM     23  H   UNL     1       1.431   5.902  20.381  0.00  0.00    +0.000 HD
ENDBRANCH  21  22
ENDBRANCH  20  21
ENDBRANCH  17  20
ENDBRANCH  13  14
ENDBRANCH   3  13
BRANCH   5  24
ATOM     24  O   UNL     1       6.636   3.651  12.663  0.00  0.00    +0.000 OA
BRANCH  24  25
ATOM     25  C   UNL     1       5.983   2.583  12.044  0.00  0.00    +0.000 C 
ATOM     26  C   UNL     1       4.731   3.060  11.297  0.00  0.00    +0.000 C 
ATOM     27  C   UNL     1       6.921   1.892  11.032  0.00  0.00    +0.000 C 
ENDBRANCH  24  25
ENDBRANCH   5  24
TORSDOF 10
ENDMDL
MODEL 4
REMARK VINA RESULT:      -7.0      0.363      4.435
REMARK  Name = 
REMARK  14 active torsions:
REMARK  status: ('A' for Active; 'I' for Inactive)
REMARK    1  A    between atoms: C_1  and  C_2
REMARK    2  A    between atoms: C_2  and  C_3
REMARK    3  A    between atoms: C_2  and  O_4
REMARK    4  A    between atoms: O_4  and  C_5
REMARK    5  A    between atoms: C_7  and  C_8
REMARK    6  A    between atoms: C_8  and  N_9
REMARK    7  A    between atoms: N_12  and  C_13
REMARK    8  A    between atoms: C_13  and  C_14
REMARK    9  A    between atoms: C_14  and  O_15
REMARK   10  A    between atoms: C_19  and  O_20
REMARK   11  A    between atoms: O_20  and  C_21
REMARK   12  A    between atoms: C_21  and  C_22
REMARK   13  A    between atoms: C_21  and  C_23
REMARK   14  A    between atoms: C_24  and  O_25
REMARK                            x       y       z     vdW  Elec       q    Type
REMARK                         _______ _______ _______ _____ _____    ______ ____
ROOT
ATOM      1  C   UNL     1       6.205   4.100  13.861  0.00  0.00    +0.000 A 
ATOM      2  C   UNL     1       5.088   3.698  14.622  0.00  0.00    +0.000 A 
ATOM      3  C   UNL     1       4.927   4.088  15.945  0.00  0.00    +0.000 A 
ATOM      4  C   UNL     1       5.860   4.953  16.522  0.00  0.00    +0.000 A 
ATOM      5  C   UNL     1       6.949   5.456  15.784  0.00  0.00    +0.000 A 
ATOM      6  C   UNL     1       7.135   5.002  14.451  0.00  0.00    +0.000 A 
ENDROOT
BRANCH   6   7
ATOM      7  O   UNL     1       8.180   5.438  13.715  0.00  0.00    +0.000 OA
ATOM      8  H   UNL     1       8.967   4.893  13.559  0.00  0.00    +0.000 HD
ENDBRANCH   6   7
BRANCH   1   9
ATOM      9  O   UNL     1       6.382   3.661  12.578  0.00  0.00    +0.000 OA
BRANCH   9  11
ATOM     10  C   UNL     1       4.450   3.132  11.240  0.00  0.00    +0.000 C 
ATOM     11  C   UNL     1       5.687   2.607  11.965  0.00  0.00    +0.000 C 
ATOM     12  C   UNL     1       6.599   1.847  11.010  0.00  0.00    +0.000 C 
ENDBRANCH   9  11
ENDBRANCH   1   9
BRANCH   3  13
ATOM     13  C   UNL     1       3.698   3.701  16.732  0.00  0.00    +0.000 C 
BRANCH  13  14
ATOM     14  N   UNL     1       3.928   3.531  18.190  0.00  0.00    +0.000 NA
ATOM     15  C   UNL     1       3.450   4.630  19.050  0.00  0.00    +0.000 C 
ATOM     16  C   UNL     1       1.907   4.701  19.135  0.00  0.00    +0.000 C 
ATOM     17  N   UNL     1       1.256   3.392  19.414  0.00  0.00    +0.000 NA
ATOM     18  C   UNL     1       1.826   2.279  18.630  0.00  0.00    +0.000 C 
ATOM     19  C   UNL     1       3.364   2.261  18.684  0.00  0.00    +0.000 C 
BRANCH  17  20
ATOM     20  C   UNL     1       1.013   3.051  20.833  0.00  0.00    +0.000 C 
BRANCH  20  21
ATOM     21  C   UNL     1       2.197   3.451  21.728  0.00  0.00    +0.000 C 
BRANCH  21  22
ATOM     22  O   UNL     1       2.974   2.327  22.059  0.00  0.00    +0.000 OA
ATOM     23  H   UNL     1       2.563   1.931  22.872  0.00  0.00    +0.000 HD
ENDBRANCH  21  22
ENDBRANCH  20  21
ENDBRANCH  17  20
ENDBRANCH  13  14
ENDBRANCH   3  13
BRANCH   5  24
ATOM     24  O   UNL     1       7.792   6.402  16.328  0.00  0.00    +0.000 OA
BRANCH  24  25
ATOM     25  C   UNL     1       7.512   7.168  17.461  0.00  0.00    +0.000 C 
ATOM     26  C   UNL     1       6.034   7.578  17.500  0.00  0.00    +0.000 C 
ATOM     27  C   UNL     1       7.831   6.370  18.744  0.00  0.00    +0.000 C 
ENDBRANCH  24  25
ENDBRANCH   5  24
TORSDOF 10
ENDMDL
MODEL 5
REMARK VINA RESULT:      -6.9      1.626      1.853
REMARK  Name = 
REMARK  14 active torsions:
REMARK  status: ('A' for Active; 'I' for Inactive)
REMARK    1  A    between atoms: C_1  and  C_2
REMARK    2  A    between atoms: C_2  and  C_3
REMARK    3  A    between atoms: C_2  and  O_4
REMARK    4  A    between atoms: O_4  and  C_5
REMARK    5  A    between atoms: C_7  and  C_8
REMARK    6  A    between atoms: C_8  and  N_9
REMARK    7  A    between atoms: N_12  and  C_13
REMARK    8  A    between atoms: C_13  and  C_14
REMARK    9  A    between atoms: C_14  and  O_15
REMARK   10  A    between atoms: C_19  and  O_20
REMARK   11  A    between atoms: O_20  and  C_21
REMARK   12  A    between atoms: C_21  and  C_22
REMARK   13  A    between atoms: C_21  and  C_23
REMARK   14  A    between atoms: C_24  and  O_25
REMARK                            x       y       z     vdW  Elec       q    Type
REMARK                         _______ _______ _______ _____ _____    ______ ____
ROOT
ATOM      1  C   UNL     1       6.841   5.620  16.049  0.00  0.00    +0.000 A 
ATOM      2  C   UNL     1       5.851   5.039  16.866  0.00  0.00    +0.000 A 
ATOM      3  C   UNL     1       4.982   4.069  16.383  0.00  0.00    +0.000 A 
ATOM      4  C   UNL     1       5.132   3.607  15.074  0.00  0.00    +0.000 A 
ATOM      5  C   UNL     1       6.159   4.088  14.238  0.00  0.00    +0.000 A 
ATOM      6  C   UNL     1       7.001   5.123  14.724  0.00  0.00    +0.000 A 
ENDROOT
BRANCH   6   7
ATOM      7  O   UNL     1       7.982   5.632  13.949  0.00  0.00    +0.000 OA
ATOM      8  H   UNL     1       8.889   5.288  13.966  0.00  0.00    +0.000 HD
ENDBRANCH   6   7
BRANCH   1   9
ATOM      9  O   UNL     1       7.651   6.616  16.519  0.00  0.00    +0.000 OA
BRANCH   9  11
ATOM     10  C   UNL     1       8.076   6.494  18.887  0.00  0.00    +0.000 C 
ATOM     11  C   UNL     1       7.492   7.304  17.731  0.00  0.00    +0.000 C 
ATOM     12  C   UNL     1       8.132   8.685  17.654  0.00  0.00    +0.000 C 
ENDBRANCH   9  11
ENDBRANCH   1   9
BRANCH   3  13
ATOM     13  C   UNL     1       3.964   3.411  17.284  0.00  0.00    +0.000 C 
BRANCH  13  14
ATOM     14  N   UNL     1       4.120   3.733  18.726  0.00  0.00    +0.000 NA
ATOM     15  C   UNL     1       4.439   5.137  19.043  0.00  0.00    +0.000 C 
ATOM     16  C   UNL     1       3.253   6.097  18.789  0.00  0.00    +0.000 C 
ATOM     17  N   UNL     1       1.963   5.630  19.364  0.00  0.00    +0.000 NA
ATOM     18  C   UNL     1       1.712   4.192  19.141  0.00  0.00    +0.000 C 
ATOM     19  C   UNL     1       2.933   3.329  19.503  0.00  0.00    +0.000 C 
BRANCH  17  20
ATOM     20  C   UNL     1       1.636   6.080  20.735  0.00  0.00    +0.000 C 
BRANCH  20  21
ATOM     21  C   UNL     1       1.284   7.576  20.777  0.00  0.00    +0.000 C 
BRANCH  21  22
ATOM     22  O   UNL     1       1.871   8.195  21.895  0.00  0.00    +0.000 OA
ATOM     23  H   UNL     1       1.421   9.075  21.996  0.00  0.00    +0.000 HD
ENDBRANCH  21  22
ENDBRANCH  20  21
ENDBRANCH  17  20
ENDBRANCH  13  14
ENDBRANCH   3  13
BRANCH   5  24
ATOM     24  O   UNL     1       6.369   3.537  12.992  0.00  0.00    +0.000 OA
BRANCH  24  25
ATOM     25  C   UNL     1       5.461   2.726  12.310  0.00  0.00    +0.000 C 
ATOM     26  C   UNL     1       4.432   3.570  11.545  0.00  0.00    +0.000 C 
ATOM     27  C   UNL     1       6.198   1.821  11.300  0.00  0.00    +0.000 C 
ENDBRANCH  24  25
ENDBRANCH   5  24
TORSDOF 10
ENDMDL
MODEL 6
REMARK VINA RESULT:      -6.7      1.591      4.848
REMARK  Name = 
REMARK  14 active torsions:
REMARK  status: ('A' for Active; 'I' for Inactive)
REMARK    1  A    between atoms: C_1  and  C_2
REMARK    2  A    between atoms: C_2  and  C_3
REMARK    3  A    between atoms: C_2  and  O_4
REMARK    4  A    between atoms: O_4  and  C_5
REMARK    5  A    between atoms: C_7  and  C_8
REMARK    6  A    between atoms: C_8  and  N_9
REMARK    7  A    between atoms: N_12  and  C_13
REMARK    8  A    between atoms: C_13  and  C_14
REMARK    9  A    between atoms: C_14  and  O_15
REMARK   10  A    between atoms: C_19  and  O_20
REMARK   11  A    between atoms: O_20  and  C_21
REMARK   12  A    between atoms: C_21  and  C_22
REMARK   13  A    between atoms: C_21  and  C_23
REMARK   14  A    between atoms: C_24  and  O_25
REMARK                            x       y       z     vdW  Elec       q    Type
REMARK                         _______ _______ _______ _____ _____    ______ ____
ROOT
ATOM      1  C   UNL     1       6.176   4.090  14.311  0.00  0.00    +0.000 A 
ATOM      2  C   UNL     1       5.194   3.462  15.103  0.00  0.00    +0.000 A 
ATOM      3  C   UNL     1       5.142   3.639  16.479  0.00  0.00    +0.000 A 
ATOM      4  C   UNL     1       6.044   4.511  17.091  0.00  0.00    +0.000 A 
ATOM      5  C   UNL     1       6.992   5.233  16.340  0.00  0.00    +0.000 A 
ATOM      6  C   UNL     1       7.074   4.998  14.943  0.00  0.00    +0.000 A 
ENDROOT
BRANCH   6   7
ATOM      7  O   UNL     1       7.985   5.648  14.187  0.00  0.00    +0.000 OA
ATOM      8  H   UNL     1       8.039   6.616  14.158  0.00  0.00    +0.000 HD
ENDBRANCH   6   7
BRANCH   1   9
ATOM      9  O   UNL     1       6.253   3.861  12.965  0.00  0.00    +0.000 OA
BRANCH   9  11
ATOM     10  C   UNL     1       4.461   3.265  11.470  0.00  0.00    +0.000 C 
ATOM     11  C   UNL     1       5.667   2.788  12.277  0.00  0.00    +0.000 C 
ATOM     12  C   UNL     1       6.689   2.103  11.379  0.00  0.00    +0.000 C 
ENDBRANCH   9  11
ENDBRANCH   1   9
BRANCH   3  13
ATOM     13  C   UNL     1       4.049   3.008  17.309  0.00  0.00    +0.000 C 
BRANCH  13  14
ATOM     14  N   UNL     1       2.789   3.792  17.365  0.00  0.00    +0.000 NA
ATOM     15  C   UNL     1       1.728   3.246  18.233  0.00  0.00    +0.000 C 
ATOM     16  C   UNL     1       2.061   3.365  19.739  0.00  0.00    +0.000 C 
ATOM     17  N   UNL     1       2.537   4.714  20.148  0.00  0.00    +0.000 NA
ATOM     18  C   UNL     1       3.512   5.299  19.205  0.00  0.00    +0.000 C 
ATOM     19  C   UNL     1       3.038   5.195  17.745  0.00  0.00    +0.000 C 
BRANCH  17  20
ATOM     20  C   UNL     1       1.515   5.677  20.611  0.00  0.00    +0.000 C 
BRANCH  20  21
ATOM     21  C   UNL     1       1.948   7.132  20.367  0.00  0.00    +0.000 C 
BRANCH  21  22
ATOM     22  O   UNL     1       1.752   7.910  21.522  0.00  0.00    +0.000 OA
ATOM     23  H   UNL     1       2.634   8.310  21.744  0.00  0.00    +0.000 HD
ENDBRANCH  21  22
ENDBRANCH  20  21
ENDBRANCH  17  20
ENDBRANCH  13  14
ENDBRANCH   3  13
BRANCH   5  24
ATOM     24  O   UNL     1       7.794   6.180  16.941  0.00  0.00    +0.000 OA
BRANCH  24  25
ATOM     25  C   UNL     1       7.338   7.215  17.758  0.00  0.00    +0.000 C 
ATOM     26  C   UNL     1       8.246   8.447  17.649  0.00  0.00    +0.000 C 
ATOM     27  C   UNL     1       5.905   7.628  17.356  0.00  0.00    +0.000 C 
ENDBRANCH  24  25
ENDBRANCH   5  24
TORSDOF 10
ENDMDL
MODEL 7
REMARK VINA RESULT:      -6.4      5.216      7.376
REMARK  Name = 
REMARK  14 active torsions:
REMARK  status: ('A' for Active; 'I' for Inactive)
REMARK    1  A    between atoms: C_1  and  C_2
REMARK    2  A    between atoms: C_2  and  C_3
REMARK    3  A    between atoms: C_2  and  O_4
REMARK    4  A    between atoms: O_4  and  C_5
REMARK    5  A    between atoms: C_7  and  C_8
REMARK    6  A    between atoms: C_8  and  N_9
REMARK    7  A    between atoms: N_12  and  C_13
REMARK    8  A    between atoms: C_13  and  C_14
REMARK    9  A    between atoms: C_14  and  O_15
REMARK   10  A    between atoms: C_19  and  O_20
REMARK   11  A    between atoms: O_20  and  C_21
REMARK   12  A    between atoms: C_21  and  C_22
REMARK   13  A    between atoms: C_21  and  C_23
REMARK   14  A    between atoms: C_24  and  O_25
REMARK                            x       y       z     vdW  Elec       q    Type
REMARK                         _______ _______ _______ _____ _____    ______ ____
ROOT
ATOM      1  C   UNL     1       2.719   5.756  19.702  0.00  0.00    +0.000 A 
ATOM      2  C   UNL     1       1.999   6.967  19.662  0.00  0.00    +0.000 A 
ATOM      3  C   UNL     1       2.299   7.966  18.745  0.00  0.00    +0.000 A 
ATOM      4  C   UNL     1       3.296   7.743  17.793  0.00  0.00    +0.000 A 
ATOM      5  C   UNL     1       3.989   6.518  17.729  0.00  0.00    +0.000 A 
ATOM      6  C   UNL     1       3.715   5.529  18.709  0.00  0.00    +0.000 A 
ENDROOT
BRANCH   6   7
ATOM      7  O   UNL     1       4.374   4.351  18.702  0.00  0.00    +0.000 OA
ATOM      8  H   UNL     1       5.340   4.296  18.773  0.00  0.00    +0.000 HD
ENDBRANCH   6   7
BRANCH   1   9
ATOM      9  O   UNL     1       2.453   4.805  20.648  0.00  0.00    +0.000 OA
BRANCH   9  11
ATOM     10  C   UNL     1       1.020   3.436  19.279  0.00  0.00    +0.000 C 
ATOM     11  C   UNL     1       1.330   3.964  20.678  0.00  0.00    +0.000 C 
ATOM     12  C   UNL     1       1.543   2.819  21.659  0.00  0.00    +0.000 C 
ENDBRANCH   9  11
ENDBRANCH   1   9
BRANCH   3  13
ATOM     13  C   UNL     1       1.483   9.234  18.674  0.00  0.00    +0.000 C 
BRANCH  13  14
ATOM     14  N   UNL     1       0.509   9.403  19.783  0.00  0.00    +0.000 NA
ATOM     15  C   UNL     1       0.988  10.164  20.952  0.00  0.00    +0.000 C 
ATOM     16  C   UNL     1       1.163  11.673  20.658  0.00  0.00    +0.000 C 
ATOM     17  N   UNL     1      -0.002  12.295  19.972  0.00  0.00    +0.000 NA
ATOM     18  C   UNL     1      -0.545  11.464  18.878  0.00  0.00    +0.000 C 
ATOM     19  C   UNL     1      -0.753  10.002  19.310  0.00  0.00    +0.000 C 
BRANCH  17  20
ATOM     20  C   UNL     1      -1.046  12.896  20.831  0.00  0.00    +0.000 C 
BRANCH  20  21
ATOM     21  C   UNL     1      -0.500  13.263  22.221  0.00  0.00    +0.000 C 
BRANCH  21  22
ATOM     22  O   UNL     1      -0.990  12.379  23.198  0.00  0.00    +0.000 OA
ATOM     23  H   UNL     1      -0.565  12.645  24.056  0.00  0.00    +0.000 HD
ENDBRANCH  21  22
ENDBRANCH  20  21
ENDBRANCH  17  20
ENDBRANCH  13  14
ENDBRANCH   3  13
BRANCH   5  24
ATOM     24  O   UNL     1       4.883   6.268  16.709  0.00  0.00    +0.000 OA
BRANCH  24  25
ATOM     25  C   UNL     1       6.199   5.838  16.885  0.00  0.00    +0.000 C 
ATOM     26  C   UNL     1       6.749   5.203  15.600  0.00  0.00    +0.000 C 
ATOM     27  C   UNL     1       7.109   7.024  17.270  0.00  0.00    +0.000 C 
ENDBRANCH  24  25
ENDBRANCH   5  24
TORSDOF 10
ENDMDL
MODEL 8
REMARK VINA RESULT:      -6.4      4.567      6.382
REMARK  Name = 
REMARK  14 active torsions:
REMARK  status: ('A' for Active; 'I' for Inactive)
REMARK    1  A    between atoms: C_1  and  C_2
REMARK    2  A    between atoms: C_2  and  C_3
REMARK    3  A    between atoms: C_2  and  O_4
REMARK    4  A    between atoms: O_4  and  C_5
REMARK    5  A    between atoms: C_7  and  C_8
REMARK    6  A    between atoms: C_8  and  N_9
REMARK    7  A    between atoms: N_12  and  C_13
REMARK    8  A    between atoms: C_13  and  C_14
REMARK    9  A    between atoms: C_14  and  O_15
REMARK   10  A    between atoms: C_19  and  O_20
REMARK   11  A    between atoms: O_20  and  C_21
REMARK   12  A    between atoms: C_21  and  C_22
REMARK   13  A    between atoms: C_21  and  C_23
REMARK   14  A    between atoms: C_24  and  O_25
REMARK                            x       y       z     vdW  Elec       q    Type
REMARK                         _______ _______ _______ _____ _____    ______ ____
ROOT
ATOM      1  C   UNL     1       4.535   6.178  17.535  0.00  0.00    +0.000 A 
ATOM      2  C   UNL     1       3.754   7.016  18.357  0.00  0.00    +0.000 A 
ATOM      3  C   UNL     1       2.445   6.695  18.693  0.00  0.00    +0.000 A 
ATOM      4  C   UNL     1       1.906   5.482  18.263  0.00  0.00    +0.000 A 
ATOM      5  C   UNL     1       2.667   4.565  17.512  0.00  0.00    +0.000 A 
ATOM      6  C   UNL     1       3.983   4.931  17.124  0.00  0.00    +0.000 A 
ENDROOT
BRANCH   6   7
ATOM      7  O   UNL     1       4.740   4.094  16.382  0.00  0.00    +0.000 OA
ATOM      8  H   UNL     1       4.830   4.190  15.421  0.00  0.00    +0.000 HD
ENDBRANCH   6   7
BRANCH   1   9
ATOM      9  O   UNL     1       5.801   6.533  17.162  0.00  0.00    +0.000 OA
BRANCH   9  11
ATOM     10  C   UNL     1       7.691   5.277  17.969  0.00  0.00    +0.000 C 
ATOM     11  C   UNL     1       6.921   6.595  18.005  0.00  0.00    +0.000 C 
ATOM     12  C   UNL     1       7.820   7.763  17.619  0.00  0.00    +0.000 C 
ENDBRANCH   9  11
ENDBRANCH   1   9
BRANCH   3  13
ATOM     13  C   UNL     1       1.639   7.571  19.622  0.00  0.00    +0.000 C 
BRANCH  13  14
ATOM     14  N   UNL     1       1.807   9.030  19.393  0.00  0.00    +0.000 NA
ATOM     15  C   UNL     1       1.252   9.552  18.130  0.00  0.00    +0.000 C 
ATOM     16  C   UNL     1      -0.295   9.561  18.109  0.00  0.00    +0.000 C 
ATOM     17  N   UNL     1      -0.913  10.151  19.327  0.00  0.00    +0.000 NA
ATOM     18  C   UNL     1      -0.269   9.709  20.580  0.00  0.00    +0.000 C 
ATOM     19  C   UNL     1       1.264   9.821  20.513  0.00  0.00    +0.000 C 
BRANCH  17  20
ATOM     20  C   UNL     1      -1.209  11.600  19.295  0.00  0.00    +0.000 C 
BRANCH  20  21
ATOM     21  C   UNL     1      -1.828  12.028  17.954  0.00  0.00    +0.000 C 
BRANCH  21  22
ATOM     22  O   UNL     1      -0.979  12.920  17.276  0.00  0.00    +0.000 OA
ATOM     23  H   UNL     1      -0.980  12.639  16.323  0.00  0.00    +0.000 HD
ENDBRANCH  21  22
ENDBRANCH  20  21
ENDBRANCH  17  20
ENDBRANCH  13  14
ENDBRANCH   3  13
BRANCH   5  24
ATOM     24  O   UNL     1       2.162   3.321  17.198  0.00  0.00    +0.000 OA
BRANCH  24  25
ATOM     25  C   UNL     1       2.047   2.253  18.090  0.00  0.00    +0.000 C 
ATOM     26  C   UNL     1       3.324   2.090  18.925  0.00  0.00    +0.000 C 
ATOM     27  C   UNL     1       0.861   2.480  19.052  0.00  0.00    +0.000 C 
ENDBRANCH  24  25
ENDBRANCH   5  24
TORSDOF 10
ENDMDL
MODEL 9
REMARK VINA RESULT:      -6.4      5.060      7.201
REMARK  Name = 
REMARK  14 active torsions:
REMARK  status: ('A' for Active; 'I' for Inactive)
REMARK    1  A    between atoms: C_1  and  C_2
REMARK    2  A    between atoms: C_2  and  C_3
REMARK    3  A    between atoms: C_2  and  O_4
REMARK    4  A    between atoms: O_4  and  C_5
REMARK    5  A    between atoms: C_7  and  C_8
REMARK    6  A    between atoms: C_8  and  N_9
REMARK    7  A    between atoms: N_12  and  C_13
REMARK    8  A    between atoms: C_13  and  C_14
REMARK    9  A    between atoms: C_14  and  O_15
REMARK   10  A    between atoms: C_19  and  O_20
REMARK   11  A    between atoms: O_20  and  C_21
REMARK   12  A    between atoms: C_21  and  C_22
REMARK   13  A    between atoms: C_21  and  C_23
REMARK   14  A    between atoms: C_24  and  O_25
REMARK                            x       y       z     vdW  Elec       q    Type
REMARK                         _______ _______ _______ _____ _____    ______ ____
ROOT
ATOM      1  C   UNL     1       4.723   6.202  17.580  0.00  0.00    +0.000 A 
ATOM      2  C   UNL     1       3.982   7.353  17.919  0.00  0.00    +0.000 A 
ATOM      3  C   UNL     1       2.790   7.272  18.627  0.00  0.00    +0.000 A 
ATOM      4  C   UNL     1       2.343   6.027  19.074  0.00  0.00    +0.000 A 
ATOM      5  C   UNL     1       3.086   4.853  18.841  0.00  0.00    +0.000 A 
ATOM      6  C   UNL     1       4.271   4.941  18.064  0.00  0.00    +0.000 A 
ENDROOT
BRANCH   6   7
ATOM      7  O   UNL     1       5.000   3.838  17.794  0.00  0.00    +0.000 OA
ATOM      8  H   UNL     1       5.624   3.797  17.052  0.00  0.00    +0.000 HD
ENDBRANCH   6   7
BRANCH   1   9
ATOM      9  O   UNL     1       5.864   6.290  16.832  0.00  0.00    +0.000 OA
BRANCH   9  11
ATOM     10  C   UNL     1       7.483   7.992  17.362  0.00  0.00    +0.000 C 
ATOM     11  C   UNL     1       7.160   6.500  17.327  0.00  0.00    +0.000 C 
ATOM     12  C   UNL     1       7.315   5.875  18.707  0.00  0.00    +0.000 C 
ENDBRANCH   9  11
ENDBRANCH   1   9
BRANCH   3  13
ATOM     13  C   UNL     1       2.037   8.515  19.035  0.00  0.00    +0.000 C 
BRANCH  13  14
ATOM     14  N   UNL     1       1.566   9.350  17.900  0.00  0.00    +0.000 NA
ATOM     15  C   UNL     1       0.105   9.412  17.708  0.00  0.00    +0.000 C 
ATOM     16  C   UNL     1      -0.615  10.219  18.813  0.00  0.00    +0.000 C 
ATOM     17  N   UNL     1       0.009  11.539  19.103  0.00  0.00    +0.000 NA
ATOM     18  C   UNL     1       1.483  11.482  19.175  0.00  0.00    +0.000 C 
ATOM     19  C   UNL     1       2.093  10.725  17.983  0.00  0.00    +0.000 C 
BRANCH  17  20
ATOM     20  C   UNL     1      -0.500  12.704  18.347  0.00  0.00    +0.000 C 
BRANCH  20  21
ATOM     21  C   UNL     1       0.222  14.002  18.745  0.00  0.00    +0.000 C 
BRANCH  21  22
ATOM     22  O   UNL     1      -0.622  15.114  18.574  0.00  0.00    +0.000 OA
ATOM     23  H   UNL     1      -0.843  15.440  19.486  0.00  0.00    +0.000 HD
ENDBRANCH  21  22
ENDBRANCH  20  21
ENDBRANCH  17  20
ENDBRANCH  13  14
ENDBRANCH   3  13
BRANCH   5  24
ATOM     24  O   UNL     1       2.694   3.651  19.392  0.00  0.00    +0.000 OA
BRANCH  24  25
ATOM     25  C   UNL     1       1.384   3.319  19.743  0.00  0.00    +0.000 C 
ATOM     26  C   UNL     1       0.811   2.257  18.795  0.00  0.00    +0.000 C 
ATOM     27  C   UNL     1       1.336   2.764  21.183  0.00  0.00    +0.000 C 
ENDBRANCH  24  25
ENDBRANCH   5  24
TORSDOF 10
ENDMDL
