MODEL 1
REMARK VINA RESULT:      -8.1      0.000      0.000
REMARK  Name = 
REMARK  9 active torsions:
REMARK  status: ('A' for Active; 'I' for Inactive)
REMARK    1  A    between atoms: C_1  and  O_2
REMARK    2  A    between atoms: O_2  and  N_3
REMARK    3  A    between atoms: C_4  and  C_5
REMARK    4  A    between atoms: C_4  and  C_6
REMARK    5  A    between atoms: N_10  and  C_11
REMARK    6  A    between atoms: C_14  and  N_15
REMARK    7  A    between atoms: C_17  and  C_18
REMARK    8  A    between atoms: C_18  and  N_19
REMARK    9  A    between atoms: C_20  and  C_21
REMARK                            x       y       z     vdW  Elec       q    Type
REMARK                         _______ _______ _______ _____ _____    ______ ____
ROOT
ATOM      1  C   UNL     1       1.220   9.088  19.581  0.00  0.00    +0.000 A 
ATOM      2  C   UNL     1       1.723   9.033  18.273  0.00  0.00    +0.000 A 
ATOM      3  C   UNL     1       2.509   7.958  17.818  0.00  0.00    +0.000 A 
ATOM      4  C   UNL     1       2.826   6.884  18.656  0.00  0.00    +0.000 A 
ATOM      5  C   UNL     1       2.301   6.905  19.948  0.00  0.00    +0.000 A 
ATOM      6  C   UNL     1       1.530   7.986  20.393  0.00  0.00    +0.000 A 
ATOM      7  F   UNL     1       1.129   7.950  21.676  0.00  0.00    +0.000 F 
ENDROOT
BRANCH   1  12
ATOM      8  C   UNL     1      -0.460  14.167  20.314  0.00  0.00    +0.000 C 
ATOM      9  C   UNL     1       0.183  13.036  19.964  0.00  0.00    +0.000 C 
ATOM     10  C   UNL     1       1.304  12.357  20.718  0.00  0.00    +0.000 C 
ATOM     11  C   UNL     1       0.814  10.974  21.159  0.00  0.00    +0.000 C 
ATOM     12  N   UNL     1       0.441  10.160  19.988  0.00  0.00    +0.000 N 
ATOM     13  C   UNL     1      -0.554  10.761  19.077  0.00  0.00    +0.000 C 
ATOM     14  C   UNL     1      -0.213  12.231  18.736  0.00  0.00    +0.000 C 
BRANCH   8  16
ATOM     15  N   UNL     1      -0.243  14.520  22.729  0.00  0.00    +0.000 NA
ATOM     16  C   UNL     1      -0.213  15.021  21.529  0.00  0.00    +0.000 C 
ATOM     17  C   UNL     1      -0.013  16.494  21.227  0.00  0.00    +0.000 C 
BRANCH  15  19
ATOM     18  C   UNL     1      -1.095  15.508  24.628  0.00  0.00    +0.000 C 
ATOM     19  O   UNL     1      -0.016  15.505  23.703  0.00  0.00    +0.000 OA
ENDBRANCH  15  19
ENDBRANCH   8  16
ENDBRANCH   1  12
BRANCH   4  20
ATOM     20  N   UNL     1       3.654   5.817  18.223  0.00  0.00    +0.000 N 
ATOM     21  C   UNL     1       5.081   5.914  18.112  0.00  0.00    +0.000 C 
ATOM     22  C   UNL     1       5.500   4.491  17.802  0.00  0.00    +0.000 C 
ATOM     23  O   UNL     1       4.317   3.889  17.254  0.00  0.00    +0.000 OA
ATOM     24  C   UNL     1       3.231   4.630  17.643  0.00  0.00    +0.000 C 
ATOM     25  O   UNL     1       2.091   4.255  17.421  0.00  0.00    +0.000 OA
BRANCH  22  26
ATOM     26  C   UNL     1       6.636   4.432  16.781  0.00  0.00    +0.000 C 
BRANCH  26  27
ATOM     27  N   UNL     1       6.208   3.914  15.491  0.00  0.00    +0.000 N 
ATOM     28  C   UNL     1       6.718   4.401  14.310  0.00  0.00    +0.000 C 
ATOM     29  C   UNL     1       6.160   3.745  13.074  0.00  0.00    +0.000 C 
ATOM     30  O   UNL     1       7.544   5.304  14.260  0.00  0.00    +0.000 OA
ATOM     31  H   UNL     1       5.692   3.043  15.483  0.00  0.00    +0.000 HD
ENDBRANCH  26  27
ENDBRANCH  22  26
ENDBRANCH   4  20
TORSDOF 6
ENDMDL
MODEL 2
REMARK VINA RESULT:      -8.1      0.983      1.026
REMARK  Name = 
REMARK  9 active torsions:
REMARK  status: ('A' for Active; 'I' for Inactive)
REMARK    1  A    between atoms: C_1  and  O_2
REMARK    2  A    between atoms: O_2  and  N_3
REMARK    3  A    between atoms: C_4  and  C_5
REMARK    4  A    between atoms: C_4  and  C_6
REMARK    5  A    between atoms: N_10  and  C_11
REMARK    6  A    between atoms: C_14  and  N_15
REMARK    7  A    between atoms: C_17  and  C_18
REMARK    8  A    between atoms: C_18  and  N_19
REMARK    9  A    between atoms: C_20  and  C_21
REMARK                            x       y       z     vdW  Elec       q    Type
REMARK                         _______ _______ _______ _____ _____    ______ ____
ROOT
ATOM      1  C   UNL     1       1.245   9.211  19.505  0.00  0.00    +0.000 A 
ATOM      2  C   UNL     1       1.807   9.095  18.225  0.00  0.00    +0.000 A 
ATOM      3  C   UNL     1       2.568   7.978  17.841  0.00  0.00    +0.000 A 
ATOM      4  C   UNL     1       2.801   6.918  18.723  0.00  0.00    +0.000 A 
ATOM      5  C   UNL     1       2.216   7.000  19.987  0.00  0.00    +0.000 A 
ATOM      6  C   UNL     1       1.470   8.124  20.363  0.00  0.00    +0.000 A 
ATOM      7  F   UNL     1       1.007   8.143  21.625  0.00  0.00    +0.000 F 
ENDROOT
BRANCH   1  12
ATOM      8  C   UNL     1      -0.882  14.169  19.285  0.00  0.00    +0.000 C 
ATOM      9  C   UNL     1      -0.225  13.013  19.068  0.00  0.00    +0.000 C 
ATOM     10  C   UNL     1       1.183  12.673  19.499  0.00  0.00    +0.000 C 
ATOM     11  C   UNL     1       1.112  11.500  20.482  0.00  0.00    +0.000 C 
ATOM     12  N   UNL     1       0.491  10.326  19.841  0.00  0.00    +0.000 N 
ATOM     13  C   UNL     1      -0.842  10.545  19.247  0.00  0.00    +0.000 C 
ATOM     14  C   UNL     1      -0.887  11.828  18.383  0.00  0.00    +0.000 C 
BRANCH   8  16
ATOM     15  N   UNL     1      -0.508  15.534  21.286  0.00  0.00    +0.000 NA
ATOM     16  C   UNL     1      -0.370  15.391  20.000  0.00  0.00    +0.000 C 
ATOM     17  C   UNL     1       0.229  16.444  19.088  0.00  0.00    +0.000 C 
BRANCH  15  19
ATOM     18  C   UNL     1       1.013  16.517  22.710  0.00  0.00    +0.000 C 
ATOM     19  O   UNL     1       0.015  16.759  21.727  0.00  0.00    +0.000 OA
ENDBRANCH  15  19
ENDBRANCH   8  16
ENDBRANCH   1  12
BRANCH   4  20
ATOM     20  N   UNL     1       3.604   5.806  18.363  0.00  0.00    +0.000 N 
ATOM     21  C   UNL     1       5.038   5.840  18.327  0.00  0.00    +0.000 C 
ATOM     22  C   UNL     1       5.411   4.393  18.076  0.00  0.00    +0.000 C 
ATOM     23  O   UNL     1       4.235   3.826  17.479  0.00  0.00    +0.000 OA
ATOM     24  C   UNL     1       3.162   4.622  17.790  0.00  0.00    +0.000 C 
ATOM     25  O   UNL     1       2.020   4.289  17.516  0.00  0.00    +0.000 OA
BRANCH  22  26
ATOM     26  C   UNL     1       6.597   4.259  17.120  0.00  0.00    +0.000 C 
BRANCH  26  27
ATOM     27  N   UNL     1       6.204   3.809  15.794  0.00  0.00    +0.000 N 
ATOM     28  C   UNL     1       6.710   4.385  14.654  0.00  0.00    +0.000 C 
ATOM     29  C   UNL     1       6.191   3.789  13.371  0.00  0.00    +0.000 C 
ATOM     30  O   UNL     1       7.503   5.318  14.671  0.00  0.00    +0.000 OA
ATOM     31  H   UNL     1       5.719   2.922  15.725  0.00  0.00    +0.000 HD
ENDBRANCH  26  27
ENDBRANCH  22  26
ENDBRANCH   4  20
TORSDOF 6
ENDMDL
MODEL 3
REMARK VINA RESULT:      -8.0      1.778      2.194
REMARK  Name = 
REMARK  9 active torsions:
REMARK  status: ('A' for Active; 'I' for Inactive)
REMARK    1  A    between atoms: C_1  and  O_2
REMARK    2  A    between atoms: O_2  and  N_3
REMARK    3  A    between atoms: C_4  and  C_5
REMARK    4  A    between atoms: C_4  and  C_6
REMARK    5  A    between atoms: N_10  and  C_11
REMARK    6  A    between atoms: C_14  and  N_15
REMARK    7  A    between atoms: C_17  and  C_18
REMARK    8  A    between atoms: C_18  and  N_19
REMARK    9  A    between atoms: C_20  and  C_21
REMARK                            x       y       z     vdW  Elec       q    Type
REMARK                         _______ _______ _______ _____ _____    ______ ____
ROOT
ATOM      1  C   UNL     1       1.006   9.448  19.570  0.00  0.00    +0.000 A 
ATOM      2  C   UNL     1       1.248   8.450  20.526  0.00  0.00    +0.000 A 
ATOM      3  C   UNL     1       2.024   7.313  20.240  0.00  0.00    +0.000 A 
ATOM      4  C   UNL     1       2.600   7.123  18.979  0.00  0.00    +0.000 A 
ATOM      5  C   UNL     1       2.402   8.126  18.030  0.00  0.00    +0.000 A 
ATOM      6  C   UNL     1       1.616   9.248  18.322  0.00  0.00    +0.000 A 
ATOM      7  F   UNL     1       1.423  10.123  17.321  0.00  0.00    +0.000 F 
ENDROOT
BRANCH   1  12
ATOM      8  C   UNL     1      -0.681  13.885  22.142  0.00  0.00    +0.000 C 
ATOM      9  C   UNL     1      -0.023  12.796  21.701  0.00  0.00    +0.000 C 
ATOM     10  C   UNL     1      -0.189  11.374  22.187  0.00  0.00    +0.000 C 
ATOM     11  C   UNL     1      -0.709  10.527  21.021  0.00  0.00    +0.000 C 
ATOM     12  N   UNL     1       0.242  10.559  19.895  0.00  0.00    +0.000 N 
ATOM     13  C   UNL     1       0.609  11.900  19.398  0.00  0.00    +0.000 C 
ATOM     14  C   UNL     1       0.970  12.866  20.551  0.00  0.00    +0.000 C 
BRANCH   8  16
ATOM     15  N   UNL     1      -2.893  13.386  23.073  0.00  0.00    +0.000 NA
ATOM     16  C   UNL     1      -1.728  13.945  23.223  0.00  0.00    +0.000 C 
ATOM     17  C   UNL     1      -1.331  14.769  24.433  0.00  0.00    +0.000 C 
BRANCH  15  19
ATOM     18  C   UNL     1      -4.331  12.370  24.558  0.00  0.00    +0.000 C 
ATOM     19  O   UNL     1      -3.713  13.596  24.192  0.00  0.00    +0.000 OA
ENDBRANCH  15  19
ENDBRANCH   8  16
ENDBRANCH   1  12
BRANCH   4  20
ATOM     20  N   UNL     1       3.348   5.960  18.665  0.00  0.00    +0.000 N 
ATOM     21  C   UNL     1       4.777   5.885  18.762  0.00  0.00    +0.000 C 
ATOM     22  C   UNL     1       5.063   4.419  18.508  0.00  0.00    +0.000 C 
ATOM     23  O   UNL     1       3.909   3.956  17.790  0.00  0.00    +0.000 OA
ATOM     24  C   UNL     1       2.875   4.826  18.023  0.00  0.00    +0.000 C 
ATOM     25  O   UNL     1       1.742   4.586  17.635  0.00  0.00    +0.000 OA
BRANCH  22  26
ATOM     26  C   UNL     1       6.320   4.213  17.661  0.00  0.00    +0.000 C 
BRANCH  26  27
ATOM     27  N   UNL     1       6.020   3.828  16.291  0.00  0.00    +0.000 N 
ATOM     28  C   UNL     1       6.625   4.440  15.219  0.00  0.00    +0.000 C 
ATOM     29  C   UNL     1       6.193   3.912  13.876  0.00  0.00    +0.000 C 
ATOM     30  O   UNL     1       7.434   5.352  15.338  0.00  0.00    +0.000 OA
ATOM     31  H   UNL     1       5.523   2.958  16.146  0.00  0.00    +0.000 HD
ENDBRANCH  26  27
ENDBRANCH  22  26
ENDBRANCH   4  20
TORSDOF 6
ENDMDL
MODEL 4
REMARK VINA RESULT:      -8.0      1.909      2.197
REMARK  Name = 
REMARK  9 active torsions:
REMARK  status: ('A' for Active; 'I' for Inactive)
REMARK    1  A    between atoms: C_1  and  O_2
REMARK    2  A    between atoms: O_2  and  N_3
REMARK    3  A    between atoms: C_4  and  C_5
REMARK    4  A    between atoms: C_4  and  C_6
REMARK    5  A    between atoms: N_10  and  C_11
REMARK    6  A    between atoms: C_14  and  N_15
REMARK    7  A    between atoms: C_17  and  C_18
REMARK    8  A    between atoms: C_18  and  N_19
REMARK    9  A    between atoms: C_20  and  C_21
REMARK                            x       y       z     vdW  Elec       q    Type
REMARK                         _______ _______ _______ _____ _____    ______ ____
ROOT
ATOM      1  C   UNL     1       1.268   9.470  19.157  0.00  0.00    +0.000 A 
ATOM      2  C   UNL     1       1.782   9.247  17.871  0.00  0.00    +0.000 A 
ATOM      3  C   UNL     1       2.537   8.104  17.555  0.00  0.00    +0.000 A 
ATOM      4  C   UNL     1       2.811   7.124  18.516  0.00  0.00    +0.000 A 
ATOM      5  C   UNL     1       2.272   7.312  19.789  0.00  0.00    +0.000 A 
ATOM      6  C   UNL     1       1.533   8.461  20.095  0.00  0.00    +0.000 A 
ATOM      7  F   UNL     1       1.118   8.587  21.368  0.00  0.00    +0.000 F 
ENDROOT
BRANCH   1  12
ATOM      8  C   UNL     1      -1.301  13.334  21.917  0.00  0.00    +0.000 C 
ATOM      9  C   UNL     1      -0.574  12.276  21.511  0.00  0.00    +0.000 C 
ATOM     10  C   UNL     1      -1.065  10.861  21.303  0.00  0.00    +0.000 C 
ATOM     11  C   UNL     1      -0.897  10.510  19.821  0.00  0.00    +0.000 C 
ATOM     12  N   UNL     1       0.520  10.606  19.425  0.00  0.00    +0.000 N 
ATOM     13  C   UNL     1       1.178  11.900  19.696  0.00  0.00    +0.000 C 
ATOM     14  C   UNL     1       0.893  12.404  21.131  0.00  0.00    +0.000 C 
BRANCH   8  16
ATOM     15  N   UNL     1      -3.639  13.928  21.483  0.00  0.00    +0.000 NA
ATOM     16  C   UNL     1      -2.766  13.359  22.262  0.00  0.00    +0.000 C 
ATOM     17  C   UNL     1      -3.102  12.745  23.608  0.00  0.00    +0.000 C 
BRANCH  15  19
ATOM     18  C   UNL     1      -5.555  15.130  21.921  0.00  0.00    +0.000 C 
ATOM     19  O   UNL     1      -4.933  13.855  22.021  0.00  0.00    +0.000 OA
ENDBRANCH  15  19
ENDBRANCH   8  16
ENDBRANCH   1  12
BRANCH   4  20
ATOM     20  N   UNL     1       3.608   5.989  18.222  0.00  0.00    +0.000 N 
ATOM     21  C   UNL     1       5.041   6.017  18.172  0.00  0.00    +0.000 C 
ATOM     22  C   UNL     1       5.409   4.555  18.012  0.00  0.00    +0.000 C 
ATOM     23  O   UNL     1       4.226   3.954  17.463  0.00  0.00    +0.000 OA
ATOM     24  C   UNL     1       3.158   4.772  17.731  0.00  0.00    +0.000 C 
ATOM     25  O   UNL     1       2.013   4.425  17.488  0.00  0.00    +0.000 OA
BRANCH  22  26
ATOM     26  C   UNL     1       6.586   4.356  17.056  0.00  0.00    +0.000 C 
BRANCH  26  27
ATOM     27  N   UNL     1       6.171   3.907  15.737  0.00  0.00    +0.000 N 
ATOM     28  C   UNL     1       6.739   4.409  14.590  0.00  0.00    +0.000 C 
ATOM     29  C   UNL     1       6.185   3.827  13.315  0.00  0.00    +0.000 C 
ATOM     30  O   UNL     1       7.609   5.271  14.596  0.00  0.00    +0.000 OA
ATOM     31  H   UNL     1       5.613   3.063  15.682  0.00  0.00    +0.000 HD
ENDBRANCH  26  27
ENDBRANCH  22  26
ENDBRANCH   4  20
TORSDOF 6
ENDMDL
MODEL 5
REMARK VINA RESULT:      -8.0      1.116      1.414
REMARK  Name = 
REMARK  9 active torsions:
REMARK  status: ('A' for Active; 'I' for Inactive)
REMARK    1  A    between atoms: C_1  and  O_2
REMARK    2  A    between atoms: O_2  and  N_3
REMARK    3  A    between atoms: C_4  and  C_5
REMARK    4  A    between atoms: C_4  and  C_6
REMARK    5  A    between atoms: N_10  and  C_11
REMARK    6  A    between atoms: C_14  and  N_15
REMARK    7  A    between atoms: C_17  and  C_18
REMARK    8  A    between atoms: C_18  and  N_19
REMARK    9  A    between atoms: C_20  and  C_21
REMARK                            x       y       z     vdW  Elec       q    Type
REMARK                         _______ _______ _______ _____ _____    ______ ____
ROOT
ATOM      1  C   UNL     1       1.160   9.099  19.621  0.00  0.00    +0.000 A 
ATOM      2  C   UNL     1       1.442   8.039  20.495  0.00  0.00    +0.000 A 
ATOM      3  C   UNL     1       2.255   6.955  20.118  0.00  0.00    +0.000 A 
ATOM      4  C   UNL     1       2.829   6.884  18.845  0.00  0.00    +0.000 A 
ATOM      5  C   UNL     1       2.591   7.951  17.977  0.00  0.00    +0.000 A 
ATOM      6  C   UNL     1       1.769   9.018  18.359  0.00  0.00    +0.000 A 
ATOM      7  F   UNL     1       1.540   9.962  17.429  0.00  0.00    +0.000 F 
ENDROOT
BRANCH   1  12
ATOM      8  C   UNL     1      -1.052  14.019  19.846  0.00  0.00    +0.000 C 
ATOM      9  C   UNL     1      -0.357  12.907  19.539  0.00  0.00    +0.000 C 
ATOM     10  C   UNL     1       1.025  12.535  20.027  0.00  0.00    +0.000 C 
ATOM     11  C   UNL     1       0.910  11.250  20.854  0.00  0.00    +0.000 C 
ATOM     12  N   UNL     1       0.361  10.155  20.034  0.00  0.00    +0.000 N 
ATOM     13  C   UNL     1      -0.932  10.427  19.376  0.00  0.00    +0.000 C 
ATOM     14  C   UNL     1      -0.944  11.805  18.671  0.00  0.00    +0.000 C 
BRANCH   8  16
ATOM     15  N   UNL     1      -1.004  15.226  21.978  0.00  0.00    +0.000 NA
ATOM     16  C   UNL     1      -0.619  15.151  20.738  0.00  0.00    +0.000 C 
ATOM     17  C   UNL     1       0.220  16.208  20.044  0.00  0.00    +0.000 C 
BRANCH  15  19
ATOM     18  C   UNL     1      -1.577  17.089  23.207  0.00  0.00    +0.000 C 
ATOM     19  O   UNL     1      -0.503  16.378  22.605  0.00  0.00    +0.000 OA
ENDBRANCH  15  19
ENDBRANCH   8  16
ENDBRANCH   1  12
BRANCH   4  20
ATOM     20  N   UNL     1       3.615   5.776  18.438  0.00  0.00    +0.000 N 
ATOM     21  C   UNL     1       5.049   5.786  18.411  0.00  0.00    +0.000 C 
ATOM     22  C   UNL     1       5.398   4.346  18.096  0.00  0.00    +0.000 C 
ATOM     23  O   UNL     1       4.215   3.828  17.467  0.00  0.00    +0.000 OA
ATOM     24  C   UNL     1       3.156   4.628  17.809  0.00  0.00    +0.000 C 
ATOM     25  O   UNL     1       2.010   4.329  17.513  0.00  0.00    +0.000 OA
BRANCH  22  26
ATOM     26  C   UNL     1       6.587   4.234  17.141  0.00  0.00    +0.000 C 
BRANCH  26  27
ATOM     27  N   UNL     1       6.203   3.781  15.813  0.00  0.00    +0.000 N 
ATOM     28  C   UNL     1       6.679   4.389  14.675  0.00  0.00    +0.000 C 
ATOM     29  C   UNL     1       6.175   3.785  13.390  0.00  0.00    +0.000 C 
ATOM     30  O   UNL     1       7.434   5.353  14.697  0.00  0.00    +0.000 OA
ATOM     31  H   UNL     1       5.754   2.877  15.738  0.00  0.00    +0.000 HD
ENDBRANCH  26  27
ENDBRANCH  22  26
ENDBRANCH   4  20
TORSDOF 6
ENDMDL
MODEL 6
REMARK VINA RESULT:      -7.9      1.492      1.942
REMARK  Name = 
REMARK  9 active torsions:
REMARK  status: ('A' for Active; 'I' for Inactive)
REMARK    1  A    between atoms: C_1  and  O_2
REMARK    2  A    between atoms: O_2  and  N_3
REMARK    3  A    between atoms: C_4  and  C_5
REMARK    4  A    between atoms: C_4  and  C_6
REMARK    5  A    between atoms: N_10  and  C_11
REMARK    6  A    between atoms: C_14  and  N_15
REMARK    7  A    between atoms: C_17  and  C_18
REMARK    8  A    between atoms: C_18  and  N_19
REMARK    9  A    between atoms: C_20  and  C_21
REMARK                            x       y       z     vdW  Elec       q    Type
REMARK                         _______ _______ _______ _____ _____    ______ ____
ROOT
ATOM      1  C   UNL     1       1.151   9.266  19.628  0.00  0.00    +0.000 A 
ATOM      2  C   UNL     1       1.363   8.203  20.518  0.00  0.00    +0.000 A 
ATOM      3  C   UNL     1       2.134   7.079  20.171  0.00  0.00    +0.000 A 
ATOM      4  C   UNL     1       2.733   6.968  18.912  0.00  0.00    +0.000 A 
ATOM      5  C   UNL     1       2.565   8.035  18.029  0.00  0.00    +0.000 A 
ATOM      6  C   UNL     1       1.784   9.144  18.381  0.00  0.00    +0.000 A 
ATOM      7  F   UNL     1       1.621  10.087  17.438  0.00  0.00    +0.000 F 
ENDROOT
BRANCH   1  12
ATOM      8  C   UNL     1      -1.040  14.200  19.592  0.00  0.00    +0.000 C 
ATOM      9  C   UNL     1      -0.375  13.059  19.329  0.00  0.00    +0.000 C 
ATOM     10  C   UNL     1       1.047  12.725  19.718  0.00  0.00    +0.000 C 
ATOM     11  C   UNL     1       1.013  11.525  20.670  0.00  0.00    +0.000 C 
ATOM     12  N   UNL     1       0.392  10.361  20.012  0.00  0.00    +0.000 N 
ATOM     13  C   UNL     1      -0.958  10.579  19.455  0.00  0.00    +0.000 C 
ATOM     14  C   UNL     1      -1.038  11.884  18.627  0.00  0.00    +0.000 C 
BRANCH   8  16
ATOM     15  N   UNL     1       0.327  16.225  19.783  0.00  0.00    +0.000 NA
ATOM     16  C   UNL     1      -0.527  15.409  20.328  0.00  0.00    +0.000 C 
ATOM     17  C   UNL     1      -1.025  15.530  21.756  0.00  0.00    +0.000 C 
BRANCH  15  19
ATOM     18  C   UNL     1       2.076  17.525  20.530  0.00  0.00    +0.000 C 
ATOM     19  O   UNL     1       0.686  17.258  20.662  0.00  0.00    +0.000 OA
ENDBRANCH  15  19
ENDBRANCH   8  16
ENDBRANCH   1  12
BRANCH   4  20
ATOM     20  N   UNL     1       3.476   5.821  18.534  0.00  0.00    +0.000 N 
ATOM     21  C   UNL     1       4.908   5.750  18.583  0.00  0.00    +0.000 C 
ATOM     22  C   UNL     1       5.192   4.295  18.270  0.00  0.00    +0.000 C 
ATOM     23  O   UNL     1       4.017   3.850  17.574  0.00  0.00    +0.000 OA
ATOM     24  C   UNL     1       2.987   4.706  17.869  0.00  0.00    +0.000 C 
ATOM     25  O   UNL     1       1.843   4.474  17.511  0.00  0.00    +0.000 OA
BRANCH  22  26
ATOM     26  C   UNL     1       6.421   4.125  17.377  0.00  0.00    +0.000 C 
BRANCH  26  27
ATOM     27  N   UNL     1       6.080   3.761  16.011  0.00  0.00    +0.000 N 
ATOM     28  C   UNL     1       6.626   4.413  14.930  0.00  0.00    +0.000 C 
ATOM     29  C   UNL     1       6.158   3.900  13.593  0.00  0.00    +0.000 C 
ATOM     30  O   UNL     1       7.413   5.345  15.038  0.00  0.00    +0.000 OA
ATOM     31  H   UNL     1       5.603   2.879  15.866  0.00  0.00    +0.000 HD
ENDBRANCH  26  27
ENDBRANCH  22  26
ENDBRANCH   4  20
TORSDOF 6
ENDMDL
MODEL 7
REMARK VINA RESULT:      -7.9      1.152      1.475
REMARK  Name = 
REMARK  9 active torsions:
REMARK  status: ('A' for Active; 'I' for Inactive)
REMARK    1  A    between atoms: C_1  and  O_2
REMARK    2  A    between atoms: O_2  and  N_3
REMARK    3  A    between atoms: C_4  and  C_5
REMARK    4  A    between atoms: C_4  and  C_6
REMARK    5  A    between atoms: N_10  and  C_11
REMARK    6  A    between atoms: C_14  and  N_15
REMARK    7  A    between atoms: C_17  and  C_18
REMARK    8  A    between atoms: C_18  and  N_19
REMARK    9  A    between atoms: C_20  and  C_21
REMARK                            x       y       z     vdW  Elec       q    Type
REMARK                         _______ _______ _______ _____ _____    ______ ____
ROOT
ATOM      1  C   UNL     1       1.418   8.715  19.519  0.00  0.00    +0.000 A 
ATOM      2  C   UNL     1       1.786   7.531  20.174  0.00  0.00    +0.000 A 
ATOM      3  C   UNL     1       2.645   6.586  19.584  0.00  0.00    +0.000 A 
ATOM      4  C   UNL     1       3.179   6.786  18.307  0.00  0.00    +0.000 A 
ATOM      5  C   UNL     1       2.854   7.978  17.659  0.00  0.00    +0.000 A 
ATOM      6  C   UNL     1       1.988   8.905  18.251  0.00  0.00    +0.000 A 
ATOM      7  F   UNL     1       1.677   9.989  17.518  0.00  0.00    +0.000 F 
ENDROOT
BRANCH   1  12
ATOM      8  C   UNL     1      -0.987  13.385  20.768  0.00  0.00    +0.000 C 
ATOM      9  C   UNL     1      -0.248  12.392  20.238  0.00  0.00    +0.000 C 
ATOM     10  C   UNL     1       1.146  11.976  20.651  0.00  0.00    +0.000 C 
ATOM     11  C   UNL     1       1.079  10.541  21.182  0.00  0.00    +0.000 C 
ATOM     12  N   UNL     1       0.577   9.627  20.139  0.00  0.00    +0.000 N 
ATOM     13  C   UNL     1      -0.724   9.985  19.540  0.00  0.00    +0.000 C 
ATOM     14  C   UNL     1      -0.787  11.480  19.146  0.00  0.00    +0.000 C 
BRANCH   8  16
ATOM     15  N   UNL     1      -0.729  13.968  23.134  0.00  0.00    +0.000 NA
ATOM     16  C   UNL     1      -0.601  14.315  21.886  0.00  0.00    +0.000 C 
ATOM     17  C   UNL     1      -0.141  15.686  21.429  0.00  0.00    +0.000 C 
BRANCH  15  19
ATOM     18  C   UNL     1      -1.372  15.238  24.945  0.00  0.00    +0.000 C 
ATOM     19  O   UNL     1      -0.337  15.001  23.999  0.00  0.00    +0.000 OA
ENDBRANCH  15  19
ENDBRANCH   8  16
ENDBRANCH   1  12
BRANCH   4  20
ATOM     20  N   UNL     1       4.010   5.820  17.683  0.00  0.00    +0.000 N 
ATOM     21  C   UNL     1       5.308   6.116  17.149  0.00  0.00    +0.000 C 
ATOM     22  C   UNL     1       5.847   4.750  16.776  0.00  0.00    +0.000 C 
ATOM     23  O   UNL     1       4.671   3.939  16.625  0.00  0.00    +0.000 OA
ATOM     24  C   UNL     1       3.638   4.542  17.295  0.00  0.00    +0.000 C 
ATOM     25  O   UNL     1       2.560   3.987  17.435  0.00  0.00    +0.000 OA
BRANCH  22  26
ATOM     26  C   UNL     1       6.634   4.776  15.465  0.00  0.00    +0.000 C 
BRANCH  26  27
ATOM     27  N   UNL     1       6.010   3.983  14.418  0.00  0.00    +0.000 N 
ATOM     28  C   UNL     1       6.475   4.000  13.124  0.00  0.00    +0.000 C 
ATOM     29  C   UNL     1       5.707   3.116  12.175  0.00  0.00    +0.000 C 
ATOM     30  O   UNL     1       7.421   4.688  12.762  0.00  0.00    +0.000 OA
ATOM     31  H   UNL     1       5.367   3.254  14.701  0.00  0.00    +0.000 HD
ENDBRANCH  26  27
ENDBRANCH  22  26
ENDBRANCH   4  20
TORSDOF 6
ENDMDL
MODEL 8
REMARK VINA RESULT:      -7.9      1.140      1.561
REMARK  Name = 
REMARK  9 active torsions:
REMARK  status: ('A' for Active; 'I' for Inactive)
REMARK    1  A    between atoms: C_1  and  O_2
REMARK    2  A    between atoms: O_2  and  N_3
REMARK    3  A    between atoms: C_4  and  C_5
REMARK    4  A    between atoms: C_4  and  C_6
REMARK    5  A    between atoms: N_10  and  C_11
REMARK    6  A    between atoms: C_14  and  N_15
REMARK    7  A    between atoms: C_17  and  C_18
REMARK    8  A    between atoms: C_18  and  N_19
REMARK    9  A    between atoms: C_20  and  C_21
REMARK                            x       y       z     vdW  Elec       q    Type
REMARK                         _______ _______ _______ _____ _____    ______ ____
ROOT
ATOM      1  C   UNL     1       1.328   8.725  19.613  0.00  0.00    +0.000 A 
ATOM      2  C   UNL     1       1.610   7.558  20.339  0.00  0.00    +0.000 A 
ATOM      3  C   UNL     1       2.467   6.558  19.845  0.00  0.00    +0.000 A 
ATOM      4  C   UNL     1       3.087   6.683  18.597  0.00  0.00    +0.000 A 
ATOM      5  C   UNL     1       2.849   7.856  17.881  0.00  0.00    +0.000 A 
ATOM      6  C   UNL     1       1.983   8.839  18.377  0.00  0.00    +0.000 A 
ATOM      7  F   UNL     1       1.760   9.900  17.583  0.00  0.00    +0.000 F 
ENDROOT
BRANCH   1  12
ATOM      8  C   UNL     1      -0.875  13.550  20.623  0.00  0.00    +0.000 C 
ATOM      9  C   UNL     1      -0.150  12.508  20.173  0.00  0.00    +0.000 C 
ATOM     10  C   UNL     1       1.153  11.993  20.743  0.00  0.00    +0.000 C 
ATOM     11  C   UNL     1       0.923  10.565  21.246  0.00  0.00    +0.000 C 
ATOM     12  N   UNL     1       0.485   9.692  20.140  0.00  0.00    +0.000 N 
ATOM     13  C   UNL     1      -0.707  10.144  19.396  0.00  0.00    +0.000 C 
ATOM     14  C   UNL     1      -0.618  11.641  19.015  0.00  0.00    +0.000 C 
BRANCH   8  16
ATOM     15  N   UNL     1       0.133  15.537  21.642  0.00  0.00    +0.000 NA
ATOM     16  C   UNL     1      -0.560  14.447  21.790  0.00  0.00    +0.000 C 
ATOM     17  C   UNL     1      -1.047  13.925  23.128  0.00  0.00    +0.000 C 
BRANCH  15  19
ATOM     18  C   UNL     1      -0.118  17.539  22.754  0.00  0.00    +0.000 C 
ATOM     19  O   UNL     1       0.328  16.194  22.867  0.00  0.00    +0.000 OA
ENDBRANCH  15  19
ENDBRANCH   8  16
ENDBRANCH   1  12
BRANCH   4  20
ATOM     20  N   UNL     1       3.918   5.663  18.069  0.00  0.00    +0.000 N 
ATOM     21  C   UNL     1       5.319   5.832  17.816  0.00  0.00    +0.000 C 
ATOM     22  C   UNL     1       5.774   4.434  17.445  0.00  0.00    +0.000 C 
ATOM     23  O   UNL     1       4.572   3.779  17.010  0.00  0.00    +0.000 OA
ATOM     24  C   UNL     1       3.496   4.462  17.517  0.00  0.00    +0.000 C 
ATOM     25  O   UNL     1       2.359   4.033  17.404  0.00  0.00    +0.000 OA
BRANCH  22  26
ATOM     26  C   UNL     1       6.802   4.441  16.314  0.00  0.00    +0.000 C 
BRANCH  26  27
ATOM     27  N   UNL     1       6.301   3.833  15.092  0.00  0.00    +0.000 N 
ATOM     28  C   UNL     1       6.658   4.304  13.851  0.00  0.00    +0.000 C 
ATOM     29  C   UNL     1       6.043   3.550  12.699  0.00  0.00    +0.000 C 
ATOM     30  O   UNL     1       7.397   5.266  13.687  0.00  0.00    +0.000 OA
ATOM     31  H   UNL     1       5.860   2.924  15.167  0.00  0.00    +0.000 HD
ENDBRANCH  26  27
ENDBRANCH  22  26
ENDBRANCH   4  20
TORSDOF 6
ENDMDL
MODEL 9
REMARK VINA RESULT:      -7.9      0.958      1.138
REMARK  Name = 
REMARK  9 active torsions:
REMARK  status: ('A' for Active; 'I' for Inactive)
REMARK    1  A    between atoms: C_1  and  O_2
REMARK    2  A    between atoms: O_2  and  N_3
REMARK    3  A    between atoms: C_4  and  C_5
REMARK    4  A    between atoms: C_4  and  C_6
REMARK    5  A    between atoms: N_10  and  C_11
REMARK    6  A    between atoms: C_14  and  N_15
REMARK    7  A    between atoms: C_17  and  C_18
REMARK    8  A    between atoms: C_18  and  N_19
REMARK    9  A    between atoms: C_20  and  C_21
REMARK                            x       y       z     vdW  Elec       q    Type
REMARK                         _______ _______ _______ _____ _____    ______ ____
ROOT
ATOM      1  C   UNL     1       1.210   9.185  19.301  0.00  0.00    +0.000 A 
ATOM      2  C   UNL     1       1.828   9.037  18.051  0.00  0.00    +0.000 A 
ATOM      3  C   UNL     1       2.649   7.936  17.748  0.00  0.00    +0.000 A 
ATOM      4  C   UNL     1       2.888   6.927  18.687  0.00  0.00    +0.000 A 
ATOM      5  C   UNL     1       2.249   7.040  19.921  0.00  0.00    +0.000 A 
ATOM      6  C   UNL     1       1.443   8.147  20.216  0.00  0.00    +0.000 A 
ATOM      7  F   UNL     1       0.929   8.202  21.457  0.00  0.00    +0.000 F 
ENDROOT
BRANCH   1  12
ATOM      8  C   UNL     1      -0.474  13.913  21.291  0.00  0.00    +0.000 C 
ATOM      9  C   UNL     1       0.210  12.808  20.939  0.00  0.00    +0.000 C 
ATOM     10  C   UNL     1       0.287  11.504  21.700  0.00  0.00    +0.000 C 
ATOM     11  C   UNL     1      -0.334  10.406  20.830  0.00  0.00    +0.000 C 
ATOM     12  N   UNL     1       0.399  10.280  19.557  0.00  0.00    +0.000 N 
ATOM     13  C   UNL     1       0.525  11.518  18.761  0.00  0.00    +0.000 C 
ATOM     14  C   UNL     1       0.975  12.719  19.627  0.00  0.00    +0.000 C 
BRANCH   8  16
ATOM     15  N   UNL     1      -0.781  14.352  23.682  0.00  0.00    +0.000 NA
ATOM     16  C   UNL     1      -1.317  14.113  22.522  0.00  0.00    +0.000 C 
ATOM     17  C   UNL     1      -2.806  13.930  22.296  0.00  0.00    +0.000 C 
BRANCH  15  19
ATOM     18  C   UNL     1      -1.492  15.635  25.459  0.00  0.00    +0.000 C 
ATOM     19  O   UNL     1      -1.754  14.472  24.686  0.00  0.00    +0.000 OA
ENDBRANCH  15  19
ENDBRANCH   8  16
ENDBRANCH   1  12
BRANCH   4  20
ATOM     20  N   UNL     1       3.750   5.835  18.409  0.00  0.00    +0.000 N 
ATOM     21  C   UNL     1       5.174   5.958  18.293  0.00  0.00    +0.000 C 
ATOM     22  C   UNL     1       5.636   4.518  18.184  0.00  0.00    +0.000 C 
ATOM     23  O   UNL     1       4.476   3.813  17.717  0.00  0.00    +0.000 OA
ATOM     24  C   UNL     1       3.366   4.568  17.995  0.00  0.00    +0.000 C 
ATOM     25  O   UNL     1       2.239   4.133  17.821  0.00  0.00    +0.000 OA
BRANCH  22  26
ATOM     26  C   UNL     1       6.783   4.353  17.186  0.00  0.00    +0.000 C 
BRANCH  26  27
ATOM     27  N   UNL     1       6.336   3.869  15.890  0.00  0.00    +0.000 N 
ATOM     28  C   UNL     1       6.757   4.450  14.717  0.00  0.00    +0.000 C 
ATOM     29  C   UNL     1       6.193   3.817  13.471  0.00  0.00    +0.000 C 
ATOM     30  O   UNL     1       7.512   5.414  14.680  0.00  0.00    +0.000 OA
ATOM     31  H   UNL     1       5.884   2.963  15.857  0.00  0.00    +0.000 HD
ENDBRANCH  26  27
ENDBRANCH  22  26
ENDBRANCH   4  20
TORSDOF 6
ENDMDL
