MODEL 1
REMARK VINA RESULT:      -8.0      0.000      0.000
REMARK  Name = 
REMARK  4 active torsions:
REMARK  status: ('A' for Active; 'I' for Inactive)
REMARK    1  A    between atoms: C_1  and  C_2
REMARK    2  A    between atoms: C_5  and  C_6
REMARK    3  A    between atoms: C_14  and  C_15
REMARK    4  A    between atoms: C_15  and  C_17
REMARK                            x       y       z     vdW  Elec       q    Type
REMARK                         _______ _______ _______ _____ _____    ______ ____
ROOT
ATOM      1  C   UNL     1       1.925   2.511  21.404  0.00  0.00    +0.000 C 
ATOM      2  C   UNL     1       3.028   2.942  20.516  0.00  0.00    +0.000 A 
ATOM      3  O   UNL     1       4.219   2.341  20.752  0.00  0.00    +0.000 OA
ATOM      4  N   UNL     1       5.150   2.772  19.840  0.00  0.00    +0.000 NA
ATOM      5  C   UNL     1       4.516   3.614  19.007  0.00  0.00    +0.000 A 
ATOM      6  C   UNL     1       3.157   3.808  19.447  0.00  0.00    +0.000 A 
ENDROOT
BRANCH   5   7
ATOM      7  C   UNL     1       5.221   4.220  17.872  0.00  0.00    +0.000 A 
ATOM      8  C   UNL     1       4.792   3.939  16.567  0.00  0.00    +0.000 A 
ATOM      9  F   UNL     1       3.691   3.199  16.355  0.00  0.00    +0.000 F 
ATOM     10  C   UNL     1       5.460   4.425  15.442  0.00  0.00    +0.000 A 
ATOM     11  C   UNL     1       6.560   5.259  15.598  0.00  0.00    +0.000 A 
ATOM     12  C   UNL     1       6.980   5.601  16.881  0.00  0.00    +0.000 A 
ATOM     13  C   UNL     1       6.328   5.080  18.012  0.00  0.00    +0.000 A 
ATOM     14 CL   UNL     1       6.999   5.538  19.544  0.00  0.00    +0.000 Cl
ENDBRANCH   5   7
BRANCH   6  15
ATOM     15  C   UNL     1       2.122   4.634  18.836  0.00  0.00    +0.000 C 
ATOM     16  O   UNL     1       1.272   4.131  18.107  0.00  0.00    +0.000 OA
BRANCH  15  17
ATOM     17  C   UNL     1       2.055   6.101  19.099  0.00  0.00    +0.000 A 
ATOM     18  C   UNL     1       2.366   6.968  18.040  0.00  0.00    +0.000 A 
ATOM     19  C   UNL     1       2.271   8.352  18.204  0.00  0.00    +0.000 A 
ATOM     20  C   UNL     1       1.870   8.881  19.428  0.00  0.00    +0.000 A 
ATOM     21  C   UNL     1       1.605   8.031  20.502  0.00  0.00    +0.000 A 
ATOM     22  C   UNL     1       1.721   6.645  20.346  0.00  0.00    +0.000 A 
ENDBRANCH  15  17
ENDBRANCH   6  15
TORSDOF 3
ENDMDL
MODEL 2
REMARK VINA RESULT:      -7.9      2.653      5.445
REMARK  Name = 
REMARK  4 active torsions:
REMARK  status: ('A' for Active; 'I' for Inactive)
REMARK    1  A    between atoms: C_1  and  C_2
REMARK    2  A    between atoms: C_5  and  C_6
REMARK    3  A    between atoms: C_14  and  C_15
REMARK    4  A    between atoms: C_15  and  C_17
REMARK                            x       y       z     vdW  Elec       q    Type
REMARK                         _______ _______ _______ _____ _____    ______ ____
ROOT
ATOM      1  C   UNL     1       7.943   6.709  18.376  0.00  0.00    +0.000 C 
ATOM      2  C   UNL     1       6.796   5.816  18.652  0.00  0.00    +0.000 A 
ATOM      3  O   UNL     1       6.816   5.221  19.869  0.00  0.00    +0.000 OA
ATOM      4  N   UNL     1       5.683   4.464  20.039  0.00  0.00    +0.000 NA
ATOM      5  C   UNL     1       4.939   4.627  18.933  0.00  0.00    +0.000 A 
ATOM      6  C   UNL     1       5.650   5.439  17.979  0.00  0.00    +0.000 A 
ENDROOT
BRANCH   5   7
ATOM      7  C   UNL     1       3.624   3.986  18.812  0.00  0.00    +0.000 A 
ATOM      8  C   UNL     1       3.468   2.896  17.944  0.00  0.00    +0.000 A 
ATOM      9  F   UNL     1       4.527   2.382  17.298  0.00  0.00    +0.000 F 
ATOM     10  C   UNL     1       2.230   2.287  17.729  0.00  0.00    +0.000 A 
ATOM     11  C   UNL     1       1.113   2.725  18.427  0.00  0.00    +0.000 A 
ATOM     12  C   UNL     1       1.244   3.772  19.337  0.00  0.00    +0.000 A 
ATOM     13  C   UNL     1       2.484   4.409  19.524  0.00  0.00    +0.000 A 
ATOM     14 CL   UNL     1       2.486   5.737  20.638  0.00  0.00    +0.000 Cl
ENDBRANCH   5   7
BRANCH   6  15
ATOM     15  C   UNL     1       5.211   5.865  16.655  0.00  0.00    +0.000 C 
ATOM     16  O   UNL     1       4.397   6.775  16.531  0.00  0.00    +0.000 OA
BRANCH  15  17
ATOM     17  C   UNL     1       5.754   5.224  15.422  0.00  0.00    +0.000 A 
ATOM     18  C   UNL     1       4.912   4.354  14.712  0.00  0.00    +0.000 A 
ATOM     19  C   UNL     1       5.341   3.764  13.522  0.00  0.00    +0.000 A 
ATOM     20  C   UNL     1       6.616   4.033  13.032  0.00  0.00    +0.000 A 
ATOM     21  C   UNL     1       7.480   4.857  13.753  0.00  0.00    +0.000 A 
ATOM     22  C   UNL     1       7.060   5.432  14.958  0.00  0.00    +0.000 A 
ENDBRANCH  15  17
ENDBRANCH   6  15
TORSDOF 3
ENDMDL
MODEL 3
REMARK VINA RESULT:      -7.8      2.269      2.904
REMARK  Name = 
REMARK  4 active torsions:
REMARK  status: ('A' for Active; 'I' for Inactive)
REMARK    1  A    between atoms: C_1  and  C_2
REMARK    2  A    between atoms: C_5  and  C_6
REMARK    3  A    between atoms: C_14  and  C_15
REMARK    4  A    between atoms: C_15  and  C_17
REMARK                            x       y       z     vdW  Elec       q    Type
REMARK                         _______ _______ _______ _____ _____    ______ ____
ROOT
ATOM      1  C   UNL     1       0.798   3.444  18.160  0.00  0.00    +0.000 C 
ATOM      2  C   UNL     1       2.212   3.845  17.985  0.00  0.00    +0.000 A 
ATOM      3  O   UNL     1       2.877   3.183  17.008  0.00  0.00    +0.000 OA
ATOM      4  N   UNL     1       4.154   3.672  16.897  0.00  0.00    +0.000 NA
ATOM      5  C   UNL     1       4.265   4.674  17.784  0.00  0.00    +0.000 A 
ATOM      6  C   UNL     1       3.054   4.778  18.559  0.00  0.00    +0.000 A 
ENDROOT
BRANCH   5   7
ATOM      7  C   UNL     1       5.504   5.453  17.887  0.00  0.00    +0.000 A 
ATOM      8  C   UNL     1       6.366   5.234  18.971  0.00  0.00    +0.000 A 
ATOM      9  F   UNL     1       6.111   4.259  19.859  0.00  0.00    +0.000 F 
ATOM     10  C   UNL     1       7.524   5.989  19.166  0.00  0.00    +0.000 A 
ATOM     11  C   UNL     1       7.881   6.959  18.239  0.00  0.00    +0.000 A 
ATOM     12  C   UNL     1       7.074   7.166  17.122  0.00  0.00    +0.000 A 
ATOM     13  C   UNL     1       5.889   6.430  16.948  0.00  0.00    +0.000 A 
ATOM     14 CL   UNL     1       4.952   6.838  15.548  0.00  0.00    +0.000 Cl
ENDBRANCH   5   7
BRANCH   6  15
ATOM     15  C   UNL     1       2.745   5.726  19.622  0.00  0.00    +0.000 C 
ATOM     16  O   UNL     1       2.898   5.415  20.800  0.00  0.00    +0.000 OA
BRANCH  15  17
ATOM     17  C   UNL     1       2.260   7.102  19.308  0.00  0.00    +0.000 A 
ATOM     18  C   UNL     1       1.617   7.817  20.330  0.00  0.00    +0.000 A 
ATOM     19  C   UNL     1       1.187   9.128  20.118  0.00  0.00    +0.000 A 
ATOM     20  C   UNL     1       1.391   9.735  18.882  0.00  0.00    +0.000 A 
ATOM     21  C   UNL     1       1.986   9.019  17.843  0.00  0.00    +0.000 A 
ATOM     22  C   UNL     1       2.397   7.696  18.047  0.00  0.00    +0.000 A 
ENDBRANCH  15  17
ENDBRANCH   6  15
TORSDOF 3
ENDMDL
MODEL 4
REMARK VINA RESULT:      -7.7      2.223      2.683
REMARK  Name = 
REMARK  4 active torsions:
REMARK  status: ('A' for Active; 'I' for Inactive)
REMARK    1  A    between atoms: C_1  and  C_2
REMARK    2  A    between atoms: C_5  and  C_6
REMARK    3  A    between atoms: C_14  and  C_15
REMARK    4  A    between atoms: C_15  and  C_17
REMARK                            x       y       z     vdW  Elec       q    Type
REMARK                         _______ _______ _______ _____ _____    ______ ____
ROOT
ATOM      1  C   UNL     1       0.947   3.192  18.334  0.00  0.00    +0.000 C 
ATOM      2  C   UNL     1       2.331   3.666  18.112  0.00  0.00    +0.000 A 
ATOM      3  O   UNL     1       2.997   3.038  17.114  0.00  0.00    +0.000 OA
ATOM      4  N   UNL     1       4.243   3.593  16.962  0.00  0.00    +0.000 NA
ATOM      5  C   UNL     1       4.330   4.601  17.845  0.00  0.00    +0.000 A 
ATOM      6  C   UNL     1       3.142   4.642  18.659  0.00  0.00    +0.000 A 
ENDROOT
BRANCH   5   7
ATOM      7  C   UNL     1       5.529   5.444  17.907  0.00  0.00    +0.000 A 
ATOM      8  C   UNL     1       6.408   5.311  18.992  0.00  0.00    +0.000 A 
ATOM      9  F   UNL     1       6.207   4.361  19.920  0.00  0.00    +0.000 F 
ATOM     10  C   UNL     1       7.528   6.129  19.148  0.00  0.00    +0.000 A 
ATOM     11  C   UNL     1       7.831   7.079  18.181  0.00  0.00    +0.000 A 
ATOM     12  C   UNL     1       7.008   7.201  17.063  0.00  0.00    +0.000 A 
ATOM     13  C   UNL     1       5.859   6.401  16.927  0.00  0.00    +0.000 A 
ATOM     14 CL   UNL     1       4.895   6.706  15.520  0.00  0.00    +0.000 Cl
ENDBRANCH   5   7
BRANCH   6  15
ATOM     15  C   UNL     1       2.818   5.575  19.732  0.00  0.00    +0.000 C 
ATOM     16  O   UNL     1       2.965   5.249  20.907  0.00  0.00    +0.000 OA
BRANCH  15  17
ATOM     17  C   UNL     1       2.327   6.951  19.433  0.00  0.00    +0.000 A 
ATOM     18  C   UNL     1       2.471   7.424  18.119  0.00  0.00    +0.000 A 
ATOM     19  C   UNL     1       1.983   8.683  17.760  0.00  0.00    +0.000 A 
ATOM     20  C   UNL     1       1.352   9.481  18.710  0.00  0.00    +0.000 A 
ATOM     21  C   UNL     1       1.246   9.042  20.030  0.00  0.00    +0.000 A 
ATOM     22  C   UNL     1       1.754   7.791  20.397  0.00  0.00    +0.000 A 
ENDBRANCH  15  17
ENDBRANCH   6  15
TORSDOF 3
ENDMDL
MODEL 5
REMARK VINA RESULT:      -7.7      0.307      1.068
REMARK  Name = 
REMARK  4 active torsions:
REMARK  status: ('A' for Active; 'I' for Inactive)
REMARK    1  A    between atoms: C_1  and  C_2
REMARK    2  A    between atoms: C_5  and  C_6
REMARK    3  A    between atoms: C_14  and  C_15
REMARK    4  A    between atoms: C_15  and  C_17
REMARK                            x       y       z     vdW  Elec       q    Type
REMARK                         _______ _______ _______ _____ _____    ______ ____
ROOT
ATOM      1  C   UNL     1       1.668   2.590  20.965  0.00  0.00    +0.000 C 
ATOM      2  C   UNL     1       2.856   3.007  20.189  0.00  0.00    +0.000 A 
ATOM      3  O   UNL     1       4.011   2.389  20.535  0.00  0.00    +0.000 OA
ATOM      4  N   UNL     1       5.030   2.809  19.718  0.00  0.00    +0.000 NA
ATOM      5  C   UNL     1       4.491   3.662  18.832  0.00  0.00    +0.000 A 
ATOM      6  C   UNL     1       3.099   3.874  19.140  0.00  0.00    +0.000 A 
ENDROOT
BRANCH   5   7
ATOM      7  C   UNL     1       5.310   4.261  17.772  0.00  0.00    +0.000 A 
ATOM      8  C   UNL     1       4.996   4.001  16.430  0.00  0.00    +0.000 A 
ATOM      9  F   UNL     1       3.903   3.287  16.111  0.00  0.00    +0.000 F 
ATOM     10  C   UNL     1       5.775   4.481  15.376  0.00  0.00    +0.000 A 
ATOM     11  C   UNL     1       6.874   5.288  15.640  0.00  0.00    +0.000 A 
ATOM     12  C   UNL     1       7.183   5.610  16.960  0.00  0.00    +0.000 A 
ATOM     13  C   UNL     1       6.418   5.094  18.021  0.00  0.00    +0.000 A 
ATOM     14 CL   UNL     1       6.956   5.525  19.612  0.00  0.00    +0.000 Cl
ENDBRANCH   5   7
BRANCH   6  15
ATOM     15  C   UNL     1       2.139   4.716  18.436  0.00  0.00    +0.000 C 
ATOM     16  O   UNL     1       1.391   4.235  17.590  0.00  0.00    +0.000 OA
BRANCH  15  17
ATOM     17  C   UNL     1       2.025   6.172  18.741  0.00  0.00    +0.000 A 
ATOM     18  C   UNL     1       1.761   6.542  20.069  0.00  0.00    +0.000 A 
ATOM     19  C   UNL     1       1.695   7.889  20.431  0.00  0.00    +0.000 A 
ATOM     20  C   UNL     1       1.887   8.878  19.470  0.00  0.00    +0.000 A 
ATOM     21  C   UNL     1       2.103   8.523  18.138  0.00  0.00    +0.000 A 
ATOM     22  C   UNL     1       2.147   7.173  17.769  0.00  0.00    +0.000 A 
ENDBRANCH  15  17
ENDBRANCH   6  15
TORSDOF 3
ENDMDL
MODEL 6
REMARK VINA RESULT:      -7.5      2.670      5.538
REMARK  Name = 
REMARK  4 active torsions:
REMARK  status: ('A' for Active; 'I' for Inactive)
REMARK    1  A    between atoms: C_1  and  C_2
REMARK    2  A    between atoms: C_5  and  C_6
REMARK    3  A    between atoms: C_14  and  C_15
REMARK    4  A    between atoms: C_15  and  C_17
REMARK                            x       y       z     vdW  Elec       q    Type
REMARK                         _______ _______ _______ _____ _____    ______ ____
ROOT
ATOM      1  C   UNL     1       7.948   7.133  17.930  0.00  0.00    +0.000 C 
ATOM      2  C   UNL     1       6.850   6.201  18.270  0.00  0.00    +0.000 A 
ATOM      3  O   UNL     1       6.916   5.670  19.515  0.00  0.00    +0.000 OA
ATOM      4  N   UNL     1       5.824   4.870  19.742  0.00  0.00    +0.000 NA
ATOM      5  C   UNL     1       5.055   4.942  18.643  0.00  0.00    +0.000 A 
ATOM      6  C   UNL     1       5.713   5.738  17.637  0.00  0.00    +0.000 A 
ENDROOT
BRANCH   5   7
ATOM      7  C   UNL     1       3.771   4.235  18.577  0.00  0.00    +0.000 A 
ATOM      8  C   UNL     1       3.662   3.079  17.792  0.00  0.00    +0.000 A 
ATOM      9  F   UNL     1       4.742   2.567  17.178  0.00  0.00    +0.000 F 
ATOM     10  C   UNL     1       2.454   2.400  17.630  0.00  0.00    +0.000 A 
ATOM     11  C   UNL     1       1.319   2.837  18.301  0.00  0.00    +0.000 A 
ATOM     12  C   UNL     1       1.405   3.952  19.131  0.00  0.00    +0.000 A 
ATOM     13  C   UNL     1       2.615   4.656  19.263  0.00  0.00    +0.000 A 
ATOM     14 CL   UNL     1       2.559   6.061  20.277  0.00  0.00    +0.000 Cl
ENDBRANCH   5   7
BRANCH   6  15
ATOM     15  C   UNL     1       5.233   6.075  16.301  0.00  0.00    +0.000 C 
ATOM     16  O   UNL     1       4.451   7.007  16.137  0.00  0.00    +0.000 OA
BRANCH  15  17
ATOM     17  C   UNL     1       5.697   5.316  15.104  0.00  0.00    +0.000 A 
ATOM     18  C   UNL     1       6.991   5.575  14.627  0.00  0.00    +0.000 A 
ATOM     19  C   UNL     1       7.506   4.861  13.543  0.00  0.00    +0.000 A 
ATOM     20  C   UNL     1       6.730   3.885  12.922  0.00  0.00    +0.000 A 
ATOM     21  C   UNL     1       5.425   3.652  13.356  0.00  0.00    +0.000 A 
ATOM     22  C   UNL     1       4.900   4.382  14.429  0.00  0.00    +0.000 A 
ENDBRANCH  15  17
ENDBRANCH   6  15
TORSDOF 3
ENDMDL
MODEL 7
REMARK VINA RESULT:      -7.5      2.463      4.234
REMARK  Name = 
REMARK  4 active torsions:
REMARK  status: ('A' for Active; 'I' for Inactive)
REMARK    1  A    between atoms: C_1  and  C_2
REMARK    2  A    between atoms: C_5  and  C_6
REMARK    3  A    between atoms: C_14  and  C_15
REMARK    4  A    between atoms: C_15  and  C_17
REMARK                            x       y       z     vdW  Elec       q    Type
REMARK                         _______ _______ _______ _____ _____    ______ ____
ROOT
ATOM      1  C   UNL     1       7.307   6.578  18.281  0.00  0.00    +0.000 C 
ATOM      2  C   UNL     1       6.207   5.640  18.599  0.00  0.00    +0.000 A 
ATOM      3  O   UNL     1       6.569   4.566  19.342  0.00  0.00    +0.000 OA
ATOM      4  N   UNL     1       5.466   3.798  19.623  0.00  0.00    +0.000 NA
ATOM      5  C   UNL     1       4.409   4.426  19.083  0.00  0.00    +0.000 A 
ATOM      6  C   UNL     1       4.849   5.586  18.351  0.00  0.00    +0.000 A 
ENDROOT
BRANCH   5   7
ATOM      7  C   UNL     1       3.053   3.888  19.246  0.00  0.00    +0.000 A 
ATOM      8  C   UNL     1       2.434   3.956  20.502  0.00  0.00    +0.000 A 
ATOM      9  F   UNL     1       3.033   4.588  21.525  0.00  0.00    +0.000 F 
ATOM     10  C   UNL     1       1.176   3.401  20.743  0.00  0.00    +0.000 A 
ATOM     11  C   UNL     1       0.474   2.802  19.706  0.00  0.00    +0.000 A 
ATOM     12  C   UNL     1       1.038   2.764  18.432  0.00  0.00    +0.000 A 
ATOM     13  C   UNL     1       2.321   3.291  18.201  0.00  0.00    +0.000 A 
ATOM     14 CL   UNL     1       2.924   3.117  16.585  0.00  0.00    +0.000 Cl
ENDBRANCH   5   7
BRANCH   6  15
ATOM     15  C   UNL     1       4.036   6.550  17.619  0.00  0.00    +0.000 C 
ATOM     16  O   UNL     1       4.134   6.650  16.399  0.00  0.00    +0.000 OA
BRANCH  15  17
ATOM     17  C   UNL     1       3.050   7.419  18.326  0.00  0.00    +0.000 A 
ATOM     18  C   UNL     1       2.531   8.520  17.627  0.00  0.00    +0.000 A 
ATOM     19  C   UNL     1       1.566   9.342  18.212  0.00  0.00    +0.000 A 
ATOM     20  C   UNL     1       1.114   9.074  19.502  0.00  0.00    +0.000 A 
ATOM     21  C   UNL     1       1.657   8.011  20.224  0.00  0.00    +0.000 A 
ATOM     22  C   UNL     1       2.641   7.200  19.648  0.00  0.00    +0.000 A 
ENDBRANCH  15  17
ENDBRANCH   6  15
TORSDOF 3
ENDMDL
MODEL 8
REMARK VINA RESULT:      -7.4      1.633      1.954
REMARK  Name = 
REMARK  4 active torsions:
REMARK  status: ('A' for Active; 'I' for Inactive)
REMARK    1  A    between atoms: C_1  and  C_2
REMARK    2  A    between atoms: C_5  and  C_6
REMARK    3  A    between atoms: C_14  and  C_15
REMARK    4  A    between atoms: C_15  and  C_17
REMARK                            x       y       z     vdW  Elec       q    Type
REMARK                         _______ _______ _______ _____ _____    ______ ____
ROOT
ATOM      1  C   UNL     1       1.710   2.385  20.720  0.00  0.00    +0.000 C 
ATOM      2  C   UNL     1       2.945   2.957  20.138  0.00  0.00    +0.000 A 
ATOM      3  O   UNL     1       4.094   2.359  20.533  0.00  0.00    +0.000 OA
ATOM      4  N   UNL     1       5.164   2.931  19.893  0.00  0.00    +0.000 NA
ATOM      5  C   UNL     1       4.667   3.863  19.063  0.00  0.00    +0.000 A 
ATOM      6  C   UNL     1       3.240   3.963  19.238  0.00  0.00    +0.000 A 
ENDROOT
BRANCH   5   7
ATOM      7  C   UNL     1       5.553   4.633  18.182  0.00  0.00    +0.000 A 
ATOM      8  C   UNL     1       6.490   5.510  18.747  0.00  0.00    +0.000 A 
ATOM      9  F   UNL     1       6.643   5.580  20.080  0.00  0.00    +0.000 F 
ATOM     10  C   UNL     1       7.313   6.324  17.966  0.00  0.00    +0.000 A 
ATOM     11  C   UNL     1       7.255   6.241  16.581  0.00  0.00    +0.000 A 
ATOM     12  C   UNL     1       6.372   5.340  15.988  0.00  0.00    +0.000 A 
ATOM     13  C   UNL     1       5.517   4.549  16.776  0.00  0.00    +0.000 A 
ATOM     14 CL   UNL     1       4.427   3.523  15.903  0.00  0.00    +0.000 Cl
ENDBRANCH   5   7
BRANCH   6  15
ATOM     15  C   UNL     1       2.308   4.840  18.539  0.00  0.00    +0.000 C 
ATOM     16  O   UNL     1       1.627   4.413  17.611  0.00  0.00    +0.000 OA
BRANCH  15  17
ATOM     17  C   UNL     1       2.141   6.265  18.946  0.00  0.00    +0.000 A 
ATOM     18  C   UNL     1       2.370   7.253  17.976  0.00  0.00    +0.000 A 
ATOM     19  C   UNL     1       2.179   8.603  18.278  0.00  0.00    +0.000 A 
ATOM     20  C   UNL     1       1.762   8.978  19.552  0.00  0.00    +0.000 A 
ATOM     21  C   UNL     1       1.578   8.010  20.539  0.00  0.00    +0.000 A 
ATOM     22  C   UNL     1       1.790   6.658  20.245  0.00  0.00    +0.000 A 
ENDBRANCH  15  17
ENDBRANCH   6  15
TORSDOF 3
ENDMDL
MODEL 9
REMARK VINA RESULT:      -7.3      2.467      4.322
REMARK  Name = 
REMARK  4 active torsions:
REMARK  status: ('A' for Active; 'I' for Inactive)
REMARK    1  A    between atoms: C_1  and  C_2
REMARK    2  A    between atoms: C_5  and  C_6
REMARK    3  A    between atoms: C_14  and  C_15
REMARK    4  A    between atoms: C_15  and  C_17
REMARK                            x       y       z     vdW  Elec       q    Type
REMARK                         _______ _______ _______ _____ _____    ______ ____
ROOT
ATOM      1  C   UNL     1       7.365   6.499  18.458  0.00  0.00    +0.000 C 
ATOM      2  C   UNL     1       6.243   5.579  18.749  0.00  0.00    +0.000 A 
ATOM      3  O   UNL     1       6.556   4.532  19.549  0.00  0.00    +0.000 OA
ATOM      4  N   UNL     1       5.435   3.781  19.797  0.00  0.00    +0.000 NA
ATOM      5  C   UNL     1       4.412   4.394  19.179  0.00  0.00    +0.000 A 
ATOM      6  C   UNL     1       4.900   5.525  18.431  0.00  0.00    +0.000 A 
ENDROOT
BRANCH   5   7
ATOM      7  C   UNL     1       3.046   3.871  19.289  0.00  0.00    +0.000 A 
ATOM      8  C   UNL     1       2.394   3.905  20.530  0.00  0.00    +0.000 A 
ATOM      9  F   UNL     1       2.974   4.493  21.589  0.00  0.00    +0.000 F 
ATOM     10  C   UNL     1       1.123   3.360  20.718  0.00  0.00    +0.000 A 
ATOM     11  C   UNL     1       0.441   2.806  19.643  0.00  0.00    +0.000 A 
ATOM     12  C   UNL     1       1.039   2.804  18.384  0.00  0.00    +0.000 A 
ATOM     13  C   UNL     1       2.334   3.320  18.205  0.00  0.00    +0.000 A 
ATOM     14 CL   UNL     1       2.977   3.192  16.600  0.00  0.00    +0.000 Cl
ENDBRANCH   5   7
BRANCH   6  15
ATOM     15  C   UNL     1       4.134   6.466  17.622  0.00  0.00    +0.000 C 
ATOM     16  O   UNL     1       4.316   6.538  16.410  0.00  0.00    +0.000 OA
BRANCH  15  17
ATOM     17  C   UNL     1       3.099   7.345  18.239  0.00  0.00    +0.000 A 
ATOM     18  C   UNL     1       2.699   7.060  19.553  0.00  0.00    +0.000 A 
ATOM     19  C   UNL     1       1.773   7.875  20.208  0.00  0.00    +0.000 A 
ATOM     20  C   UNL     1       1.235   8.980  19.553  0.00  0.00    +0.000 A 
ATOM     21  C   UNL     1       1.587   9.246  18.230  0.00  0.00    +0.000 A 
ATOM     22  C   UNL     1       2.498   8.417  17.565  0.00  0.00    +0.000 A 
ENDBRANCH  15  17
ENDBRANCH   6  15
TORSDOF 3
ENDMDL
