MODEL 1
REMARK VINA RESULT:      -8.9      0.000      0.000
REMARK  Name = 
REMARK  6 active torsions:
REMARK  status: ('A' for Active; 'I' for Inactive)
REMARK    1  A    between atoms: C_1  and  C_2
REMARK    2  A    between atoms: C_4  and  C_5
REMARK    3  A    between atoms: C_9  and  C_10
REMARK    4  A    between atoms: C_14  and  C_15
REMARK    5  A    between atoms: C_16  and  C_17
REMARK    6  A    between atoms: C_29  and  C_30
REMARK                            x       y       z     vdW  Elec       q    Type
REMARK                         _______ _______ _______ _____ _____    ______ ____
ROOT
ATOM      1  C   UNL     1      -0.426  10.109  20.461  0.00  0.00    +0.000 C 
ATOM      2  N   UNL     1      -0.995  11.254  20.205  0.00  0.00    +0.000 NA
ATOM      3  C   UNL     1      -1.944  11.804  21.107  0.00  0.00    +0.000 A 
ATOM      4  C   UNL     1      -3.023  12.503  20.548  0.00  0.00    +0.000 A 
ATOM      5  C   UNL     1      -4.032  13.099  21.342  0.00  0.00    +0.000 A 
ATOM      6  C   UNL     1      -5.122  13.884  20.665  0.00  0.00    +0.000 C 
ATOM      7  C   UNL     1      -3.973  12.967  22.741  0.00  0.00    +0.000 A 
ATOM      8  C   UNL     1      -2.830  12.380  23.313  0.00  0.00    +0.000 A 
ATOM      9  C   UNL     1      -1.837  11.797  22.521  0.00  0.00    +0.000 A 
ATOM     10  N   UNL     1      -0.791  11.176  23.231  0.00  0.00    +0.000 N 
ATOM     11  C   UNL     1      -0.174  10.014  22.862  0.00  0.00    +0.000 C 
ATOM     12  O   UNL     1       0.789   9.565  23.480  0.00  0.00    +0.000 OA
ATOM     13  C   UNL     1      -0.783   9.313  21.685  0.00  0.00    +0.000 C 
ATOM     14  H   UNL     1      -0.536  11.516  24.149  0.00  0.00    +0.000 HD
ENDROOT
BRANCH   1  19
ATOM     15  C   UNL     1       2.210   7.767  19.013  0.00  0.00    +0.000 A 
ATOM     16  C   UNL     1       2.696   8.569  17.960  0.00  0.00    +0.000 A 
ATOM     17  C   UNL     1       2.192   9.850  17.735  0.00  0.00    +0.000 A 
ATOM     18  C   UNL     1       1.185  10.344  18.549  0.00  0.00    +0.000 A 
ATOM     19  C   UNL     1       0.677   9.572  19.600  0.00  0.00    +0.000 A 
ATOM     20  C   UNL     1       1.186   8.292  19.825  0.00  0.00    +0.000 A 
BRANCH  15  24
ATOM     21  C   UNL     1       2.172   3.352  21.392  0.00  0.00    +0.000 C 
ATOM     22  C   UNL     1       2.756   4.290  20.380  0.00  0.00    +0.000 A 
ATOM     23  C   UNL     1       2.196   5.544  20.173  0.00  0.00    +0.000 A 
ATOM     24  C   UNL     1       2.774   6.421  19.246  0.00  0.00    +0.000 A 
ATOM     25  C   UNL     1       3.905   5.972  18.554  0.00  0.00    +0.000 A 
ATOM     26  C   UNL     1       4.395   4.691  18.792  0.00  0.00    +0.000 A 
ATOM     27  C   UNL     1       5.578   4.174  18.034  0.00  0.00    +0.000 C 
ATOM     28  N   UNL     1       3.839   3.855  19.698  0.00  0.00    +0.000 NA
ENDBRANCH  15  24
ENDBRANCH   1  19
BRANCH   7  29
ATOM     29  C   UNL     1      -5.085  13.355  23.695  0.00  0.00    +0.000 C 
ATOM     30  F   UNL     1      -6.333  12.944  23.339  0.00  0.00    +0.000 F 
ATOM     31  F   UNL     1      -4.875  12.841  24.943  0.00  0.00    +0.000 F 
ATOM     32  F   UNL     1      -5.172  14.705  23.865  0.00  0.00    +0.000 F 
ENDBRANCH   7  29
TORSDOF 3
ENDMDL
MODEL 2
REMARK VINA RESULT:      -8.9      0.127      1.497
REMARK  Name = 
REMARK  6 active torsions:
REMARK  status: ('A' for Active; 'I' for Inactive)
REMARK    1  A    between atoms: C_1  and  C_2
REMARK    2  A    between atoms: C_4  and  C_5
REMARK    3  A    between atoms: C_9  and  C_10
REMARK    4  A    between atoms: C_14  and  C_15
REMARK    5  A    between atoms: C_16  and  C_17
REMARK    6  A    between atoms: C_29  and  C_30
REMARK                            x       y       z     vdW  Elec       q    Type
REMARK                         _______ _______ _______ _____ _____    ______ ____
ROOT
ATOM      1  C   UNL     1      -0.426  10.141  20.463  0.00  0.00    +0.000 C 
ATOM      2  N   UNL     1      -1.001  11.288  20.228  0.00  0.00    +0.000 NA
ATOM      3  C   UNL     1      -1.952  11.817  21.139  0.00  0.00    +0.000 A 
ATOM      4  C   UNL     1      -3.035  12.520  20.593  0.00  0.00    +0.000 A 
ATOM      5  C   UNL     1      -4.047  13.097  21.397  0.00  0.00    +0.000 A 
ATOM      6  C   UNL     1      -5.142  13.888  20.734  0.00  0.00    +0.000 C 
ATOM      7  C   UNL     1      -3.987  12.941  22.794  0.00  0.00    +0.000 A 
ATOM      8  C   UNL     1      -2.841  12.350  23.355  0.00  0.00    +0.000 A 
ATOM      9  C   UNL     1      -1.846  11.786  22.552  0.00  0.00    +0.000 A 
ATOM     10  N   UNL     1      -0.796  11.158  23.252  0.00  0.00    +0.000 N 
ATOM     11  C   UNL     1      -0.173  10.006  22.862  0.00  0.00    +0.000 C 
ATOM     12  O   UNL     1       0.793   9.552  23.472  0.00  0.00    +0.000 OA
ATOM     13  C   UNL     1      -0.778   9.323  21.674  0.00  0.00    +0.000 C 
ATOM     14  H   UNL     1      -0.543  11.483  24.176  0.00  0.00    +0.000 HD
ENDROOT
BRANCH   1  19
ATOM     15  C   UNL     1       2.202   7.829  18.955  0.00  0.00    +0.000 A 
ATOM     16  C   UNL     1       2.704   8.664  17.935  0.00  0.00    +0.000 A 
ATOM     17  C   UNL     1       2.214   9.957  17.752  0.00  0.00    +0.000 A 
ATOM     18  C   UNL     1       1.203  10.431  18.574  0.00  0.00    +0.000 A 
ATOM     19  C   UNL     1       0.680   9.626  19.593  0.00  0.00    +0.000 A 
ATOM     20  C   UNL     1       1.176   8.334  19.776  0.00  0.00    +0.000 A 
BRANCH  15  24
ATOM     21  C   UNL     1       5.390   4.175  17.675  0.00  0.00    +0.000 C 
ATOM     22  C   UNL     1       4.290   4.710  18.540  0.00  0.00    +0.000 A 
ATOM     23  C   UNL     1       3.802   5.997  18.347  0.00  0.00    +0.000 A 
ATOM     24  C   UNL     1       2.752   6.470  19.144  0.00  0.00    +0.000 A 
ATOM     25  C   UNL     1       2.244   5.606  20.121  0.00  0.00    +0.000 A 
ATOM     26  C   UNL     1       2.801   4.339  20.277  0.00  0.00    +0.000 A 
ATOM     27  C   UNL     1       2.303   3.413  21.342  0.00  0.00    +0.000 C 
ATOM     28  N   UNL     1       3.807   3.885  19.496  0.00  0.00    +0.000 NA
ENDBRANCH  15  24
ENDBRANCH   1  19
BRANCH   7  29
ATOM     29  C   UNL     1      -5.101  13.306  23.754  0.00  0.00    +0.000 C 
ATOM     30  F   UNL     1      -6.351  12.922  23.376  0.00  0.00    +0.000 F 
ATOM     31  F   UNL     1      -4.905  12.745  24.984  0.00  0.00    +0.000 F 
ATOM     32  F   UNL     1      -5.175  14.650  23.972  0.00  0.00    +0.000 F 
ENDBRANCH   7  29
TORSDOF 3
ENDMDL
MODEL 3
REMARK VINA RESULT:      -8.7      5.029      9.705
REMARK  Name = 
REMARK  6 active torsions:
REMARK  status: ('A' for Active; 'I' for Inactive)
REMARK    1  A    between atoms: C_1  and  C_2
REMARK    2  A    between atoms: C_4  and  C_5
REMARK    3  A    between atoms: C_9  and  C_10
REMARK    4  A    between atoms: C_14  and  C_15
REMARK    5  A    between atoms: C_16  and  C_17
REMARK    6  A    between atoms: C_29  and  C_30
REMARK                            x       y       z     vdW  Elec       q    Type
REMARK                         _______ _______ _______ _____ _____    ______ ____
ROOT
ATOM      1  C   UNL     1       0.849   9.403  19.848  0.00  0.00    +0.000 C 
ATOM      2  N   UNL     1       1.360   8.452  20.580  0.00  0.00    +0.000 NA
ATOM      3  C   UNL     1       1.845   7.262  19.977  0.00  0.00    +0.000 A 
ATOM      4  C   UNL     1       1.655   6.067  20.684  0.00  0.00    +0.000 A 
ATOM      5  C   UNL     1       2.097   4.816  20.191  0.00  0.00    +0.000 A 
ATOM      6  C   UNL     1       1.908   3.590  21.041  0.00  0.00    +0.000 C 
ATOM      7  C   UNL     1       2.726   4.757  18.934  0.00  0.00    +0.000 A 
ATOM      8  C   UNL     1       3.034   5.963  18.279  0.00  0.00    +0.000 A 
ATOM      9  C   UNL     1       2.596   7.194  18.777  0.00  0.00    +0.000 A 
ATOM     10  N   UNL     1       2.909   8.309  17.975  0.00  0.00    +0.000 N 
ATOM     11  C   UNL     1       2.090   9.385  17.776  0.00  0.00    +0.000 C 
ATOM     12  O   UNL     1       2.454  10.367  17.131  0.00  0.00    +0.000 OA
ATOM     13  C   UNL     1       0.715   9.259  18.358  0.00  0.00    +0.000 C 
ATOM     14  H   UNL     1       3.734   8.293  17.391  0.00  0.00    +0.000 HD
ENDROOT
BRANCH   1  19
ATOM     15  C   UNL     1      -1.225  12.161  21.468  0.00  0.00    +0.000 A 
ATOM     16  C   UNL     1      -0.243  13.167  21.584  0.00  0.00    +0.000 A 
ATOM     17  C   UNL     1       1.059  12.963  21.129  0.00  0.00    +0.000 A 
ATOM     18  C   UNL     1       1.406  11.744  20.565  0.00  0.00    +0.000 A 
ATOM     19  C   UNL     1       0.457  10.723  20.440  0.00  0.00    +0.000 A 
ATOM     20  C   UNL     1      -0.847  10.933  20.893  0.00  0.00    +0.000 A 
BRANCH  15  24
ATOM     21  C   UNL     1      -6.006  13.380  20.571  0.00  0.00    +0.000 C 
ATOM     22  C   UNL     1      -4.910  12.984  21.512  0.00  0.00    +0.000 A 
ATOM     23  C   UNL     1      -3.625  12.746  21.040  0.00  0.00    +0.000 A 
ATOM     24  C   UNL     1      -2.604  12.408  21.938  0.00  0.00    +0.000 A 
ATOM     25  C   UNL     1      -2.943  12.317  23.293  0.00  0.00    +0.000 A 
ATOM     26  C   UNL     1      -4.258  12.543  23.691  0.00  0.00    +0.000 A 
ATOM     27  C   UNL     1      -4.652  12.410  25.129  0.00  0.00    +0.000 C 
ATOM     28  N   UNL     1      -5.235  12.880  22.820  0.00  0.00    +0.000 NA
ENDBRANCH  15  24
ENDBRANCH   1  19
BRANCH   7  29
ATOM     29  C   UNL     1       3.048   3.478  18.186  0.00  0.00    +0.000 C 
ATOM     30  F   UNL     1       2.013   2.606  18.044  0.00  0.00    +0.000 F 
ATOM     31  F   UNL     1       3.483   3.738  16.918  0.00  0.00    +0.000 F 
ATOM     32  F   UNL     1       4.052   2.772  18.780  0.00  0.00    +0.000 F 
ENDBRANCH   7  29
TORSDOF 3
ENDMDL
MODEL 4
REMARK VINA RESULT:      -8.7      4.263      5.303
REMARK  Name = 
REMARK  6 active torsions:
REMARK  status: ('A' for Active; 'I' for Inactive)
REMARK    1  A    between atoms: C_1  and  C_2
REMARK    2  A    between atoms: C_4  and  C_5
REMARK    3  A    between atoms: C_9  and  C_10
REMARK    4  A    between atoms: C_14  and  C_15
REMARK    5  A    between atoms: C_16  and  C_17
REMARK    6  A    between atoms: C_29  and  C_30
REMARK                            x       y       z     vdW  Elec       q    Type
REMARK                         _______ _______ _______ _____ _____    ______ ____
ROOT
ATOM      1  C   UNL     1       0.840  11.224  19.148  0.00  0.00    +0.000 C 
ATOM      2  N   UNL     1       1.577  12.222  19.551  0.00  0.00    +0.000 NA
ATOM      3  C   UNL     1       1.261  13.551  19.167  0.00  0.00    +0.000 A 
ATOM      4  C   UNL     1       2.336  14.417  18.923  0.00  0.00    +0.000 A 
ATOM      5  C   UNL     1       2.151  15.766  18.538  0.00  0.00    +0.000 A 
ATOM      6  C   UNL     1       3.359  16.644  18.355  0.00  0.00    +0.000 C 
ATOM      7  C   UNL     1       0.844  16.257  18.364  0.00  0.00    +0.000 A 
ATOM      8  C   UNL     1      -0.237  15.436  18.730  0.00  0.00    +0.000 A 
ATOM      9  C   UNL     1      -0.043  14.105  19.112  0.00  0.00    +0.000 A 
ATOM     10  N   UNL     1      -1.222  13.379  19.373  0.00  0.00    +0.000 N 
ATOM     11  C   UNL     1      -1.422  12.066  19.049  0.00  0.00    +0.000 C 
ATOM     12  O   UNL     1      -2.442  11.465  19.377  0.00  0.00    +0.000 OA
ATOM     13  C   UNL     1      -0.334  11.437  18.234  0.00  0.00    +0.000 C 
ATOM     14  H   UNL     1      -2.045  13.861  19.709  0.00  0.00    +0.000 HD
ENDROOT
BRANCH   1  19
ATOM     15  C   UNL     1       1.986   7.593  19.325  0.00  0.00    +0.000 A 
ATOM     16  C   UNL     1       1.524   7.255  20.614  0.00  0.00    +0.000 A 
ATOM     17  C   UNL     1       0.840   8.179  21.403  0.00  0.00    +0.000 A 
ATOM     18  C   UNL     1       0.619   9.461  20.922  0.00  0.00    +0.000 A 
ATOM     19  C   UNL     1       1.067   9.830  19.649  0.00  0.00    +0.000 A 
ATOM     20  C   UNL     1       1.749   8.901  18.860  0.00  0.00    +0.000 A 
BRANCH  15  24
ATOM     21  C   UNL     1       2.478   2.915  17.584  0.00  0.00    +0.000 C 
ATOM     22  C   UNL     1       2.927   4.343  17.649  0.00  0.00    +0.000 A 
ATOM     23  C   UNL     1       2.237   5.266  18.424  0.00  0.00    +0.000 A 
ATOM     24  C   UNL     1       2.690   6.590  18.498  0.00  0.00    +0.000 A 
ATOM     25  C   UNL     1       3.834   6.921  17.763  0.00  0.00    +0.000 A 
ATOM     26  C   UNL     1       4.458   5.950  16.985  0.00  0.00    +0.000 A 
ATOM     27  C   UNL     1       5.658   6.292  16.157  0.00  0.00    +0.000 C 
ATOM     28  N   UNL     1       4.023   4.672  16.928  0.00  0.00    +0.000 NA
ENDBRANCH  15  24
ENDBRANCH   1  19
BRANCH   7  29
ATOM     29  C   UNL     1       0.498  17.597  17.746  0.00  0.00    +0.000 C 
ATOM     30  F   UNL     1       1.201  17.926  16.628  0.00  0.00    +0.000 F 
ATOM     31  F   UNL     1      -0.816  17.654  17.379  0.00  0.00    +0.000 F 
ATOM     32  F   UNL     1       0.680  18.630  18.618  0.00  0.00    +0.000 F 
ENDBRANCH   7  29
TORSDOF 3
ENDMDL
MODEL 5
REMARK VINA RESULT:      -8.7      5.026      9.651
REMARK  Name = 
REMARK  6 active torsions:
REMARK  status: ('A' for Active; 'I' for Inactive)
REMARK    1  A    between atoms: C_1  and  C_2
REMARK    2  A    between atoms: C_4  and  C_5
REMARK    3  A    between atoms: C_9  and  C_10
REMARK    4  A    between atoms: C_14  and  C_15
REMARK    5  A    between atoms: C_16  and  C_17
REMARK    6  A    between atoms: C_29  and  C_30
REMARK                            x       y       z     vdW  Elec       q    Type
REMARK                         _______ _______ _______ _____ _____    ______ ____
ROOT
ATOM      1  C   UNL     1       0.845   9.415  19.848  0.00  0.00    +0.000 C 
ATOM      2  N   UNL     1       1.355   8.465  20.582  0.00  0.00    +0.000 NA
ATOM      3  C   UNL     1       1.843   7.275  19.981  0.00  0.00    +0.000 A 
ATOM      4  C   UNL     1       1.653   6.080  20.689  0.00  0.00    +0.000 A 
ATOM      5  C   UNL     1       2.097   4.829  20.197  0.00  0.00    +0.000 A 
ATOM      6  C   UNL     1       1.907   3.603  21.048  0.00  0.00    +0.000 C 
ATOM      7  C   UNL     1       2.728   4.770  18.941  0.00  0.00    +0.000 A 
ATOM      8  C   UNL     1       3.036   5.975  18.286  0.00  0.00    +0.000 A 
ATOM      9  C   UNL     1       2.596   7.206  18.781  0.00  0.00    +0.000 A 
ATOM     10  N   UNL     1       2.909   8.321  17.979  0.00  0.00    +0.000 N 
ATOM     11  C   UNL     1       2.089   9.396  17.778  0.00  0.00    +0.000 C 
ATOM     12  O   UNL     1       2.453  10.378  17.133  0.00  0.00    +0.000 OA
ATOM     13  C   UNL     1       0.714   9.269  18.358  0.00  0.00    +0.000 C 
ATOM     14  H   UNL     1       3.735   8.305  17.397  0.00  0.00    +0.000 HD
ENDROOT
BRANCH   1  19
ATOM     15  C   UNL     1      -1.238  12.176  21.452  0.00  0.00    +0.000 A 
ATOM     16  C   UNL     1      -0.254  13.178  21.579  0.00  0.00    +0.000 A 
ATOM     17  C   UNL     1       1.052  12.971  21.138  0.00  0.00    +0.000 A 
ATOM     18  C   UNL     1       1.401  11.753  20.576  0.00  0.00    +0.000 A 
ATOM     19  C   UNL     1       0.451  10.735  20.438  0.00  0.00    +0.000 A 
ATOM     20  C   UNL     1      -0.857  10.947  20.878  0.00  0.00    +0.000 A 
BRANCH  15  24
ATOM     21  C   UNL     1      -4.674  12.420  25.096  0.00  0.00    +0.000 C 
ATOM     22  C   UNL     1      -4.279  12.555  23.657  0.00  0.00    +0.000 A 
ATOM     23  C   UNL     1      -2.967  12.326  23.261  0.00  0.00    +0.000 A 
ATOM     24  C   UNL     1      -2.621  12.426  21.907  0.00  0.00    +0.000 A 
ATOM     25  C   UNL     1      -3.637  12.767  21.007  0.00  0.00    +0.000 A 
ATOM     26  C   UNL     1      -4.924  13.010  21.479  0.00  0.00    +0.000 A 
ATOM     27  C   UNL     1      -6.016  13.417  20.540  0.00  0.00    +0.000 C 
ATOM     28  N   UNL     1      -5.253  12.900  22.786  0.00  0.00    +0.000 NA
ENDBRANCH  15  24
ENDBRANCH   1  19
BRANCH   7  29
ATOM     29  C   UNL     1       3.052   3.491  18.195  0.00  0.00    +0.000 C 
ATOM     30  F   UNL     1       2.020   2.615  18.056  0.00  0.00    +0.000 F 
ATOM     31  F   UNL     1       3.484   3.749  16.925  0.00  0.00    +0.000 F 
ATOM     32  F   UNL     1       4.060   2.788  18.788  0.00  0.00    +0.000 F 
ENDBRANCH   7  29
TORSDOF 3
ENDMDL
MODEL 6
REMARK VINA RESULT:      -8.7      7.107     11.622
REMARK  Name = 
REMARK  6 active torsions:
REMARK  status: ('A' for Active; 'I' for Inactive)
REMARK    1  A    between atoms: C_1  and  C_2
REMARK    2  A    between atoms: C_4  and  C_5
REMARK    3  A    between atoms: C_9  and  C_10
REMARK    4  A    between atoms: C_14  and  C_15
REMARK    5  A    between atoms: C_16  and  C_17
REMARK    6  A    between atoms: C_29  and  C_30
REMARK                            x       y       z     vdW  Elec       q    Type
REMARK                         _______ _______ _______ _____ _____    ______ ____
ROOT
ATOM      1  C   UNL     1       4.312   5.778  17.365  0.00  0.00    +0.000 C 
ATOM      2  N   UNL     1       4.237   4.754  16.560  0.00  0.00    +0.000 NA
ATOM      3  C   UNL     1       5.134   4.630  15.467  0.00  0.00    +0.000 A 
ATOM      4  C   UNL     1       4.625   4.076  14.284  0.00  0.00    +0.000 A 
ATOM      5  C   UNL     1       5.421   3.897  13.128  0.00  0.00    +0.000 A 
ATOM      6  C   UNL     1       4.812   3.238  11.920  0.00  0.00    +0.000 C 
ATOM      7  C   UNL     1       6.765   4.312  13.148  0.00  0.00    +0.000 A 
ATOM      8  C   UNL     1       7.316   4.747  14.366  0.00  0.00    +0.000 A 
ATOM      9  C   UNL     1       6.522   4.918  15.504  0.00  0.00    +0.000 A 
ATOM     10  N   UNL     1       7.192   5.437  16.630  0.00  0.00    +0.000 N 
ATOM     11  C   UNL     1       6.659   6.331  17.516  0.00  0.00    +0.000 C 
ATOM     12  O   UNL     1       7.265   6.684  18.525  0.00  0.00    +0.000 OA
ATOM     13  C   UNL     1       5.314   6.876  17.143  0.00  0.00    +0.000 C 
ATOM     14  H   UNL     1       8.179   5.256  16.754  0.00  0.00    +0.000 HD
ENDROOT
BRANCH   1  19
ATOM     15  C   UNL     1       1.981   7.135  20.057  0.00  0.00    +0.000 A 
ATOM     16  C   UNL     1       1.873   5.996  20.882  0.00  0.00    +0.000 A 
ATOM     17  C   UNL     1       2.556   4.818  20.582  0.00  0.00    +0.000 A 
ATOM     18  C   UNL     1       3.346   4.754  19.444  0.00  0.00    +0.000 A 
ATOM     19  C   UNL     1       3.472   5.865  18.602  0.00  0.00    +0.000 A 
ATOM     20  C   UNL     1       2.789   7.044  18.908  0.00  0.00    +0.000 A 
BRANCH  15  24
ATOM     21  C   UNL     1       0.310  11.712  18.867  0.00  0.00    +0.000 C 
ATOM     22  C   UNL     1       0.449  10.580  19.839  0.00  0.00    +0.000 A 
ATOM     23  C   UNL     1       1.117   9.416  19.477  0.00  0.00    +0.000 A 
ATOM     24  C   UNL     1       1.265   8.379  20.407  0.00  0.00    +0.000 A 
ATOM     25  C   UNL     1       0.711   8.572  21.678  0.00  0.00    +0.000 A 
ATOM     26  C   UNL     1       0.031   9.753  21.963  0.00  0.00    +0.000 A 
ATOM     27  C   UNL     1      -0.606   9.963  23.301  0.00  0.00    +0.000 C 
ATOM     28  N   UNL     1      -0.098  10.754  21.063  0.00  0.00    +0.000 NA
ENDBRANCH  15  24
ENDBRANCH   1  19
BRANCH   7  29
ATOM     29  C   UNL     1       7.666   4.388  11.931  0.00  0.00    +0.000 C 
ATOM     30  F   UNL     1       7.205   5.157  10.908  0.00  0.00    +0.000 F 
ATOM     31  F   UNL     1       8.891   4.900  12.248  0.00  0.00    +0.000 F 
ATOM     32  F   UNL     1       7.911   3.159  11.393  0.00  0.00    +0.000 F 
ENDBRANCH   7  29
TORSDOF 3
ENDMDL
MODEL 7
REMARK VINA RESULT:      -8.7      7.108     11.544
REMARK  Name = 
REMARK  6 active torsions:
REMARK  status: ('A' for Active; 'I' for Inactive)
REMARK    1  A    between atoms: C_1  and  C_2
REMARK    2  A    between atoms: C_4  and  C_5
REMARK    3  A    between atoms: C_9  and  C_10
REMARK    4  A    between atoms: C_14  and  C_15
REMARK    5  A    between atoms: C_16  and  C_17
REMARK    6  A    between atoms: C_29  and  C_30
REMARK                            x       y       z     vdW  Elec       q    Type
REMARK                         _______ _______ _______ _____ _____    ______ ____
ROOT
ATOM      1  C   UNL     1       4.308   5.774  17.365  0.00  0.00    +0.000 C 
ATOM      2  N   UNL     1       4.228   4.754  16.557  0.00  0.00    +0.000 NA
ATOM      3  C   UNL     1       5.127   4.626  15.467  0.00  0.00    +0.000 A 
ATOM      4  C   UNL     1       4.617   4.079  14.281  0.00  0.00    +0.000 A 
ATOM      5  C   UNL     1       5.415   3.897  13.126  0.00  0.00    +0.000 A 
ATOM      6  C   UNL     1       4.805   3.246  11.914  0.00  0.00    +0.000 C 
ATOM      7  C   UNL     1       6.762   4.302  13.151  0.00  0.00    +0.000 A 
ATOM      8  C   UNL     1       7.313   4.730  14.372  0.00  0.00    +0.000 A 
ATOM      9  C   UNL     1       6.517   4.904  15.508  0.00  0.00    +0.000 A 
ATOM     10  N   UNL     1       7.187   5.415  16.637  0.00  0.00    +0.000 N 
ATOM     11  C   UNL     1       6.659   6.310  17.524  0.00  0.00    +0.000 C 
ATOM     12  O   UNL     1       7.264   6.655  18.536  0.00  0.00    +0.000 OA
ATOM     13  C   UNL     1       5.319   6.866  17.149  0.00  0.00    +0.000 C 
ATOM     14  H   UNL     1       8.173   5.226  16.764  0.00  0.00    +0.000 HD
ENDROOT
BRANCH   1  19
ATOM     15  C   UNL     1       1.975   7.139  20.052  0.00  0.00    +0.000 A 
ATOM     16  C   UNL     1       1.862   6.001  20.877  0.00  0.00    +0.000 A 
ATOM     17  C   UNL     1       2.542   4.821  20.579  0.00  0.00    +0.000 A 
ATOM     18  C   UNL     1       3.335   4.754  19.443  0.00  0.00    +0.000 A 
ATOM     19  C   UNL     1       3.465   5.864  18.601  0.00  0.00    +0.000 A 
ATOM     20  C   UNL     1       2.785   7.045  18.904  0.00  0.00    +0.000 A 
BRANCH  15  24
ATOM     21  C   UNL     1      -0.592   9.954  23.314  0.00  0.00    +0.000 C 
ATOM     22  C   UNL     1       0.033   9.751  21.968  0.00  0.00    +0.000 A 
ATOM     23  C   UNL     1       0.710   8.573  21.673  0.00  0.00    +0.000 A 
ATOM     24  C   UNL     1       1.261   8.386  20.400  0.00  0.00    +0.000 A 
ATOM     25  C   UNL     1       1.106   9.423  19.473  0.00  0.00    +0.000 A 
ATOM     26  C   UNL     1       0.440  10.587  19.845  0.00  0.00    +0.000 A 
ATOM     27  C   UNL     1       0.299  11.726  18.884  0.00  0.00    +0.000 C 
ATOM     28  N   UNL     1      -0.100  10.756  21.073  0.00  0.00    +0.000 NA
ENDBRANCH  15  24
ENDBRANCH   1  19
BRANCH   7  29
ATOM     29  C   UNL     1       7.667   4.375  11.937  0.00  0.00    +0.000 C 
ATOM     30  F   UNL     1       7.206   5.137  10.907  0.00  0.00    +0.000 F 
ATOM     31  F   UNL     1       8.889   4.893  12.255  0.00  0.00    +0.000 F 
ATOM     32  F   UNL     1       7.918   3.144  11.406  0.00  0.00    +0.000 F 
ENDBRANCH   7  29
TORSDOF 3
ENDMDL
MODEL 8
REMARK VINA RESULT:      -8.7      5.579      9.626
REMARK  Name = 
REMARK  6 active torsions:
REMARK  status: ('A' for Active; 'I' for Inactive)
REMARK    1  A    between atoms: C_1  and  C_2
REMARK    2  A    between atoms: C_4  and  C_5
REMARK    3  A    between atoms: C_9  and  C_10
REMARK    4  A    between atoms: C_14  and  C_15
REMARK    5  A    between atoms: C_16  and  C_17
REMARK    6  A    between atoms: C_29  and  C_30
REMARK                            x       y       z     vdW  Elec       q    Type
REMARK                         _______ _______ _______ _____ _____    ______ ____
ROOT
ATOM      1  C   UNL     1       0.793   9.375  19.970  0.00  0.00    +0.000 C 
ATOM      2  N   UNL     1       1.290   8.413  20.697  0.00  0.00    +0.000 NA
ATOM      3  C   UNL     1       1.749   7.215  20.089  0.00  0.00    +0.000 A 
ATOM      4  C   UNL     1       1.539   6.022  20.795  0.00  0.00    +0.000 A 
ATOM      5  C   UNL     1       1.954   4.764  20.297  0.00  0.00    +0.000 A 
ATOM      6  C   UNL     1       1.746   3.540  21.146  0.00  0.00    +0.000 C 
ATOM      7  C   UNL     1       2.575   4.695  19.036  0.00  0.00    +0.000 A 
ATOM      8  C   UNL     1       2.903   5.896  18.382  0.00  0.00    +0.000 A 
ATOM      9  C   UNL     1       2.491   7.134  18.884  0.00  0.00    +0.000 A 
ATOM     10  N   UNL     1       2.821   8.245  18.083  0.00  0.00    +0.000 N 
ATOM     11  C   UNL     1       2.022   9.337  17.891  0.00  0.00    +0.000 C 
ATOM     12  O   UNL     1       2.401  10.313  17.246  0.00  0.00    +0.000 OA
ATOM     13  C   UNL     1       0.649   9.236  18.481  0.00  0.00    +0.000 C 
ATOM     14  H   UNL     1       3.643   8.214  17.495  0.00  0.00    +0.000 HD
ENDROOT
BRANCH   1  19
ATOM     15  C   UNL     1       0.352  13.135  20.415  0.00  0.00    +0.000 A 
ATOM     16  C   UNL     1      -0.294  13.157  21.668  0.00  0.00    +0.000 A 
ATOM     17  C   UNL     1      -0.566  11.980  22.363  0.00  0.00    +0.000 A 
ATOM     18  C   UNL     1      -0.209  10.759  21.811  0.00  0.00    +0.000 A 
ATOM     19  C   UNL     1       0.431  10.701  20.567  0.00  0.00    +0.000 A 
ATOM     20  C   UNL     1       0.704  11.883  19.875  0.00  0.00    +0.000 A 
BRANCH  15  24
ATOM     21  C   UNL     1      -1.129  17.490  18.415  0.00  0.00    +0.000 C 
ATOM     22  C   UNL     1      -0.055  16.500  18.750  0.00  0.00    +0.000 A 
ATOM     23  C   UNL     1      -0.362  15.327  19.429  0.00  0.00    +0.000 A 
ATOM     24  C   UNL     1       0.649  14.397  19.706  0.00  0.00    +0.000 A 
ATOM     25  C   UNL     1       1.945  14.711  19.283  0.00  0.00    +0.000 A 
ATOM     26  C   UNL     1       2.185  15.919  18.632  0.00  0.00    +0.000 A 
ATOM     27  C   UNL     1       3.570  16.295  18.208  0.00  0.00    +0.000 C 
ATOM     28  N   UNL     1       1.202  16.805  18.357  0.00  0.00    +0.000 NA
ENDBRANCH  15  24
ENDBRANCH   1  19
BRANCH   7  29
ATOM     29  C   UNL     1       2.868   3.412  18.284  0.00  0.00    +0.000 C 
ATOM     30  F   UNL     1       1.812   2.567  18.133  0.00  0.00    +0.000 F 
ATOM     31  F   UNL     1       3.314   3.666  17.019  0.00  0.00    +0.000 F 
ATOM     32  F   UNL     1       3.851   2.678  18.879  0.00  0.00    +0.000 F 
ENDBRANCH   7  29
TORSDOF 3
ENDMDL
MODEL 9
REMARK VINA RESULT:      -8.7      5.595      9.720
REMARK  Name = 
REMARK  6 active torsions:
REMARK  status: ('A' for Active; 'I' for Inactive)
REMARK    1  A    between atoms: C_1  and  C_2
REMARK    2  A    between atoms: C_4  and  C_5
REMARK    3  A    between atoms: C_9  and  C_10
REMARK    4  A    between atoms: C_14  and  C_15
REMARK    5  A    between atoms: C_16  and  C_17
REMARK    6  A    between atoms: C_29  and  C_30
REMARK                            x       y       z     vdW  Elec       q    Type
REMARK                         _______ _______ _______ _____ _____    ______ ____
ROOT
ATOM      1  C   UNL     1       0.822   9.326  19.951  0.00  0.00    +0.000 C 
ATOM      2  N   UNL     1       1.325   8.358  20.666  0.00  0.00    +0.000 NA
ATOM      3  C   UNL     1       1.789   7.170  20.044  0.00  0.00    +0.000 A 
ATOM      4  C   UNL     1       1.588   5.968  20.737  0.00  0.00    +0.000 A 
ATOM      5  C   UNL     1       2.009   4.718  20.224  0.00  0.00    +0.000 A 
ATOM      6  C   UNL     1       1.809   3.483  21.060  0.00  0.00    +0.000 C 
ATOM      7  C   UNL     1       2.627   4.666  18.961  0.00  0.00    +0.000 A 
ATOM      8  C   UNL     1       2.947   5.876  18.320  0.00  0.00    +0.000 A 
ATOM      9  C   UNL     1       2.530   7.107  18.837  0.00  0.00    +0.000 A 
ATOM     10  N   UNL     1       2.852   8.228  18.047  0.00  0.00    +0.000 N 
ATOM     11  C   UNL     1       2.046   9.318  17.868  0.00  0.00    +0.000 C 
ATOM     12  O   UNL     1       2.419  10.303  17.234  0.00  0.00    +0.000 OA
ATOM     13  C   UNL     1       0.675   9.203  18.460  0.00  0.00    +0.000 C 
ATOM     14  H   UNL     1       3.672   8.208  17.457  0.00  0.00    +0.000 HD
ENDROOT
BRANCH   1  19
ATOM     15  C   UNL     1       0.368  13.079  20.440  0.00  0.00    +0.000 A 
ATOM     16  C   UNL     1      -0.283  13.083  21.692  0.00  0.00    +0.000 A 
ATOM     17  C   UNL     1      -0.553  11.896  22.372  0.00  0.00    +0.000 A 
ATOM     18  C   UNL     1      -0.190  10.683  21.805  0.00  0.00    +0.000 A 
ATOM     19  C   UNL     1       0.453  10.643  20.563  0.00  0.00    +0.000 A 
ATOM     20  C   UNL     1       0.725  11.834  19.887  0.00  0.00    +0.000 A 
BRANCH  15  24
ATOM     21  C   UNL     1       3.611  16.273  18.335  0.00  0.00    +0.000 C 
ATOM     22  C   UNL     1       2.216  15.889  18.725  0.00  0.00    +0.000 A 
ATOM     23  C   UNL     1       1.968  14.680  19.363  0.00  0.00    +0.000 A 
ATOM     24  C   UNL     1       0.662  14.351  19.749  0.00  0.00    +0.000 A 
ATOM     25  C   UNL     1      -0.347  15.275  19.456  0.00  0.00    +0.000 A 
ATOM     26  C   UNL     1      -0.030  16.455  18.789  0.00  0.00    +0.000 A 
ATOM     27  C   UNL     1      -1.099  17.438  18.428  0.00  0.00    +0.000 C 
ATOM     28  N   UNL     1       1.235  16.771  18.430  0.00  0.00    +0.000 NA
ENDBRANCH  15  24
ENDBRANCH   1  19
BRANCH   7  29
ATOM     29  C   UNL     1       2.926   3.394  18.195  0.00  0.00    +0.000 C 
ATOM     30  F   UNL     1       1.875   2.542  18.041  0.00  0.00    +0.000 F 
ATOM     31  F   UNL     1       3.364   3.663  16.930  0.00  0.00    +0.000 F 
ATOM     32  F   UNL     1       3.917   2.660  18.777  0.00  0.00    +0.000 F 
ENDBRANCH   7  29
TORSDOF 3
ENDMDL
