MODEL 1
REMARK VINA RESULT:      -7.9      0.000      0.000
REMARK  Name = 
REMARK  9 active torsions:
REMARK  status: ('A' for Active; 'I' for Inactive)
REMARK    1  A    between atoms: C_1  and  C_2
REMARK    2  A    between atoms: C_2  and  C_3
REMARK    3  A    between atoms: C_2  and  C_4
REMARK    4  A    between atoms: C_2  and  C_8
REMARK    5  A    between atoms: C_4  and  C_5
REMARK    6  A    between atoms: C_5  and  O_7
REMARK    7  A    between atoms: C_8  and  C_9
REMARK    8  A    between atoms: N_18  and  C_19
REMARK    9  A    between atoms: C_19  and  C_20
REMARK                            x       y       z     vdW  Elec       q    Type
REMARK                         _______ _______ _______ _____ _____    ______ ____
ROOT
ATOM      1  C   UNL     1       3.908   3.481  18.128  0.00  0.00    +0.000 A 
ATOM      2  N   UNL     1       4.182   3.084  16.901  0.00  0.00    +0.000 NA
ATOM      3  C   UNL     1       5.138   3.936  16.426  0.00  0.00    +0.000 A 
ATOM      4  C   UNL     1       5.781   3.928  15.180  0.00  0.00    +0.000 A 
ATOM      5  C   UNL     1       6.745   4.902  14.931  0.00  0.00    +0.000 A 
ATOM      6 CL   UNL     1       7.540   4.927  13.403  0.00  0.00    +0.000 Cl
ATOM      7  C   UNL     1       7.076   5.857  15.894  0.00  0.00    +0.000 A 
ATOM      8  C   UNL     1       6.436   5.880  17.139  0.00  0.00    +0.000 A 
ATOM      9  C   UNL     1       5.456   4.904  17.371  0.00  0.00    +0.000 A 
ATOM     10  N   UNL     1       4.585   4.652  18.416  0.00  0.00    +0.000 N 
ENDROOT
BRANCH   1  11
ATOM     11  C   UNL     1       2.958   2.767  19.045  0.00  0.00    +0.000 C 
BRANCH  11  13
ATOM     12  C   UNL     1       0.649   1.946  18.604  0.00  0.00    +0.000 C 
ATOM     13  C   UNL     1       1.464   3.221  18.917  0.00  0.00    +0.000 C 
ATOM     14  C   UNL     1       1.317   4.211  17.746  0.00  0.00    +0.000 C 
BRANCH  13  15
ATOM     15  C   UNL     1       0.975   3.859  20.248  0.00  0.00    +0.000 C 
BRANCH  15  16
ATOM     16  C   UNL     1       1.701   3.471  21.521  0.00  0.00    +0.000 C 
ATOM     17  O   UNL     1       2.627   4.067  22.042  0.00  0.00    +0.000 OA
BRANCH  16  18
ATOM     18  O   UNL     1       1.205   2.323  22.050  0.00  0.00    +0.000 OA
ATOM     19  H   UNL     1       0.232   2.258  21.989  0.00  0.00    +0.000 HD
ENDBRANCH  16  18
ENDBRANCH  15  16
ENDBRANCH  13  15
ENDBRANCH  11  13
ENDBRANCH   1  11
BRANCH  10  20
ATOM     20  C   UNL     1       4.366   5.535  19.559  0.00  0.00    +0.000 C 
BRANCH  20  21
ATOM     21  C   UNL     1       3.346   6.606  19.228  0.00  0.00    +0.000 A 
ATOM     22  C   UNL     1       3.332   7.225  17.971  0.00  0.00    +0.000 A 
ATOM     23  C   UNL     1       2.462   8.289  17.712  0.00  0.00    +0.000 A 
ATOM     24  C   UNL     1       1.587   8.746  18.701  0.00  0.00    +0.000 A 
ATOM     25 CL   UNL     1       0.601  10.118  18.337  0.00  0.00    +0.000 Cl
ATOM     26  C   UNL     1       1.548   8.102  19.938  0.00  0.00    +0.000 A 
ATOM     27 CL   UNL     1       0.477   8.585  21.206  0.00  0.00    +0.000 Cl
ATOM     28  C   UNL     1       2.413   7.031  20.192  0.00  0.00    +0.000 A 
ENDBRANCH  20  21
ENDBRANCH  10  20
TORSDOF 7
ENDMDL
MODEL 2
REMARK VINA RESULT:      -7.7      1.228      1.699
REMARK  Name = 
REMARK  9 active torsions:
REMARK  status: ('A' for Active; 'I' for Inactive)
REMARK    1  A    between atoms: C_1  and  C_2
REMARK    2  A    between atoms: C_2  and  C_3
REMARK    3  A    between atoms: C_2  and  C_4
REMARK    4  A    between atoms: C_2  and  C_8
REMARK    5  A    between atoms: C_4  and  C_5
REMARK    6  A    between atoms: C_5  and  O_7
REMARK    7  A    between atoms: C_8  and  C_9
REMARK    8  A    between atoms: N_18  and  C_19
REMARK    9  A    between atoms: C_19  and  C_20
REMARK                            x       y       z     vdW  Elec       q    Type
REMARK                         _______ _______ _______ _____ _____    ______ ____
ROOT
ATOM      1  C   UNL     1       2.864   4.462  17.763  0.00  0.00    +0.000 A 
ATOM      2  N   UNL     1       3.243   4.085  16.557  0.00  0.00    +0.000 NA
ATOM      3  C   UNL     1       4.493   4.601  16.368  0.00  0.00    +0.000 A 
ATOM      4  C   UNL     1       5.340   4.469  15.258  0.00  0.00    +0.000 A 
ATOM      5  C   UNL     1       6.590   5.082  15.308  0.00  0.00    +0.000 A 
ATOM      6 CL   UNL     1       7.645   4.949  13.952  0.00  0.00    +0.000 Cl
ATOM      7  C   UNL     1       7.001   5.801  16.431  0.00  0.00    +0.000 A 
ATOM      8  C   UNL     1       6.161   5.947  17.543  0.00  0.00    +0.000 A 
ATOM      9  C   UNL     1       4.899   5.339  17.474  0.00  0.00    +0.000 A 
ATOM     10  N   UNL     1       3.801   5.317  18.315  0.00  0.00    +0.000 N 
ENDROOT
BRANCH   1  11
ATOM     11  C   UNL     1       1.573   4.041  18.402  0.00  0.00    +0.000 C 
BRANCH  11  13
ATOM     12  C   UNL     1       0.511   1.894  19.083  0.00  0.00    +0.000 C 
ATOM     13  C   UNL     1       1.699   2.833  19.392  0.00  0.00    +0.000 C 
ATOM     14  C   UNL     1       1.578   3.334  20.845  0.00  0.00    +0.000 C 
BRANCH  13  15
ATOM     15  C   UNL     1       3.046   2.089  19.172  0.00  0.00    +0.000 C 
BRANCH  15  16
ATOM     16  C   UNL     1       4.114   2.241  20.236  0.00  0.00    +0.000 C 
ATOM     17  O   UNL     1       3.998   1.999  21.425  0.00  0.00    +0.000 OA
BRANCH  16  18
ATOM     18  O   UNL     1       5.276   2.712  19.715  0.00  0.00    +0.000 OA
ATOM     19  H   UNL     1       5.173   3.097  18.824  0.00  0.00    +0.000 HD
ENDBRANCH  16  18
ENDBRANCH  15  16
ENDBRANCH  13  15
ENDBRANCH  11  13
ENDBRANCH   1  11
BRANCH  10  20
ATOM     20  C   UNL     1       3.642   6.138  19.512  0.00  0.00    +0.000 C 
BRANCH  20  21
ATOM     21  C   UNL     1       2.674   7.278  19.263  0.00  0.00    +0.000 A 
ATOM     22  C   UNL     1       2.637   7.935  18.025  0.00  0.00    +0.000 A 
ATOM     23  C   UNL     1       1.821   9.056  17.839  0.00  0.00    +0.000 A 
ATOM     24  C   UNL     1       1.024   9.534  18.883  0.00  0.00    +0.000 A 
ATOM     25 CL   UNL     1       0.107  10.972  18.608  0.00  0.00    +0.000 Cl
ATOM     26  C   UNL     1       1.006   8.855  20.103  0.00  0.00    +0.000 A 
ATOM     27 CL   UNL     1       0.029   9.362  21.435  0.00  0.00    +0.000 Cl
ATOM     28  C   UNL     1       1.816   7.728  20.283  0.00  0.00    +0.000 A 
ENDBRANCH  20  21
ENDBRANCH  10  20
TORSDOF 7
ENDMDL
MODEL 3
REMARK VINA RESULT:      -7.3      0.778      1.230
REMARK  Name = 
REMARK  9 active torsions:
REMARK  status: ('A' for Active; 'I' for Inactive)
REMARK    1  A    between atoms: C_1  and  C_2
REMARK    2  A    between atoms: C_2  and  C_3
REMARK    3  A    between atoms: C_2  and  C_4
REMARK    4  A    between atoms: C_2  and  C_8
REMARK    5  A    between atoms: C_4  and  C_5
REMARK    6  A    between atoms: C_5  and  O_7
REMARK    7  A    between atoms: C_8  and  C_9
REMARK    8  A    between atoms: N_18  and  C_19
REMARK    9  A    between atoms: C_19  and  C_20
REMARK                            x       y       z     vdW  Elec       q    Type
REMARK                         _______ _______ _______ _____ _____    ______ ____
ROOT
ATOM      1  C   UNL     1       3.246   4.256  17.481  0.00  0.00    +0.000 A 
ATOM      2  N   UNL     1       3.595   3.936  16.250  0.00  0.00    +0.000 NA
ATOM      3  C   UNL     1       4.811   4.518  16.032  0.00  0.00    +0.000 A 
ATOM      4  C   UNL     1       5.620   4.462  14.888  0.00  0.00    +0.000 A 
ATOM      5  C   UNL     1       6.840   5.134  14.911  0.00  0.00    +0.000 A 
ATOM      6 CL   UNL     1       7.847   5.096  13.514  0.00  0.00    +0.000 Cl
ATOM      7  C   UNL     1       7.260   5.836  16.042  0.00  0.00    +0.000 A 
ATOM      8  C   UNL     1       6.458   5.905  17.189  0.00  0.00    +0.000 A 
ATOM      9  C   UNL     1       5.225   5.239  17.146  0.00  0.00    +0.000 A 
ATOM     10  N   UNL     1       4.162   5.137  18.026  0.00  0.00    +0.000 N 
ENDROOT
BRANCH   1  11
ATOM     11  C   UNL     1       2.002   3.752  18.154  0.00  0.00    +0.000 C 
BRANCH  11  13
ATOM     12  C   UNL     1       3.142   1.540  18.114  0.00  0.00    +0.000 C 
ATOM     13  C   UNL     1       2.188   2.419  18.954  0.00  0.00    +0.000 C 
ATOM     14  C   UNL     1       0.832   1.698  19.090  0.00  0.00    +0.000 C 
BRANCH  13  15
ATOM     15  C   UNL     1       2.808   2.704  20.350  0.00  0.00    +0.000 C 
BRANCH  15  16
ATOM     16  C   UNL     1       1.870   3.136  21.460  0.00  0.00    +0.000 C 
ATOM     17  O   UNL     1       1.463   2.447  22.379  0.00  0.00    +0.000 OA
BRANCH  16  18
ATOM     18  O   UNL     1       1.492   4.433  21.320  0.00  0.00    +0.000 OA
ATOM     19  H   UNL     1       2.157   4.982  20.861  0.00  0.00    +0.000 HD
ENDBRANCH  16  18
ENDBRANCH  15  16
ENDBRANCH  13  15
ENDBRANCH  11  13
ENDBRANCH   1  11
BRANCH  10  20
ATOM     20  C   UNL     1       4.011   5.912  19.255  0.00  0.00    +0.000 C 
BRANCH  20  21
ATOM     21  C   UNL     1       3.019   7.042  19.065  0.00  0.00    +0.000 A 
ATOM     22  C   UNL     1       2.986   7.779  17.873  0.00  0.00    +0.000 A 
ATOM     23  C   UNL     1       2.147   8.892  17.748  0.00  0.00    +0.000 A 
ATOM     24  C   UNL     1       1.321   9.280  18.807  0.00  0.00    +0.000 A 
ATOM     25 CL   UNL     1       0.375  10.711  18.611  0.00  0.00    +0.000 Cl
ATOM     26  C   UNL     1       1.301   8.521  19.978  0.00  0.00    +0.000 A 
ATOM     27 CL   UNL     1       0.290   8.915  21.324  0.00  0.00    +0.000 Cl
ATOM     28  C   UNL     1       2.134   7.403  20.097  0.00  0.00    +0.000 A 
ENDBRANCH  20  21
ENDBRANCH  10  20
TORSDOF 7
ENDMDL
MODEL 4
REMARK VINA RESULT:      -6.7      2.426      5.978
REMARK  Name = 
REMARK  9 active torsions:
REMARK  status: ('A' for Active; 'I' for Inactive)
REMARK    1  A    between atoms: C_1  and  C_2
REMARK    2  A    between atoms: C_2  and  C_3
REMARK    3  A    between atoms: C_2  and  C_4
REMARK    4  A    between atoms: C_2  and  C_8
REMARK    5  A    between atoms: C_4  and  C_5
REMARK    6  A    between atoms: C_5  and  O_7
REMARK    7  A    between atoms: C_8  and  C_9
REMARK    8  A    between atoms: N_18  and  C_19
REMARK    9  A    between atoms: C_19  and  C_20
REMARK                            x       y       z     vdW  Elec       q    Type
REMARK                         _______ _______ _______ _____ _____    ______ ____
ROOT
ATOM      1  C   UNL     1       2.579   6.437  19.393  0.00  0.00    +0.000 A 
ATOM      2  N   UNL     1       2.154   7.045  20.484  0.00  0.00    +0.000 NA
ATOM      3  C   UNL     1       1.698   8.270  20.087  0.00  0.00    +0.000 A 
ATOM      4  C   UNL     1       1.125   9.288  20.863  0.00  0.00    +0.000 A 
ATOM      5  C   UNL     1       0.719  10.456  20.220  0.00  0.00    +0.000 A 
ATOM      6 CL   UNL     1       0.026  11.729  21.150  0.00  0.00    +0.000 Cl
ATOM      7  C   UNL     1       0.864  10.612  18.840  0.00  0.00    +0.000 A 
ATOM      8  C   UNL     1       1.441   9.605  18.056  0.00  0.00    +0.000 A 
ATOM      9  C   UNL     1       1.862   8.442  18.717  0.00  0.00    +0.000 A 
ATOM     10  N   UNL     1       2.517   7.294  18.310  0.00  0.00    +0.000 N 
ENDROOT
BRANCH   1  11
ATOM     11  C   UNL     1       3.092   5.026  19.371  0.00  0.00    +0.000 C 
BRANCH  11  13
ATOM     12  C   UNL     1       1.378   3.861  17.993  0.00  0.00    +0.000 C 
ATOM     13  C   UNL     1       1.978   3.927  19.415  0.00  0.00    +0.000 C 
ATOM     14  C   UNL     1       0.873   4.342  20.407  0.00  0.00    +0.000 C 
BRANCH  13  15
ATOM     15  C   UNL     1       2.586   2.551  19.807  0.00  0.00    +0.000 C 
BRANCH  15  16
ATOM     16  C   UNL     1       3.776   2.057  19.008  0.00  0.00    +0.000 C 
ATOM     17  O   UNL     1       3.759   1.621  17.870  0.00  0.00    +0.000 OA
BRANCH  16  18
ATOM     18  O   UNL     1       4.928   2.138  19.723  0.00  0.00    +0.000 OA
ATOM     19  H   UNL     1       4.781   2.290  20.676  0.00  0.00    +0.000 HD
ENDBRANCH  16  18
ENDBRANCH  15  16
ENDBRANCH  13  15
ENDBRANCH  11  13
ENDBRANCH   1  11
BRANCH  10  20
ATOM     20  C   UNL     1       3.117   7.090  16.994  0.00  0.00    +0.000 C 
BRANCH  20  21
ATOM     21  C   UNL     1       4.469   6.415  17.114  0.00  0.00    +0.000 A 
ATOM     22  C   UNL     1       4.629   5.060  16.792  0.00  0.00    +0.000 A 
ATOM     23  C   UNL     1       5.853   4.417  17.011  0.00  0.00    +0.000 A 
ATOM     24  C   UNL     1       6.936   5.119  17.547  0.00  0.00    +0.000 A 
ATOM     25 CL   UNL     1       8.388   4.240  17.870  0.00  0.00    +0.000 Cl
ATOM     26  C   UNL     1       6.809   6.482  17.819  0.00  0.00    +0.000 A 
ATOM     27 CL   UNL     1       8.106   7.429  18.457  0.00  0.00    +0.000 Cl
ATOM     28  C   UNL     1       5.587   7.125  17.589  0.00  0.00    +0.000 A 
ENDBRANCH  20  21
ENDBRANCH  10  20
TORSDOF 7
ENDMDL
MODEL 5
REMARK VINA RESULT:      -6.6      0.924      1.358
REMARK  Name = 
REMARK  9 active torsions:
REMARK  status: ('A' for Active; 'I' for Inactive)
REMARK    1  A    between atoms: C_1  and  C_2
REMARK    2  A    between atoms: C_2  and  C_3
REMARK    3  A    between atoms: C_2  and  C_4
REMARK    4  A    between atoms: C_2  and  C_8
REMARK    5  A    between atoms: C_4  and  C_5
REMARK    6  A    between atoms: C_5  and  O_7
REMARK    7  A    between atoms: C_8  and  C_9
REMARK    8  A    between atoms: N_18  and  C_19
REMARK    9  A    between atoms: C_19  and  C_20
REMARK                            x       y       z     vdW  Elec       q    Type
REMARK                         _______ _______ _______ _____ _____    ______ ____
ROOT
ATOM      1  C   UNL     1       3.684   4.146  17.340  0.00  0.00    +0.000 A 
ATOM      2  N   UNL     1       3.848   3.717  16.103  0.00  0.00    +0.000 NA
ATOM      3  C   UNL     1       4.998   4.293  15.645  0.00  0.00    +0.000 A 
ATOM      4  C   UNL     1       5.621   4.141  14.398  0.00  0.00    +0.000 A 
ATOM      5  C   UNL     1       6.811   4.828  14.169  0.00  0.00    +0.000 A 
ATOM      6 CL   UNL     1       7.590   4.673  12.640  0.00  0.00    +0.000 Cl
ATOM      7  C   UNL     1       7.381   5.639  15.152  0.00  0.00    +0.000 A 
ATOM      8  C   UNL     1       6.764   5.805  16.399  0.00  0.00    +0.000 A 
ATOM      9  C   UNL     1       5.559   5.121  16.611  0.00  0.00    +0.000 A 
ATOM     10  N   UNL     1       4.648   5.088  17.651  0.00  0.00    +0.000 N 
ENDROOT
BRANCH   1  11
ATOM     11  C   UNL     1       2.574   3.691  18.242  0.00  0.00    +0.000 C 
BRANCH  11  13
ATOM     12  C   UNL     1       4.129   2.880  20.008  0.00  0.00    +0.000 C 
ATOM     13  C   UNL     1       2.926   2.455  19.136  0.00  0.00    +0.000 C 
ATOM     14  C   UNL     1       3.347   1.269  18.246  0.00  0.00    +0.000 C 
BRANCH  13  15
ATOM     15  C   UNL     1       1.718   2.072  20.035  0.00  0.00    +0.000 C 
BRANCH  15  16
ATOM     16  C   UNL     1       1.411   2.971  21.217  0.00  0.00    +0.000 C 
ATOM     17  O   UNL     1       1.194   4.169  21.185  0.00  0.00    +0.000 OA
BRANCH  16  18
ATOM     18  O   UNL     1       1.412   2.279  22.386  0.00  0.00    +0.000 OA
ATOM     19  H   UNL     1       2.307   2.032  22.688  0.00  0.00    +0.000 HD
ENDBRANCH  16  18
ENDBRANCH  15  16
ENDBRANCH  13  15
ENDBRANCH  11  13
ENDBRANCH   1  11
BRANCH  10  20
ATOM     20  C   UNL     1       4.667   5.972  18.814  0.00  0.00    +0.000 C 
BRANCH  20  21
ATOM     21  C   UNL     1       3.490   6.927  18.788  0.00  0.00    +0.000 A 
ATOM     22  C   UNL     1       3.232   7.723  17.662  0.00  0.00    +0.000 A 
ATOM     23  C   UNL     1       2.213   8.681  17.688  0.00  0.00    +0.000 A 
ATOM     24  C   UNL     1       1.430   8.854  18.833  0.00  0.00    +0.000 A 
ATOM     25 CL   UNL     1       0.247  10.112  18.821  0.00  0.00    +0.000 Cl
ATOM     26  C   UNL     1       1.637   8.029  19.940  0.00  0.00    +0.000 A 
ATOM     27 CL   UNL     1       0.697   8.157  21.385  0.00  0.00    +0.000 Cl
ATOM     28  C   UNL     1       2.651   7.064  19.909  0.00  0.00    +0.000 A 
ENDBRANCH  20  21
ENDBRANCH  10  20
TORSDOF 7
ENDMDL
MODEL 6
REMARK VINA RESULT:      -6.6      3.190      5.292
REMARK  Name = 
REMARK  9 active torsions:
REMARK  status: ('A' for Active; 'I' for Inactive)
REMARK    1  A    between atoms: C_1  and  C_2
REMARK    2  A    between atoms: C_2  and  C_3
REMARK    3  A    between atoms: C_2  and  C_4
REMARK    4  A    between atoms: C_2  and  C_8
REMARK    5  A    between atoms: C_4  and  C_5
REMARK    6  A    between atoms: C_5  and  O_7
REMARK    7  A    between atoms: C_8  and  C_9
REMARK    8  A    between atoms: N_18  and  C_19
REMARK    9  A    between atoms: C_19  and  C_20
REMARK                            x       y       z     vdW  Elec       q    Type
REMARK                         _______ _______ _______ _____ _____    ______ ____
ROOT
ATOM      1  C   UNL     1       4.269   5.406  17.641  0.00  0.00    +0.000 A 
ATOM      2  N   UNL     1       4.054   4.169  17.240  0.00  0.00    +0.000 NA
ATOM      3  C   UNL     1       2.977   3.717  17.948  0.00  0.00    +0.000 A 
ATOM      4  C   UNL     1       2.338   2.471  17.875  0.00  0.00    +0.000 A 
ATOM      5  C   UNL     1       1.236   2.247  18.697  0.00  0.00    +0.000 A 
ATOM      6 CL   UNL     1       0.440   0.720  18.641  0.00  0.00    +0.000 Cl
ATOM      7  C   UNL     1       0.766   3.236  19.565  0.00  0.00    +0.000 A 
ATOM      8  C   UNL     1       1.400   4.482  19.652  0.00  0.00    +0.000 A 
ATOM      9  C   UNL     1       2.519   4.687  18.831  0.00  0.00    +0.000 A 
ATOM     10  N   UNL     1       3.422   5.725  18.687  0.00  0.00    +0.000 N 
ENDROOT
BRANCH   1  11
ATOM     11  C   UNL     1       5.321   6.303  17.056  0.00  0.00    +0.000 C 
BRANCH  11  13
ATOM     12  C   UNL     1       6.674   5.627  19.033  0.00  0.00    +0.000 C 
ATOM     13  C   UNL     1       6.779   5.997  17.536  0.00  0.00    +0.000 C 
ATOM     14  C   UNL     1       7.653   7.259  17.392  0.00  0.00    +0.000 C 
BRANCH  13  15
ATOM     15  C   UNL     1       7.380   4.811  16.730  0.00  0.00    +0.000 C 
BRANCH  15  16
ATOM     16  C   UNL     1       7.073   4.745  15.247  0.00  0.00    +0.000 C 
ATOM     17  O   UNL     1       7.544   5.451  14.373  0.00  0.00    +0.000 OA
BRANCH  16  18
ATOM     18  O   UNL     1       6.162   3.778  14.967  0.00  0.00    +0.000 OA
ATOM     19  H   UNL     1       5.301   4.131  14.670  0.00  0.00    +0.000 HD
ENDBRANCH  16  18
ENDBRANCH  15  16
ENDBRANCH  13  15
ENDBRANCH  11  13
ENDBRANCH   1  11
BRANCH  10  20
ATOM     20  C   UNL     1       3.508   6.892  19.562  0.00  0.00    +0.000 C 
BRANCH  20  21
ATOM     21  C   UNL     1       2.381   7.865  19.280  0.00  0.00    +0.000 A 
ATOM     22  C   UNL     1       2.158   8.356  17.986  0.00  0.00    +0.000 A 
ATOM     23  C   UNL     1       1.189   9.338  17.756  0.00  0.00    +0.000 A 
ATOM     24  C   UNL     1       0.421   9.838  18.811  0.00  0.00    +0.000 A 
ATOM     25 CL   UNL     1      -0.698  11.108  18.465  0.00  0.00    +0.000 Cl
ATOM     26  C   UNL     1       0.590   9.316  20.094  0.00  0.00    +0.000 A 
ATOM     27 CL   UNL     1      -0.337   9.858  21.449  0.00  0.00    +0.000 Cl
ATOM     28  C   UNL     1       1.554   8.327  20.321  0.00  0.00    +0.000 A 
ENDBRANCH  20  21
ENDBRANCH  10  20
TORSDOF 7
ENDMDL
MODEL 7
REMARK VINA RESULT:      -6.5      1.392      5.482
REMARK  Name = 
REMARK  9 active torsions:
REMARK  status: ('A' for Active; 'I' for Inactive)
REMARK    1  A    between atoms: C_1  and  C_2
REMARK    2  A    between atoms: C_2  and  C_3
REMARK    3  A    between atoms: C_2  and  C_4
REMARK    4  A    between atoms: C_2  and  C_8
REMARK    5  A    between atoms: C_4  and  C_5
REMARK    6  A    between atoms: C_5  and  O_7
REMARK    7  A    between atoms: C_8  and  C_9
REMARK    8  A    between atoms: N_18  and  C_19
REMARK    9  A    between atoms: C_19  and  C_20
REMARK                            x       y       z     vdW  Elec       q    Type
REMARK                         _______ _______ _______ _____ _____    ______ ____
ROOT
ATOM      1  C   UNL     1       3.720   4.767  19.147  0.00  0.00    +0.000 A 
ATOM      2  N   UNL     1       2.642   5.409  19.554  0.00  0.00    +0.000 NA
ATOM      3  C   UNL     1       2.654   6.619  18.921  0.00  0.00    +0.000 A 
ATOM      4  C   UNL     1       1.717   7.660  18.996  0.00  0.00    +0.000 A 
ATOM      5  C   UNL     1       1.943   8.805  18.235  0.00  0.00    +0.000 A 
ATOM      6 CL   UNL     1       0.817  10.106  18.320  0.00  0.00    +0.000 Cl
ATOM      7  C   UNL     1       3.062   8.917  17.409  0.00  0.00    +0.000 A 
ATOM      8  C   UNL     1       4.009   7.887  17.330  0.00  0.00    +0.000 A 
ATOM      9  C   UNL     1       3.779   6.748  18.114  0.00  0.00    +0.000 A 
ATOM     10  N   UNL     1       4.496   5.589  18.351  0.00  0.00    +0.000 N 
ENDROOT
BRANCH   1  11
ATOM     11  C   UNL     1       4.051   3.358  19.545  0.00  0.00    +0.000 C 
BRANCH  11  13
ATOM     12  C   UNL     1       4.025   1.004  18.735  0.00  0.00    +0.000 C 
ATOM     13  C   UNL     1       3.144   2.264  18.887  0.00  0.00    +0.000 C 
ATOM     14  C   UNL     1       2.691   2.732  17.490  0.00  0.00    +0.000 C 
BRANCH  13  15
ATOM     15  C   UNL     1       1.919   1.958  19.794  0.00  0.00    +0.000 C 
BRANCH  15  16
ATOM     16  C   UNL     1       1.901   2.570  21.180  0.00  0.00    +0.000 C 
ATOM     17  O   UNL     1       2.733   2.414  22.057  0.00  0.00    +0.000 OA
BRANCH  16  18
ATOM     18  O   UNL     1       0.801   3.344  21.371  0.00  0.00    +0.000 OA
ATOM     19  H   UNL     1       0.492   3.354  22.297  0.00  0.00    +0.000 HD
ENDBRANCH  16  18
ENDBRANCH  15  16
ENDBRANCH  13  15
ENDBRANCH  11  13
ENDBRANCH   1  11
BRANCH  10  20
ATOM     20  C   UNL     1       5.867   5.344  17.912  0.00  0.00    +0.000 C 
BRANCH  20  21
ATOM     21  C   UNL     1       5.906   4.952  16.448  0.00  0.00    +0.000 A 
ATOM     22  C   UNL     1       4.979   4.041  15.922  0.00  0.00    +0.000 A 
ATOM     23  C   UNL     1       5.090   3.599  14.599  0.00  0.00    +0.000 A 
ATOM     24  C   UNL     1       6.122   4.065  13.779  0.00  0.00    +0.000 A 
ATOM     25 CL   UNL     1       6.246   3.412  12.185  0.00  0.00    +0.000 Cl
ATOM     26  C   UNL     1       7.017   5.016  14.272  0.00  0.00    +0.000 A 
ATOM     27 CL   UNL     1       8.303   5.666  13.317  0.00  0.00    +0.000 Cl
ATOM     28  C   UNL     1       6.898   5.465  15.592  0.00  0.00    +0.000 A 
ENDBRANCH  20  21
ENDBRANCH  10  20
TORSDOF 7
ENDMDL
MODEL 8
REMARK VINA RESULT:      -6.5      5.565      9.393
REMARK  Name = 
REMARK  9 active torsions:
REMARK  status: ('A' for Active; 'I' for Inactive)
REMARK    1  A    between atoms: C_1  and  C_2
REMARK    2  A    between atoms: C_2  and  C_3
REMARK    3  A    between atoms: C_2  and  C_4
REMARK    4  A    between atoms: C_2  and  C_8
REMARK    5  A    between atoms: C_4  and  C_5
REMARK    6  A    between atoms: C_5  and  O_7
REMARK    7  A    between atoms: C_8  and  C_9
REMARK    8  A    between atoms: N_18  and  C_19
REMARK    9  A    between atoms: C_19  and  C_20
REMARK                            x       y       z     vdW  Elec       q    Type
REMARK                         _______ _______ _______ _____ _____    ______ ____
ROOT
ATOM      1  C   UNL     1       0.127  11.959  19.937  0.00  0.00    +0.000 A 
ATOM      2  N   UNL     1      -1.089  12.465  20.004  0.00  0.00    +0.000 NA
ATOM      3  C   UNL     1      -1.845  11.767  19.105  0.00  0.00    +0.000 A 
ATOM      4  C   UNL     1      -3.209  11.904  18.811  0.00  0.00    +0.000 A 
ATOM      5  C   UNL     1      -3.765  11.056  17.856  0.00  0.00    +0.000 A 
ATOM      6 CL   UNL     1      -5.435  11.212  17.462  0.00  0.00    +0.000 Cl
ATOM      7  C   UNL     1      -2.994  10.087  17.211  0.00  0.00    +0.000 A 
ATOM      8  C   UNL     1      -1.629   9.945  17.491  0.00  0.00    +0.000 A 
ATOM      9  C   UNL     1      -1.079  10.816  18.443  0.00  0.00    +0.000 A 
ATOM     10  N   UNL     1       0.202  11.023  18.921  0.00  0.00    +0.000 N 
ENDROOT
BRANCH   1  11
ATOM     11  C   UNL     1       1.260  12.390  20.822  0.00  0.00    +0.000 C 
BRANCH  11  13
ATOM     12  C   UNL     1       3.239  13.889  21.011  0.00  0.00    +0.000 C 
ATOM     13  C   UNL     1       1.755  13.856  20.580  0.00  0.00    +0.000 C 
ATOM     14  C   UNL     1       0.954  14.831  21.465  0.00  0.00    +0.000 C 
BRANCH  13  15
ATOM     15  C   UNL     1       1.623  14.234  19.078  0.00  0.00    +0.000 C 
BRANCH  15  16
ATOM     16  C   UNL     1       2.900  14.359  18.271  0.00  0.00    +0.000 C 
ATOM     17  O   UNL     1       3.565  15.368  18.111  0.00  0.00    +0.000 OA
BRANCH  16  18
ATOM     18  O   UNL     1       3.249  13.179  17.698  0.00  0.00    +0.000 OA
ATOM     19  H   UNL     1       4.185  13.144  17.421  0.00  0.00    +0.000 HD
ENDBRANCH  16  18
ENDBRANCH  15  16
ENDBRANCH  13  15
ENDBRANCH  11  13
ENDBRANCH   1  11
BRANCH  10  20
ATOM     20  C   UNL     1       1.414  10.424  18.368  0.00  0.00    +0.000 C 
BRANCH  20  21
ATOM     21  C   UNL     1       1.620   9.022  18.906  0.00  0.00    +0.000 A 
ATOM     22  C   UNL     1       1.250   8.692  20.217  0.00  0.00    +0.000 A 
ATOM     23  C   UNL     1       1.545   7.429  20.742  0.00  0.00    +0.000 A 
ATOM     24  C   UNL     1       2.207   6.475  19.965  0.00  0.00    +0.000 A 
ATOM     25 CL   UNL     1       2.614   4.969  20.707  0.00  0.00    +0.000 Cl
ATOM     26  C   UNL     1       2.530   6.769  18.639  0.00  0.00    +0.000 A 
ATOM     27 CL   UNL     1       3.323   5.638  17.601  0.00  0.00    +0.000 Cl
ATOM     28  C   UNL     1       2.224   8.029  18.113  0.00  0.00    +0.000 A 
ENDBRANCH  20  21
ENDBRANCH  10  20
TORSDOF 7
ENDMDL
MODEL 9
REMARK VINA RESULT:      -6.5      3.165      5.377
REMARK  Name = 
REMARK  9 active torsions:
REMARK  status: ('A' for Active; 'I' for Inactive)
REMARK    1  A    between atoms: C_1  and  C_2
REMARK    2  A    between atoms: C_2  and  C_3
REMARK    3  A    between atoms: C_2  and  C_4
REMARK    4  A    between atoms: C_2  and  C_8
REMARK    5  A    between atoms: C_4  and  C_5
REMARK    6  A    between atoms: C_5  and  O_7
REMARK    7  A    between atoms: C_8  and  C_9
REMARK    8  A    between atoms: N_18  and  C_19
REMARK    9  A    between atoms: C_19  and  C_20
REMARK                            x       y       z     vdW  Elec       q    Type
REMARK                         _______ _______ _______ _____ _____    ______ ____
ROOT
ATOM      1  C   UNL     1       4.397   5.690  18.504  0.00  0.00    +0.000 A 
ATOM      2  N   UNL     1       4.608   4.865  19.512  0.00  0.00    +0.000 NA
ATOM      3  C   UNL     1       3.380   4.413  19.903  0.00  0.00    +0.000 A 
ATOM      4  C   UNL     1       3.062   3.500  20.918  0.00  0.00    +0.000 A 
ATOM      5  C   UNL     1       1.721   3.180  21.120  0.00  0.00    +0.000 A 
ATOM      6 CL   UNL     1       1.300   2.074  22.371  0.00  0.00    +0.000 Cl
ATOM      7  C   UNL     1       0.716   3.741  20.330  0.00  0.00    +0.000 A 
ATOM      8  C   UNL     1       1.020   4.660  19.318  0.00  0.00    +0.000 A 
ATOM      9  C   UNL     1       2.372   4.986  19.136  0.00  0.00    +0.000 A 
ATOM     10  N   UNL     1       3.039   5.874  18.312  0.00  0.00    +0.000 N 
ENDROOT
BRANCH   1  11
ATOM     11  C   UNL     1       5.494   6.353  17.724  0.00  0.00    +0.000 C 
BRANCH  11  13
ATOM     12  C   UNL     1       7.052   6.117  15.797  0.00  0.00    +0.000 C 
ATOM     13  C   UNL     1       6.483   5.363  17.020  0.00  0.00    +0.000 C 
ATOM     14  C   UNL     1       5.716   4.119  16.530  0.00  0.00    +0.000 C 
BRANCH  13  15
ATOM     15  C   UNL     1       7.632   4.963  17.987  0.00  0.00    +0.000 C 
BRANCH  15  16
ATOM     16  C   UNL     1       8.004   5.946  19.079  0.00  0.00    +0.000 C 
ATOM     17  O   UNL     1       8.465   7.063  18.927  0.00  0.00    +0.000 OA
BRANCH  16  18
ATOM     18  O   UNL     1       7.777   5.431  20.315  0.00  0.00    +0.000 OA
ATOM     19  H   UNL     1       7.958   4.473  20.375  0.00  0.00    +0.000 HD
ENDBRANCH  16  18
ENDBRANCH  15  16
ENDBRANCH  13  15
ENDBRANCH  11  13
ENDBRANCH   1  11
BRANCH  10  20
ATOM     20  C   UNL     1       2.401   6.886  17.474  0.00  0.00    +0.000 C 
BRANCH  20  21
ATOM     21  C   UNL     1       1.876   8.033  18.314  0.00  0.00    +0.000 A 
ATOM     22  C   UNL     1       1.509   9.250  17.724  0.00  0.00    +0.000 A 
ATOM     23  C   UNL     1       1.133  10.340  18.516  0.00  0.00    +0.000 A 
ATOM     24  C   UNL     1       1.109  10.229  19.909  0.00  0.00    +0.000 A 
ATOM     25 CL   UNL     1       0.716  11.639  20.826  0.00  0.00    +0.000 Cl
ATOM     26  C   UNL     1       1.416   9.006  20.509  0.00  0.00    +0.000 A 
ATOM     27 CL   UNL     1       1.384   8.776  22.221  0.00  0.00    +0.000 Cl
ATOM     28  C   UNL     1       1.783   7.915  19.713  0.00  0.00    +0.000 A 
ENDBRANCH  20  21
ENDBRANCH  10  20
TORSDOF 7
ENDMDL
