MODEL 1
REMARK VINA RESULT:      -7.1      0.000      0.000
REMARK  Name = 
REMARK  4 active torsions:
REMARK  status: ('A' for Active; 'I' for Inactive)
REMARK    1  A    between atoms: C_1  and  C_2
REMARK    2  A    between atoms: N_11  and  C_12
REMARK    3  A    between atoms: C_12  and  C_13
REMARK    4  A    between atoms: C_15  and  C_16
REMARK                            x       y       z     vdW  Elec       q    Type
REMARK                         _______ _______ _______ _____ _____    ______ ____
ROOT
ATOM      1  C   UNL     1       6.261   3.647  12.720  0.00  0.00    +0.000 C 
ATOM      2  C   UNL     1       6.211   4.024  14.170  0.00  0.00    +0.000 A 
ATOM      3  C   UNL     1       5.421   3.314  15.078  0.00  0.00    +0.000 A 
ATOM      4  C   UNL     1       5.394   3.665  16.435  0.00  0.00    +0.000 A 
ATOM      5  C   UNL     1       6.163   4.726  16.928  0.00  0.00    +0.000 A 
ATOM      6  C   UNL     1       6.938   5.448  15.991  0.00  0.00    +0.000 A 
ATOM      7  C   UNL     1       6.970   5.099  14.639  0.00  0.00    +0.000 A 
ATOM      8  O   UNL     1       7.724   6.534  16.331  0.00  0.00    +0.000 OA
ATOM      9  C   UNL     1       7.428   7.040  17.639  0.00  0.00    +0.000 C 
ATOM     10  C   UNL     1       7.329   5.907  18.656  0.00  0.00    +0.000 C 
ATOM     11  N   UNL     1       6.206   5.056  18.280  0.00  0.00    +0.000 N 
ENDROOT
BRANCH  11  12
ATOM     12  C   UNL     1       5.202   4.664  19.267  0.00  0.00    +0.000 C 
BRANCH  12  13
ATOM     13  C   UNL     1       3.959   5.511  19.303  0.00  0.00    +0.000 A 
ATOM     14  C   UNL     1       3.686   6.654  18.583  0.00  0.00    +0.000 A 
ATOM     15  C   UNL     1       2.463   7.299  18.963  0.00  0.00    +0.000 A 
ATOM     16  C   UNL     1       1.803   6.534  19.912  0.00  0.00    +0.000 A 
ATOM     17  S   UNL     1       2.668   5.124  20.356  0.00  0.00    +0.000 S 
BRANCH  15  18
ATOM     18  C   UNL     1       1.949   8.570  18.472  0.00  0.00    +0.000 C 
ATOM     19  N   UNL     1       1.236   9.311  19.371  0.00  0.00    +0.000 N 
ATOM     20  O   UNL     1       2.108   8.972  17.321  0.00  0.00    +0.000 OA
ATOM     21  H   UNL     1       1.013   8.995  20.305  0.00  0.00    +0.000 HD
ATOM     22  H   UNL     1       0.817  10.168  19.045  0.00  0.00    +0.000 HD
ENDBRANCH  15  18
ENDBRANCH  12  13
ENDBRANCH  11  12
TORSDOF 3
ENDMDL
MODEL 2
REMARK VINA RESULT:      -7.1      3.620      6.598
REMARK  Name = 
REMARK  4 active torsions:
REMARK  status: ('A' for Active; 'I' for Inactive)
REMARK    1  A    between atoms: C_1  and  C_2
REMARK    2  A    between atoms: N_11  and  C_12
REMARK    3  A    between atoms: C_12  and  C_13
REMARK    4  A    between atoms: C_15  and  C_16
REMARK                            x       y       z     vdW  Elec       q    Type
REMARK                         _______ _______ _______ _____ _____    ______ ____
ROOT
ATOM      1  C   UNL     1       0.743   2.510  19.143  0.00  0.00    +0.000 C 
ATOM      2  C   UNL     1       1.873   3.244  18.486  0.00  0.00    +0.000 A 
ATOM      3  C   UNL     1       2.876   2.563  17.792  0.00  0.00    +0.000 A 
ATOM      4  C   UNL     1       3.919   3.261  17.167  0.00  0.00    +0.000 A 
ATOM      5  C   UNL     1       3.985   4.658  17.205  0.00  0.00    +0.000 A 
ATOM      6  C   UNL     1       2.975   5.330  17.931  0.00  0.00    +0.000 A 
ATOM      7  C   UNL     1       1.932   4.639  18.552  0.00  0.00    +0.000 A 
ATOM      8  O   UNL     1       2.929   6.704  18.076  0.00  0.00    +0.000 OA
ATOM      9  C   UNL     1       4.158   7.340  17.697  0.00  0.00    +0.000 C 
ATOM     10  C   UNL     1       4.668   6.797  16.366  0.00  0.00    +0.000 C 
ATOM     11  N   UNL     1       4.973   5.381  16.540  0.00  0.00    +0.000 N 
ENDROOT
BRANCH  11  12
ATOM     12  C   UNL     1       6.251   4.831  16.092  0.00  0.00    +0.000 C 
BRANCH  12  13
ATOM     13  C   UNL     1       6.334   4.481  14.632  0.00  0.00    +0.000 A 
ATOM     14  C   UNL     1       5.489   3.673  13.900  0.00  0.00    +0.000 A 
ATOM     15  C   UNL     1       5.937   3.433  12.559  0.00  0.00    +0.000 A 
ATOM     16  C   UNL     1       7.082   4.174  12.305  0.00  0.00    +0.000 A 
ATOM     17  S   UNL     1       7.611   5.075  13.661  0.00  0.00    +0.000 S 
BRANCH  15  18
ATOM     18  C   UNL     1       5.333   2.546  11.575  0.00  0.00    +0.000 C 
ATOM     19  N   UNL     1       4.119   2.939  11.087  0.00  0.00    +0.000 N 
ATOM     20  O   UNL     1       5.843   1.492  11.201  0.00  0.00    +0.000 OA
ATOM     21  H   UNL     1       3.622   3.756  11.413  0.00  0.00    +0.000 HD
ATOM     22  H   UNL     1       3.647   2.317  10.448  0.00  0.00    +0.000 HD
ENDBRANCH  15  18
ENDBRANCH  12  13
ENDBRANCH  11  12
TORSDOF 3
ENDMDL
MODEL 3
REMARK VINA RESULT:      -7.1      2.717      6.638
REMARK  Name = 
REMARK  4 active torsions:
REMARK  status: ('A' for Active; 'I' for Inactive)
REMARK    1  A    between atoms: C_1  and  C_2
REMARK    2  A    between atoms: N_11  and  C_12
REMARK    3  A    between atoms: C_12  and  C_13
REMARK    4  A    between atoms: C_15  and  C_16
REMARK                            x       y       z     vdW  Elec       q    Type
REMARK                         _______ _______ _______ _____ _____    ______ ____
ROOT
ATOM      1  C   UNL     1       1.155   9.247  20.505  0.00  0.00    +0.000 C 
ATOM      2  C   UNL     1       1.651   7.918  20.017  0.00  0.00    +0.000 A 
ATOM      3  C   UNL     1       2.152   7.761  18.723  0.00  0.00    +0.000 A 
ATOM      4  C   UNL     1       2.629   6.519  18.283  0.00  0.00    +0.000 A 
ATOM      5  C   UNL     1       2.632   5.400  19.125  0.00  0.00    +0.000 A 
ATOM      6  C   UNL     1       2.101   5.572  20.424  0.00  0.00    +0.000 A 
ATOM      7  C   UNL     1       1.628   6.810  20.867  0.00  0.00    +0.000 A 
ATOM      8  O   UNL     1       2.016   4.551  21.352  0.00  0.00    +0.000 OA
ATOM      9  C   UNL     1       2.218   3.257  20.767  0.00  0.00    +0.000 C 
ATOM     10  C   UNL     1       3.431   3.257  19.841  0.00  0.00    +0.000 C 
ATOM     11  N   UNL     1       3.159   4.171  18.737  0.00  0.00    +0.000 N 
ENDROOT
BRANCH  11  12
ATOM     12  C   UNL     1       3.377   3.756  17.353  0.00  0.00    +0.000 C 
BRANCH  12  13
ATOM     13  C   UNL     1       4.692   4.169  16.749  0.00  0.00    +0.000 A 
ATOM     14  C   UNL     1       5.006   4.325  15.416  0.00  0.00    +0.000 A 
ATOM     15  C   UNL     1       6.394   4.589  15.176  0.00  0.00    +0.000 A 
ATOM     16  C   UNL     1       7.064   4.722  16.383  0.00  0.00    +0.000 A 
ATOM     17  S   UNL     1       6.050   4.478  17.741  0.00  0.00    +0.000 S 
BRANCH  15  18
ATOM     18  C   UNL     1       7.059   4.698  13.885  0.00  0.00    +0.000 C 
ATOM     19  N   UNL     1       8.103   5.577  13.824  0.00  0.00    +0.000 N 
ATOM     20  O   UNL     1       6.715   4.071  12.885  0.00  0.00    +0.000 OA
ATOM     21  H   UNL     1       8.380   6.170  14.594  0.00  0.00    +0.000 HD
ATOM     22  H   UNL     1       8.546   5.718  12.930  0.00  0.00    +0.000 HD
ENDBRANCH  15  18
ENDBRANCH  12  13
ENDBRANCH  11  12
TORSDOF 3
ENDMDL
MODEL 4
REMARK VINA RESULT:      -6.9      2.384      6.318
REMARK  Name = 
REMARK  4 active torsions:
REMARK  status: ('A' for Active; 'I' for Inactive)
REMARK    1  A    between atoms: C_1  and  C_2
REMARK    2  A    between atoms: N_11  and  C_12
REMARK    3  A    between atoms: C_12  and  C_13
REMARK    4  A    between atoms: C_15  and  C_16
REMARK                            x       y       z     vdW  Elec       q    Type
REMARK                         _______ _______ _______ _____ _____    ______ ____
ROOT
ATOM      1  C   UNL     1       1.720  10.110  18.305  0.00  0.00    +0.000 C 
ATOM      2  C   UNL     1       2.088   8.665  18.460  0.00  0.00    +0.000 A 
ATOM      3  C   UNL     1       2.860   8.005  17.500  0.00  0.00    +0.000 A 
ATOM      4  C   UNL     1       3.212   6.658  17.663  0.00  0.00    +0.000 A 
ATOM      5  C   UNL     1       2.816   5.934  18.794  0.00  0.00    +0.000 A 
ATOM      6  C   UNL     1       2.017   6.611  19.743  0.00  0.00    +0.000 A 
ATOM      7  C   UNL     1       1.667   7.954  19.586  0.00  0.00    +0.000 A 
ATOM      8  O   UNL     1       1.532   6.014  20.893  0.00  0.00    +0.000 OA
ATOM      9  C   UNL     1       1.649   4.585  20.863  0.00  0.00    +0.000 C 
ATOM     10  C   UNL     1       3.035   4.159  20.389  0.00  0.00    +0.000 C 
ATOM     11  N   UNL     1       3.205   4.615  19.014  0.00  0.00    +0.000 N 
ENDROOT
BRANCH  11  12
ATOM     12  C   UNL     1       3.686   3.703  17.977  0.00  0.00    +0.000 C 
BRANCH  12  13
ATOM     13  C   UNL     1       4.919   4.148  17.240  0.00  0.00    +0.000 A 
ATOM     14  C   UNL     1       5.108   4.247  15.878  0.00  0.00    +0.000 A 
ATOM     15  C   UNL     1       6.454   4.567  15.502  0.00  0.00    +0.000 A 
ATOM     16  C   UNL     1       7.217   4.797  16.637  0.00  0.00    +0.000 A 
ATOM     17  S   UNL     1       6.339   4.578  18.090  0.00  0.00    +0.000 S 
BRANCH  15  18
ATOM     18  C   UNL     1       6.998   4.638  14.153  0.00  0.00    +0.000 C 
ATOM     19  N   UNL     1       6.513   3.719  13.267  0.00  0.00    +0.000 N 
ATOM     20  O   UNL     1       7.858   5.445  13.806  0.00  0.00    +0.000 OA
ATOM     21  H   UNL     1       5.862   2.988  13.518  0.00  0.00    +0.000 HD
ATOM     22  H   UNL     1       6.912   3.705  12.341  0.00  0.00    +0.000 HD
ENDBRANCH  15  18
ENDBRANCH  12  13
ENDBRANCH  11  12
TORSDOF 3
ENDMDL
MODEL 5
REMARK VINA RESULT:      -6.8      2.760      6.447
REMARK  Name = 
REMARK  4 active torsions:
REMARK  status: ('A' for Active; 'I' for Inactive)
REMARK    1  A    between atoms: C_1  and  C_2
REMARK    2  A    between atoms: N_11  and  C_12
REMARK    3  A    between atoms: C_12  and  C_13
REMARK    4  A    between atoms: C_15  and  C_16
REMARK                            x       y       z     vdW  Elec       q    Type
REMARK                         _______ _______ _______ _____ _____    ______ ____
ROOT
ATOM      1  C   UNL     1       1.436   2.494  21.898  0.00  0.00    +0.000 C 
ATOM      2  C   UNL     1       2.262   3.319  20.956  0.00  0.00    +0.000 A 
ATOM      3  C   UNL     1       3.460   2.834  20.427  0.00  0.00    +0.000 A 
ATOM      4  C   UNL     1       4.216   3.607  19.534  0.00  0.00    +0.000 A 
ATOM      5  C   UNL     1       3.793   4.880  19.134  0.00  0.00    +0.000 A 
ATOM      6  C   UNL     1       2.590   5.364  19.698  0.00  0.00    +0.000 A 
ATOM      7  C   UNL     1       1.832   4.595  20.584  0.00  0.00    +0.000 A 
ATOM      8  O   UNL     1       2.065   6.611  19.415  0.00  0.00    +0.000 OA
ATOM      9  C   UNL     1       3.009   7.470  18.760  0.00  0.00    +0.000 C 
ATOM     10  C   UNL     1       3.718   6.739  17.624  0.00  0.00    +0.000 C 
ATOM     11  N   UNL     1       4.489   5.643  18.200  0.00  0.00    +0.000 N 
ENDROOT
BRANCH  11  12
ATOM     12  C   UNL     1       5.892   5.446  17.841  0.00  0.00    +0.000 C 
BRANCH  12  13
ATOM     13  C   UNL     1       6.144   4.954  16.442  0.00  0.00    +0.000 A 
ATOM     14  C   UNL     1       7.100   5.383  15.547  0.00  0.00    +0.000 A 
ATOM     15  C   UNL     1       6.974   4.801  14.242  0.00  0.00    +0.000 A 
ATOM     16  C   UNL     1       5.957   3.859  14.244  0.00  0.00    +0.000 A 
ATOM     17  S   UNL     1       5.161   3.734  15.755  0.00  0.00    +0.000 S 
BRANCH  15  18
ATOM     18  C   UNL     1       7.755   5.123  13.056  0.00  0.00    +0.000 C 
ATOM     19  N   UNL     1       8.814   5.963  13.251  0.00  0.00    +0.000 N 
ATOM     20  O   UNL     1       7.493   4.701  11.932  0.00  0.00    +0.000 OA
ATOM     21  H   UNL     1       9.029   6.396  14.138  0.00  0.00    +0.000 HD
ATOM     22  H   UNL     1       9.339   6.252  12.440  0.00  0.00    +0.000 HD
ENDBRANCH  15  18
ENDBRANCH  12  13
ENDBRANCH  11  12
TORSDOF 3
ENDMDL
MODEL 6
REMARK VINA RESULT:      -6.8      2.970      6.542
REMARK  Name = 
REMARK  4 active torsions:
REMARK  status: ('A' for Active; 'I' for Inactive)
REMARK    1  A    between atoms: C_1  and  C_2
REMARK    2  A    between atoms: N_11  and  C_12
REMARK    3  A    between atoms: C_12  and  C_13
REMARK    4  A    between atoms: C_15  and  C_16
REMARK                            x       y       z     vdW  Elec       q    Type
REMARK                         _______ _______ _______ _____ _____    ______ ____
ROOT
ATOM      1  C   UNL     1       0.987   8.406  21.198  0.00  0.00    +0.000 C 
ATOM      2  C   UNL     1       1.508   7.169  20.530  0.00  0.00    +0.000 A 
ATOM      3  C   UNL     1       2.450   7.241  19.502  0.00  0.00    +0.000 A 
ATOM      4  C   UNL     1       2.943   6.077  18.896  0.00  0.00    +0.000 A 
ATOM      5  C   UNL     1       2.519   4.807  19.305  0.00  0.00    +0.000 A 
ATOM      6  C   UNL     1       1.547   4.754  20.332  0.00  0.00    +0.000 A 
ATOM      7  C   UNL     1       1.057   5.912  20.941  0.00  0.00    +0.000 A 
ATOM      8  O   UNL     1       1.019   3.573  20.818  0.00  0.00    +0.000 OA
ATOM      9  C   UNL     1       1.309   2.451  19.973  0.00  0.00    +0.000 C 
ATOM     10  C   UNL     1       2.779   2.439  19.564  0.00  0.00    +0.000 C 
ATOM     11  N   UNL     1       3.038   3.633  18.766  0.00  0.00    +0.000 N 
ENDROOT
BRANCH  11  12
ATOM     12  C   UNL     1       3.732   3.539  17.483  0.00  0.00    +0.000 C 
BRANCH  12  13
ATOM     13  C   UNL     1       5.098   4.167  17.435  0.00  0.00    +0.000 A 
ATOM     14  C   UNL     1       5.836   4.684  18.479  0.00  0.00    +0.000 A 
ATOM     15  C   UNL     1       7.042   5.340  18.065  0.00  0.00    +0.000 A 
ATOM     16  C   UNL     1       7.211   5.194  16.697  0.00  0.00    +0.000 A 
ATOM     17  S   UNL     1       5.927   4.344  15.949  0.00  0.00    +0.000 S 
BRANCH  15  18
ATOM     18  C   UNL     1       7.977   6.075  18.906  0.00  0.00    +0.000 C 
ATOM     19  N   UNL     1       8.414   5.420  20.022  0.00  0.00    +0.000 N 
ATOM     20  O   UNL     1       8.352   7.221  18.669  0.00  0.00    +0.000 OA
ATOM     21  H   UNL     1       8.082   4.508  20.302  0.00  0.00    +0.000 HD
ATOM     22  H   UNL     1       9.016   5.924  20.655  0.00  0.00    +0.000 HD
ENDBRANCH  15  18
ENDBRANCH  12  13
ENDBRANCH  11  12
TORSDOF 3
ENDMDL
MODEL 7
REMARK VINA RESULT:      -6.7      1.127      1.327
REMARK  Name = 
REMARK  4 active torsions:
REMARK  status: ('A' for Active; 'I' for Inactive)
REMARK    1  A    between atoms: C_1  and  C_2
REMARK    2  A    between atoms: N_11  and  C_12
REMARK    3  A    between atoms: C_12  and  C_13
REMARK    4  A    between atoms: C_15  and  C_16
REMARK                            x       y       z     vdW  Elec       q    Type
REMARK                         _______ _______ _______ _____ _____    ______ ____
ROOT
ATOM      1  C   UNL     1       7.575   4.894  13.021  0.00  0.00    +0.000 C 
ATOM      2  C   UNL     1       6.848   4.796  14.329  0.00  0.00    +0.000 A 
ATOM      3  C   UNL     1       5.521   4.365  14.391  0.00  0.00    +0.000 A 
ATOM      4  C   UNL     1       4.857   4.260  15.621  0.00  0.00    +0.000 A 
ATOM      5  C   UNL     1       5.500   4.570  16.825  0.00  0.00    +0.000 A 
ATOM      6  C   UNL     1       6.836   5.026  16.741  0.00  0.00    +0.000 A 
ATOM      7  C   UNL     1       7.502   5.129  15.517  0.00  0.00    +0.000 A 
ATOM      8  O   UNL     1       7.584   5.393  17.844  0.00  0.00    +0.000 OA
ATOM      9  C   UNL     1       6.783   5.567  19.021  0.00  0.00    +0.000 C 
ATOM     10  C   UNL     1       5.808   4.407  19.196  0.00  0.00    +0.000 C 
ATOM     11  N   UNL     1       4.886   4.414  18.065  0.00  0.00    +0.000 N 
ENDROOT
BRANCH  11  12
ATOM     12  C   UNL     1       3.442   4.326  18.277  0.00  0.00    +0.000 C 
BRANCH  12  13
ATOM     13  C   UNL     1       2.779   5.583  18.768  0.00  0.00    +0.000 A 
ATOM     14  C   UNL     1       2.544   6.751  18.073  0.00  0.00    +0.000 A 
ATOM     15  C   UNL     1       2.019   7.811  18.883  0.00  0.00    +0.000 A 
ATOM     16  C   UNL     1       1.783   7.347  20.169  0.00  0.00    +0.000 A 
ATOM     17  S   UNL     1       2.235   5.710  20.385  0.00  0.00    +0.000 S 
BRANCH  15  18
ATOM     18  C   UNL     1       1.766   9.186  18.477  0.00  0.00    +0.000 C 
ATOM     19  N   UNL     1       1.093   9.959  19.380  0.00  0.00    +0.000 N 
ATOM     20  O   UNL     1       2.102   9.649  17.389  0.00  0.00    +0.000 OA
ATOM     21  H   UNL     1       0.730   9.608  20.256  0.00  0.00    +0.000 HD
ATOM     22  H   UNL     1       0.851  10.898  19.105  0.00  0.00    +0.000 HD
ENDBRANCH  15  18
ENDBRANCH  12  13
ENDBRANCH  11  12
TORSDOF 3
ENDMDL
MODEL 8
REMARK VINA RESULT:      -6.6      3.476      6.676
REMARK  Name = 
REMARK  4 active torsions:
REMARK  status: ('A' for Active; 'I' for Inactive)
REMARK    1  A    between atoms: C_1  and  C_2
REMARK    2  A    between atoms: N_11  and  C_12
REMARK    3  A    between atoms: C_12  and  C_13
REMARK    4  A    between atoms: C_15  and  C_16
REMARK                            x       y       z     vdW  Elec       q    Type
REMARK                         _______ _______ _______ _____ _____    ______ ____
ROOT
ATOM      1  C   UNL     1       1.350   3.325  20.575  0.00  0.00    +0.000 C 
ATOM      2  C   UNL     1       2.368   3.822  19.592  0.00  0.00    +0.000 A 
ATOM      3  C   UNL     1       3.233   2.942  18.937  0.00  0.00    +0.000 A 
ATOM      4  C   UNL     1       4.170   3.416  18.008  0.00  0.00    +0.000 A 
ATOM      5  C   UNL     1       4.262   4.777  17.696  0.00  0.00    +0.000 A 
ATOM      6  C   UNL     1       3.394   5.655  18.385  0.00  0.00    +0.000 A 
ATOM      7  C   UNL     1       2.457   5.187  19.309  0.00  0.00    +0.000 A 
ATOM      8  O   UNL     1       3.392   7.025  18.198  0.00  0.00    +0.000 OA
ATOM      9  C   UNL     1       4.552   7.486  17.491  0.00  0.00    +0.000 C 
ATOM     10  C   UNL     1       4.829   6.617  16.268  0.00  0.00    +0.000 C 
ATOM     11  N   UNL     1       5.138   5.268  16.730  0.00  0.00    +0.000 N 
ENDROOT
BRANCH  11  12
ATOM     12  C   UNL     1       6.318   4.560  16.237  0.00  0.00    +0.000 C 
BRANCH  12  13
ATOM     13  C   UNL     1       6.354   4.312  14.754  0.00  0.00    +0.000 A 
ATOM     14  C   UNL     1       5.537   3.491  14.007  0.00  0.00    +0.000 A 
ATOM     15  C   UNL     1       5.935   3.371  12.634  0.00  0.00    +0.000 A 
ATOM     16  C   UNL     1       7.009   4.211  12.381  0.00  0.00    +0.000 A 
ATOM     17  S   UNL     1       7.537   5.061  13.771  0.00  0.00    +0.000 S 
BRANCH  15  18
ATOM     18  C   UNL     1       5.349   2.506  11.620  0.00  0.00    +0.000 C 
ATOM     19  N   UNL     1       6.047   1.368  11.333  0.00  0.00    +0.000 N 
ATOM     20  O   UNL     1       4.306   2.764  11.023  0.00  0.00    +0.000 OA
ATOM     21  H   UNL     1       6.945   1.144  11.740  0.00  0.00    +0.000 HD
ATOM     22  H   UNL     1       5.699   0.777  10.594  0.00  0.00    +0.000 HD
ENDBRANCH  15  18
ENDBRANCH  12  13
ENDBRANCH  11  12
TORSDOF 3
ENDMDL
MODEL 9
REMARK VINA RESULT:      -6.6      2.443      2.968
REMARK  Name = 
REMARK  4 active torsions:
REMARK  status: ('A' for Active; 'I' for Inactive)
REMARK    1  A    between atoms: C_1  and  C_2
REMARK    2  A    between atoms: N_11  and  C_12
REMARK    3  A    between atoms: C_12  and  C_13
REMARK    4  A    between atoms: C_15  and  C_16
REMARK                            x       y       z     vdW  Elec       q    Type
REMARK                         _______ _______ _______ _____ _____    ______ ____
ROOT
ATOM      1  C   UNL     1       6.236   3.649  12.991  0.00  0.00    +0.000 C 
ATOM      2  C   UNL     1       6.314   4.102  14.418  0.00  0.00    +0.000 A 
ATOM      3  C   UNL     1       5.734   3.358  15.448  0.00  0.00    +0.000 A 
ATOM      4  C   UNL     1       5.827   3.782  16.781  0.00  0.00    +0.000 A 
ATOM      5  C   UNL     1       6.513   4.953  17.126  0.00  0.00    +0.000 A 
ATOM      6  C   UNL     1       7.074   5.705  16.069  0.00  0.00    +0.000 A 
ATOM      7  C   UNL     1       6.987   5.283  14.740  0.00  0.00    +0.000 A 
ATOM      8  O   UNL     1       7.755   6.893  16.259  0.00  0.00    +0.000 OA
ATOM      9  C   UNL     1       7.558   7.437  17.571  0.00  0.00    +0.000 C 
ATOM     10  C   UNL     1       7.723   6.361  18.641  0.00  0.00    +0.000 C 
ATOM     11  N   UNL     1       6.677   5.364  18.447  0.00  0.00    +0.000 N 
ENDROOT
BRANCH  11  12
ATOM     12  C   UNL     1       5.855   4.915  19.569  0.00  0.00    +0.000 C 
BRANCH  12  13
ATOM     13  C   UNL     1       4.389   4.748  19.276  0.00  0.00    +0.000 A 
ATOM     14  C   UNL     1       3.583   3.664  19.554  0.00  0.00    +0.000 A 
ATOM     15  C   UNL     1       2.260   3.773  19.010  0.00  0.00    +0.000 A 
ATOM     16  C   UNL     1       2.097   5.015  18.415  0.00  0.00    +0.000 A 
ATOM     17  S   UNL     1       3.512   5.977  18.472  0.00  0.00    +0.000 S 
BRANCH  15  18
ATOM     18  C   UNL     1       1.213   2.762  19.035  0.00  0.00    +0.000 C 
ATOM     19  N   UNL     1       1.506   1.585  18.408  0.00  0.00    +0.000 N 
ATOM     20  O   UNL     1       0.113   2.932  19.558  0.00  0.00    +0.000 OA
ATOM     21  H   UNL     1       2.364   1.420  17.900  0.00  0.00    +0.000 HD
ATOM     22  H   UNL     1       0.780   0.887  18.357  0.00  0.00    +0.000 HD
ENDBRANCH  15  18
ENDBRANCH  12  13
ENDBRANCH  11  12
TORSDOF 3
ENDMDL
