MODEL 1
REMARK VINA RESULT:      -7.9      0.000      0.000
REMARK  Name = 
REMARK  4 active torsions:
REMARK  status: ('A' for Active; 'I' for Inactive)
REMARK    1  A    between atoms: C_2  and  C_3
REMARK    2  A    between atoms: C_6  and  S_7
REMARK    3  A    between atoms: S_7  and  N_10
REMARK    4  A    between atoms: N_21  and  C_22
REMARK                            x       y       z     vdW  Elec       q    Type
REMARK                         _______ _______ _______ _____ _____    ______ ____
ROOT
ATOM      1  O   UNL     1      -0.953   9.961  19.414  0.00  0.00    +0.000 OA
ATOM      2  C   UNL     1       0.227  10.288  19.284  0.00  0.00    +0.000 C 
ATOM      3  N   UNL     1       0.666  11.608  19.357  0.00  0.00    +0.000 N 
ATOM      4  C   UNL     1       2.018  12.105  19.049  0.00  0.00    +0.000 C 
ATOM      5  C   UNL     1       2.008  13.313  18.106  0.00  0.00    +0.000 C 
ATOM      6  N   UNL     1       1.049  14.344  18.519  0.00  0.00    +0.000 N 
ATOM      7  C   UNL     1      -0.309  13.842  18.823  0.00  0.00    +0.000 C 
ATOM      8  C   UNL     1      -0.264  12.653  19.802  0.00  0.00    +0.000 C 
ENDROOT
BRANCH   6   9
ATOM      9  C   UNL     1       1.486  15.499  19.159  0.00  0.00    +0.000 A 
ATOM     10  C   UNL     1       2.387  15.371  20.231  0.00  0.00    +0.000 A 
ATOM     11  C   UNL     1       2.829  16.479  20.961  0.00  0.00    +0.000 A 
ATOM     12  C   UNL     1       2.386  17.755  20.628  0.00  0.00    +0.000 A 
ATOM     13  C   UNL     1       1.496  17.918  19.571  0.00  0.00    +0.000 A 
ATOM     14  C   UNL     1       1.051  16.802  18.858  0.00  0.00    +0.000 A 
ATOM     15  F   UNL     1       0.198  17.025  17.845  0.00  0.00    +0.000 F 
ENDBRANCH   6   9
BRANCH   2  16
ATOM     16  C   UNL     1       1.211   9.206  19.009  0.00  0.00    +0.000 A 
ATOM     17  C   UNL     1       1.496   8.276  20.016  0.00  0.00    +0.000 A 
ATOM     18  C   UNL     1       2.380   7.222  19.762  0.00  0.00    +0.000 A 
ATOM     19  C   UNL     1       2.935   7.064  18.485  0.00  0.00    +0.000 A 
ATOM     20  C   UNL     1       2.719   8.039  17.509  0.00  0.00    +0.000 A 
ATOM     21  C   UNL     1       1.892   9.128  17.789  0.00  0.00    +0.000 A 
BRANCH  19  22
ATOM     22  S   UNL     1       4.137   5.788  18.179  0.00  0.00    +0.000 S 
ATOM     23  O   UNL     1       4.810   5.518  19.435  0.00  0.00    +0.000 OA
ATOM     24  O   UNL     1       3.432   4.734  17.494  0.00  0.00    +0.000 OA
BRANCH  22  25
ATOM     25  N   UNL     1       5.338   6.442  17.134  0.00  0.00    +0.000 NA
ATOM     26  C   UNL     1       5.528   5.856  15.770  0.00  0.00    +0.000 C 
ATOM     27  C   UNL     1       6.133   4.451  15.848  0.00  0.00    +0.000 C 
ATOM     28  O   UNL     1       7.407   4.483  16.509  0.00  0.00    +0.000 OA
ATOM     29  C   UNL     1       7.321   5.059  17.823  0.00  0.00    +0.000 C 
ATOM     30  C   UNL     1       6.701   6.469  17.790  0.00  0.00    +0.000 C 
ENDBRANCH  22  25
ENDBRANCH  19  22
ENDBRANCH   2  16
TORSDOF 4
ENDMDL
MODEL 2
REMARK VINA RESULT:      -7.7      1.831      2.529
REMARK  Name = 
REMARK  4 active torsions:
REMARK  status: ('A' for Active; 'I' for Inactive)
REMARK    1  A    between atoms: C_2  and  C_3
REMARK    2  A    between atoms: C_6  and  S_7
REMARK    3  A    between atoms: S_7  and  N_10
REMARK    4  A    between atoms: N_21  and  C_22
REMARK                            x       y       z     vdW  Elec       q    Type
REMARK                         _______ _______ _______ _____ _____    ______ ____
ROOT
ATOM      1  O   UNL     1      -1.130  10.040  19.388  0.00  0.00    +0.000 OA
ATOM      2  C   UNL     1       0.056  10.359  19.314  0.00  0.00    +0.000 C 
ATOM      3  N   UNL     1       0.502  11.675  19.418  0.00  0.00    +0.000 N 
ATOM      4  C   UNL     1       1.870  12.163  19.174  0.00  0.00    +0.000 C 
ATOM      5  C   UNL     1       1.912  13.380  18.242  0.00  0.00    +0.000 C 
ATOM      6  N   UNL     1       0.943  14.414  18.621  0.00  0.00    +0.000 N 
ATOM      7  C   UNL     1      -0.431  13.921  18.860  0.00  0.00    +0.000 C 
ATOM      8  C   UNL     1      -0.439  12.724  19.830  0.00  0.00    +0.000 C 
ENDROOT
BRANCH   6   9
ATOM      9  C   UNL     1       1.360  15.561  19.290  0.00  0.00    +0.000 A 
ATOM     10  C   UNL     1       1.361  16.780  18.591  0.00  0.00    +0.000 A 
ATOM     11  C   UNL     1       1.818  17.966  19.174  0.00  0.00    +0.000 A 
ATOM     12  C   UNL     1       2.282  17.965  20.485  0.00  0.00    +0.000 A 
ATOM     13  C   UNL     1       2.293  16.775  21.207  0.00  0.00    +0.000 A 
ATOM     14  C   UNL     1       1.846  15.595  20.610  0.00  0.00    +0.000 A 
ATOM     15  F   UNL     1       1.875  14.481  21.359  0.00  0.00    +0.000 F 
ENDBRANCH   6   9
BRANCH   2  16
ATOM     16  C   UNL     1       1.044   9.271  19.074  0.00  0.00    +0.000 A 
ATOM     17  C   UNL     1       1.335   8.378  20.111  0.00  0.00    +0.000 A 
ATOM     18  C   UNL     1       2.221   7.318  19.891  0.00  0.00    +0.000 A 
ATOM     19  C   UNL     1       2.773   7.118  18.619  0.00  0.00    +0.000 A 
ATOM     20  C   UNL     1       2.552   8.059  17.611  0.00  0.00    +0.000 A 
ATOM     21  C   UNL     1       1.722   9.154  17.855  0.00  0.00    +0.000 A 
BRANCH  19  22
ATOM     22  S   UNL     1       3.979   5.837  18.354  0.00  0.00    +0.000 S 
ATOM     23  O   UNL     1       4.973   6.362  17.436  0.00  0.00    +0.000 OA
ATOM     24  O   UNL     1       4.372   5.383  19.663  0.00  0.00    +0.000 OA
BRANCH  22  25
ATOM     25  N   UNL     1       3.200   4.551  17.516  0.00  0.00    +0.000 NA
ATOM     26  C   UNL     1       1.770   4.232  17.819  0.00  0.00    +0.000 C 
ATOM     27  C   UNL     1       1.620   3.624  19.217  0.00  0.00    +0.000 C 
ATOM     28  O   UNL     1       2.388   2.416  19.330  0.00  0.00    +0.000 OA
ATOM     29  C   UNL     1       3.777   2.627  19.027  0.00  0.00    +0.000 C 
ATOM     30  C   UNL     1       3.970   3.254  17.633  0.00  0.00    +0.000 C 
ENDBRANCH  22  25
ENDBRANCH  19  22
ENDBRANCH   2  16
TORSDOF 4
ENDMDL
MODEL 3
REMARK VINA RESULT:      -7.7      0.960      1.267
REMARK  Name = 
REMARK  4 active torsions:
REMARK  status: ('A' for Active; 'I' for Inactive)
REMARK    1  A    between atoms: C_2  and  C_3
REMARK    2  A    between atoms: C_6  and  S_7
REMARK    3  A    between atoms: S_7  and  N_10
REMARK    4  A    between atoms: N_21  and  C_22
REMARK                            x       y       z     vdW  Elec       q    Type
REMARK                         _______ _______ _______ _____ _____    ______ ____
ROOT
ATOM      1  O   UNL     1      -1.063   9.992  19.314  0.00  0.00    +0.000 OA
ATOM      2  C   UNL     1       0.124  10.316  19.278  0.00  0.00    +0.000 C 
ATOM      3  N   UNL     1       0.564  11.624  19.466  0.00  0.00    +0.000 N 
ATOM      4  C   UNL     1       1.936  12.128  19.274  0.00  0.00    +0.000 C 
ATOM      5  C   UNL     1       1.990  13.396  18.415  0.00  0.00    +0.000 C 
ATOM      6  N   UNL     1       1.012  14.406  18.837  0.00  0.00    +0.000 N 
ATOM      7  C   UNL     1      -0.364  13.898  19.023  0.00  0.00    +0.000 C 
ATOM      8  C   UNL     1      -0.386  12.646  19.922  0.00  0.00    +0.000 C 
ENDROOT
BRANCH   6   9
ATOM      9  C   UNL     1       1.415  15.512  19.577  0.00  0.00    +0.000 A 
ATOM     10  C   UNL     1       1.443  16.768  18.945  0.00  0.00    +0.000 A 
ATOM     11  C   UNL     1       1.889  17.918  19.604  0.00  0.00    +0.000 A 
ATOM     12  C   UNL     1       2.313  17.843  20.926  0.00  0.00    +0.000 A 
ATOM     13  C   UNL     1       2.297  16.617  21.583  0.00  0.00    +0.000 A 
ATOM     14  C   UNL     1       1.862  15.472  20.911  0.00  0.00    +0.000 A 
ATOM     15  F   UNL     1       1.864  14.320  21.600  0.00  0.00    +0.000 F 
ENDBRANCH   6   9
BRANCH   2  16
ATOM     16  C   UNL     1       1.118   9.245  18.993  0.00  0.00    +0.000 A 
ATOM     17  C   UNL     1       1.418   8.313  19.993  0.00  0.00    +0.000 A 
ATOM     18  C   UNL     1       2.311   7.269  19.728  0.00  0.00    +0.000 A 
ATOM     19  C   UNL     1       2.860   7.124  18.448  0.00  0.00    +0.000 A 
ATOM     20  C   UNL     1       2.630   8.102  17.479  0.00  0.00    +0.000 A 
ATOM     21  C   UNL     1       1.794   9.181  17.768  0.00  0.00    +0.000 A 
BRANCH  19  22
ATOM     22  S   UNL     1       4.074   5.862  18.128  0.00  0.00    +0.000 S 
ATOM     23  O   UNL     1       4.872   5.715  19.331  0.00  0.00    +0.000 OA
ATOM     24  O   UNL     1       3.347   4.736  17.601  0.00  0.00    +0.000 OA
BRANCH  22  25
ATOM     25  N   UNL     1       5.147   6.462  16.924  0.00  0.00    +0.000 NA
ATOM     26  C   UNL     1       5.422   5.639  15.705  0.00  0.00    +0.000 C 
ATOM     27  C   UNL     1       6.248   4.396  16.048  0.00  0.00    +0.000 C 
ATOM     28  O   UNL     1       7.503   4.766  16.636  0.00  0.00    +0.000 OA
ATOM     29  C   UNL     1       7.332   5.586  17.805  0.00  0.00    +0.000 C 
ATOM     30  C   UNL     1       6.491   6.842  17.506  0.00  0.00    +0.000 C 
ENDBRANCH  22  25
ENDBRANCH  19  22
ENDBRANCH   2  16
TORSDOF 4
ENDMDL
MODEL 4
REMARK VINA RESULT:      -7.7      1.687      2.302
REMARK  Name = 
REMARK  4 active torsions:
REMARK  status: ('A' for Active; 'I' for Inactive)
REMARK    1  A    between atoms: C_2  and  C_3
REMARK    2  A    between atoms: C_6  and  S_7
REMARK    3  A    between atoms: S_7  and  N_10
REMARK    4  A    between atoms: N_21  and  C_22
REMARK                            x       y       z     vdW  Elec       q    Type
REMARK                         _______ _______ _______ _____ _____    ______ ____
ROOT
ATOM      1  O   UNL     1      -1.041  10.098  20.054  0.00  0.00    +0.000 OA
ATOM      2  C   UNL     1       0.109  10.408  19.746  0.00  0.00    +0.000 C 
ATOM      3  N   UNL     1       0.557  11.727  19.698  0.00  0.00    +0.000 N 
ATOM      4  C   UNL     1       1.854  12.198  19.182  0.00  0.00    +0.000 C 
ATOM      5  C   UNL     1       1.715  13.365  18.196  0.00  0.00    +0.000 C 
ATOM      6  N   UNL     1       0.825  14.420  18.694  0.00  0.00    +0.000 N 
ATOM      7  C   UNL     1      -0.478  13.944  19.206  0.00  0.00    +0.000 C 
ATOM      8  C   UNL     1      -0.299  12.798  20.222  0.00  0.00    +0.000 C 
ENDROOT
BRANCH   6   9
ATOM      9  C   UNL     1       1.350  15.599  19.214  0.00  0.00    +0.000 A 
ATOM     10  C   UNL     1       2.301  15.511  20.245  0.00  0.00    +0.000 A 
ATOM     11  C   UNL     1       2.834  16.648  20.859  0.00  0.00    +0.000 A 
ATOM     12  C   UNL     1       2.433  17.915  20.446  0.00  0.00    +0.000 A 
ATOM     13  C   UNL     1       1.495  18.039  19.426  0.00  0.00    +0.000 A 
ATOM     14  C   UNL     1       0.960  16.895  18.830  0.00  0.00    +0.000 A 
ATOM     15  F   UNL     1       0.064  17.079  17.847  0.00  0.00    +0.000 F 
ENDBRANCH   6   9
BRANCH   2  16
ATOM     16  C   UNL     1       1.043   9.307  19.385  0.00  0.00    +0.000 A 
ATOM     17  C   UNL     1       1.418   8.385  20.369  0.00  0.00    +0.000 A 
ATOM     18  C   UNL     1       2.254   7.313  20.039  0.00  0.00    +0.000 A 
ATOM     19  C   UNL     1       2.670   7.131  18.713  0.00  0.00    +0.000 A 
ATOM     20  C   UNL     1       2.369   8.098  17.752  0.00  0.00    +0.000 A 
ATOM     21  C   UNL     1       1.592   9.204  18.101  0.00  0.00    +0.000 A 
BRANCH  19  22
ATOM     22  S   UNL     1       3.815   5.833  18.301  0.00  0.00    +0.000 S 
ATOM     23  O   UNL     1       4.724   6.359  17.301  0.00  0.00    +0.000 OA
ATOM     24  O   UNL     1       4.325   5.339  19.555  0.00  0.00    +0.000 OA
BRANCH  22  25
ATOM     25  N   UNL     1       2.928   4.583  17.516  0.00  0.00    +0.000 NA
ATOM     26  C   UNL     1       1.535   4.273  17.966  0.00  0.00    +0.000 C 
ATOM     27  C   UNL     1       1.530   3.624  19.353  0.00  0.00    +0.000 C 
ATOM     28  O   UNL     1       2.285   2.404  19.346  0.00  0.00    +0.000 OA
ATOM     29  C   UNL     1       3.636   2.606  18.897  0.00  0.00    +0.000 C 
ATOM     30  C   UNL     1       3.685   3.273  17.510  0.00  0.00    +0.000 C 
ENDBRANCH  22  25
ENDBRANCH  19  22
ENDBRANCH   2  16
TORSDOF 4
ENDMDL
MODEL 5
REMARK VINA RESULT:      -7.7      3.424      4.958
REMARK  Name = 
REMARK  4 active torsions:
REMARK  status: ('A' for Active; 'I' for Inactive)
REMARK    1  A    between atoms: C_2  and  C_3
REMARK    2  A    between atoms: C_6  and  S_7
REMARK    3  A    between atoms: S_7  and  N_10
REMARK    4  A    between atoms: N_21  and  C_22
REMARK                            x       y       z     vdW  Elec       q    Type
REMARK                         _______ _______ _______ _____ _____    ______ ____
ROOT
ATOM      1  O   UNL     1       1.532  11.884  18.353  0.00  0.00    +0.000 OA
ATOM      2  C   UNL     1       0.949  11.046  19.038  0.00  0.00    +0.000 C 
ATOM      3  N   UNL     1      -0.144  11.348  19.849  0.00  0.00    +0.000 N 
ATOM      4  C   UNL     1      -0.792  10.454  20.823  0.00  0.00    +0.000 C 
ATOM      5  C   UNL     1      -0.987  11.109  22.196  0.00  0.00    +0.000 C 
ATOM      6  N   UNL     1      -1.572  12.451  22.102  0.00  0.00    +0.000 N 
ATOM      7  C   UNL     1      -0.916  13.348  21.126  0.00  0.00    +0.000 C 
ATOM      8  C   UNL     1      -0.770  12.672  19.749  0.00  0.00    +0.000 C 
ENDROOT
BRANCH   6   9
ATOM      9  C   UNL     1      -2.918  12.655  22.388  0.00  0.00    +0.000 A 
ATOM     10  C   UNL     1      -3.295  12.856  23.727  0.00  0.00    +0.000 A 
ATOM     11  C   UNL     1      -4.633  13.012  24.103  0.00  0.00    +0.000 A 
ATOM     12  C   UNL     1      -5.636  12.982  23.140  0.00  0.00    +0.000 A 
ATOM     13  C   UNL     1      -5.297  12.788  21.804  0.00  0.00    +0.000 A 
ATOM     14  C   UNL     1      -3.959  12.619  21.443  0.00  0.00    +0.000 A 
ATOM     15  F   UNL     1      -3.696  12.442  20.138  0.00  0.00    +0.000 F 
ENDBRANCH   6   9
BRANCH   2  16
ATOM     16  C   UNL     1       1.470   9.652  19.007  0.00  0.00    +0.000 A 
ATOM     17  C   UNL     1       1.994   9.150  17.810  0.00  0.00    +0.000 A 
ATOM     18  C   UNL     1       2.535   7.861  17.771  0.00  0.00    +0.000 A 
ATOM     19  C   UNL     1       2.604   7.094  18.942  0.00  0.00    +0.000 A 
ATOM     20  C   UNL     1       2.002   7.560  20.113  0.00  0.00    +0.000 A 
ATOM     21  C   UNL     1       1.401   8.818  20.129  0.00  0.00    +0.000 A 
BRANCH  19  22
ATOM     22  S   UNL     1       3.196   5.417  18.884  0.00  0.00    +0.000 S 
ATOM     23  O   UNL     1       4.242   5.362  17.881  0.00  0.00    +0.000 OA
ATOM     24  O   UNL     1       3.481   5.049  20.248  0.00  0.00    +0.000 OA
BRANCH  22  25
ATOM     25  N   UNL     1       1.918   4.432  18.284  0.00  0.00    +0.000 NA
ATOM     26  C   UNL     1       1.040   3.695  19.246  0.00  0.00    +0.000 C 
ATOM     27  C   UNL     1       1.803   2.561  19.938  0.00  0.00    +0.000 C 
ATOM     28  O   UNL     1       2.305   1.624  18.974  0.00  0.00    +0.000 OA
ATOM     29  C   UNL     1       3.141   2.255  17.990  0.00  0.00    +0.000 C 
ATOM     30  C   UNL     1       2.416   3.414  17.280  0.00  0.00    +0.000 C 
ENDBRANCH  22  25
ENDBRANCH  19  22
ENDBRANCH   2  16
TORSDOF 4
ENDMDL
MODEL 6
REMARK VINA RESULT:      -7.6      3.419      4.773
REMARK  Name = 
REMARK  4 active torsions:
REMARK  status: ('A' for Active; 'I' for Inactive)
REMARK    1  A    between atoms: C_2  and  C_3
REMARK    2  A    between atoms: C_6  and  S_7
REMARK    3  A    between atoms: S_7  and  N_10
REMARK    4  A    between atoms: N_21  and  C_22
REMARK                            x       y       z     vdW  Elec       q    Type
REMARK                         _______ _______ _______ _____ _____    ______ ____
ROOT
ATOM      1  O   UNL     1       2.204   9.951  17.183  0.00  0.00    +0.000 OA
ATOM      2  C   UNL     1       1.863   9.385  18.221  0.00  0.00    +0.000 C 
ATOM      3  N   UNL     1       0.999   9.955  19.153  0.00  0.00    +0.000 N 
ATOM      4  C   UNL     1       0.673   9.428  20.490  0.00  0.00    +0.000 C 
ATOM      5  C   UNL     1       0.799  10.483  21.595  0.00  0.00    +0.000 C 
ATOM      6  N   UNL     1       0.136  11.745  21.248  0.00  0.00    +0.000 N 
ATOM      7  C   UNL     1       0.470  12.275  19.907  0.00  0.00    +0.000 C 
ATOM      8  C   UNL     1       0.295  11.199  18.817  0.00  0.00    +0.000 C 
ENDROOT
BRANCH   6   9
ATOM      9  C   UNL     1      -1.101  12.066  21.797  0.00  0.00    +0.000 A 
ATOM     10  C   UNL     1      -1.865  13.075  21.183  0.00  0.00    +0.000 A 
ATOM     11  C   UNL     1      -3.092  13.495  21.706  0.00  0.00    +0.000 A 
ATOM     12  C   UNL     1      -3.596  12.904  22.860  0.00  0.00    +0.000 A 
ATOM     13  C   UNL     1      -2.868  11.902  23.492  0.00  0.00    +0.000 A 
ATOM     14  C   UNL     1      -1.637  11.500  22.968  0.00  0.00    +0.000 A 
ATOM     15  F   UNL     1      -0.984  10.523  23.619  0.00  0.00    +0.000 F 
ENDBRANCH   6   9
BRANCH   2  16
ATOM     16  C   UNL     1       2.435   8.037  18.486  0.00  0.00    +0.000 A 
ATOM     17  C   UNL     1       3.414   7.533  17.622  0.00  0.00    +0.000 A 
ATOM     18  C   UNL     1       4.001   6.290  17.881  0.00  0.00    +0.000 A 
ATOM     19  C   UNL     1       3.651   5.576  19.034  0.00  0.00    +0.000 A 
ATOM     20  C   UNL     1       2.613   6.037  19.847  0.00  0.00    +0.000 A 
ATOM     21  C   UNL     1       1.981   7.244  19.546  0.00  0.00    +0.000 A 
BRANCH  19  22
ATOM     22  S   UNL     1       4.314   3.950  19.322  0.00  0.00    +0.000 S 
ATOM     23  O   UNL     1       5.749   4.026  19.118  0.00  0.00    +0.000 OA
ATOM     24  O   UNL     1       3.786   3.524  20.593  0.00  0.00    +0.000 OA
BRANCH  22  25
ATOM     25  N   UNL     1       3.718   2.915  18.082  0.00  0.00    +0.000 NA
ATOM     26  C   UNL     1       2.715   3.438  17.103  0.00  0.00    +0.000 C 
ATOM     27  C   UNL     1       1.359   3.681  17.773  0.00  0.00    +0.000 C 
ATOM     28  O   UNL     1       0.848   2.465  18.339  0.00  0.00    +0.000 OA
ATOM     29  C   UNL     1       1.766   1.876  19.276  0.00  0.00    +0.000 C 
ATOM     30  C   UNL     1       3.149   1.631  18.645  0.00  0.00    +0.000 C 
ENDBRANCH  22  25
ENDBRANCH  19  22
ENDBRANCH   2  16
TORSDOF 4
ENDMDL
MODEL 7
REMARK VINA RESULT:      -7.6      3.489      4.765
REMARK  Name = 
REMARK  4 active torsions:
REMARK  status: ('A' for Active; 'I' for Inactive)
REMARK    1  A    between atoms: C_2  and  C_3
REMARK    2  A    between atoms: C_6  and  S_7
REMARK    3  A    between atoms: S_7  and  N_10
REMARK    4  A    between atoms: N_21  and  C_22
REMARK                            x       y       z     vdW  Elec       q    Type
REMARK                         _______ _______ _______ _____ _____    ______ ____
ROOT
ATOM      1  O   UNL     1       1.309  11.929  18.436  0.00  0.00    +0.000 OA
ATOM      2  C   UNL     1       0.786  11.180  19.261  0.00  0.00    +0.000 C 
ATOM      3  N   UNL     1      -0.206  11.594  20.148  0.00  0.00    +0.000 N 
ATOM      4  C   UNL     1      -0.762  10.820  21.271  0.00  0.00    +0.000 C 
ATOM      5  C   UNL     1      -0.794  11.612  22.583  0.00  0.00    +0.000 C 
ATOM      6  N   UNL     1      -1.359  12.955  22.417  0.00  0.00    +0.000 N 
ATOM      7  C   UNL     1      -0.794  13.732  21.292  0.00  0.00    +0.000 C 
ATOM      8  C   UNL     1      -0.813  12.921  19.982  0.00  0.00    +0.000 C 
ENDROOT
BRANCH   6   9
ATOM      9  C   UNL     1      -2.662  13.229  22.822  0.00  0.00    +0.000 A 
ATOM     10  C   UNL     1      -3.722  12.736  22.042  0.00  0.00    +0.000 A 
ATOM     11  C   UNL     1      -5.058  13.014  22.350  0.00  0.00    +0.000 A 
ATOM     12  C   UNL     1      -5.369  13.791  23.461  0.00  0.00    +0.000 A 
ATOM     13  C   UNL     1      -4.344  14.293  24.256  0.00  0.00    +0.000 A 
ATOM     14  C   UNL     1      -3.013  14.020  23.931  0.00  0.00    +0.000 A 
ATOM     15  F   UNL     1      -2.069  14.527  24.739  0.00  0.00    +0.000 F 
ENDBRANCH   6   9
BRANCH   2  16
ATOM     16  C   UNL     1       1.272   9.775  19.315  0.00  0.00    +0.000 A 
ATOM     17  C   UNL     1       1.792   9.191  18.154  0.00  0.00    +0.000 A 
ATOM     18  C   UNL     1       2.301   7.889  18.195  0.00  0.00    +0.000 A 
ATOM     19  C   UNL     1       2.343   7.190  19.408  0.00  0.00    +0.000 A 
ATOM     20  C   UNL     1       1.745   7.738  20.545  0.00  0.00    +0.000 A 
ATOM     21  C   UNL     1       1.175   9.010  20.483  0.00  0.00    +0.000 A 
BRANCH  19  22
ATOM     22  S   UNL     1       2.893   5.498  19.454  0.00  0.00    +0.000 S 
ATOM     23  O   UNL     1       4.343   5.516  19.508  0.00  0.00    +0.000 OA
ATOM     24  O   UNL     1       2.138   4.863  20.503  0.00  0.00    +0.000 OA
BRANCH  22  25
ATOM     25  N   UNL     1       2.489   4.777  17.944  0.00  0.00    +0.000 NA
ATOM     26  C   UNL     1       1.335   3.826  17.866  0.00  0.00    +0.000 C 
ATOM     27  C   UNL     1       1.646   2.514  18.592  0.00  0.00    +0.000 C 
ATOM     28  O   UNL     1       2.797   1.877  18.018  0.00  0.00    +0.000 OA
ATOM     29  C   UNL     1       3.952   2.734  18.027  0.00  0.00    +0.000 C 
ATOM     30  C   UNL     1       3.675   4.074  17.320  0.00  0.00    +0.000 C 
ENDBRANCH  22  25
ENDBRANCH  19  22
ENDBRANCH   2  16
TORSDOF 4
ENDMDL
MODEL 8
REMARK VINA RESULT:      -7.6      1.750      2.432
REMARK  Name = 
REMARK  4 active torsions:
REMARK  status: ('A' for Active; 'I' for Inactive)
REMARK    1  A    between atoms: C_2  and  C_3
REMARK    2  A    between atoms: C_6  and  S_7
REMARK    3  A    between atoms: S_7  and  N_10
REMARK    4  A    between atoms: N_21  and  C_22
REMARK                            x       y       z     vdW  Elec       q    Type
REMARK                         _______ _______ _______ _____ _____    ______ ____
ROOT
ATOM      1  O   UNL     1      -1.332  10.668  19.167  0.00  0.00    +0.000 OA
ATOM      2  C   UNL     1      -0.114  10.829  19.244  0.00  0.00    +0.000 C 
ATOM      3  N   UNL     1       0.481  12.077  19.417  0.00  0.00    +0.000 N 
ATOM      4  C   UNL     1       1.921  12.383  19.350  0.00  0.00    +0.000 C 
ATOM      5  C   UNL     1       2.235  13.578  18.443  0.00  0.00    +0.000 C 
ATOM      6  N   UNL     1       1.369  14.732  18.711  0.00  0.00    +0.000 N 
ATOM      7  C   UNL     1      -0.076  14.423  18.773  0.00  0.00    +0.000 C 
ATOM      8  C   UNL     1      -0.360  13.242  19.721  0.00  0.00    +0.000 C 
ENDROOT
BRANCH   6   9
ATOM      9  C   UNL     1       1.845  15.818  19.439  0.00  0.00    +0.000 A 
ATOM     10  C   UNL     1       2.780  15.582  20.461  0.00  0.00    +0.000 A 
ATOM     11  C   UNL     1       3.264  16.612  21.274  0.00  0.00    +0.000 A 
ATOM     12  C   UNL     1       2.827  17.918  21.077  0.00  0.00    +0.000 A 
ATOM     13  C   UNL     1       1.904  18.188  20.072  0.00  0.00    +0.000 A 
ATOM     14  C   UNL     1       1.418  17.148  19.275  0.00  0.00    +0.000 A 
ATOM     15  F   UNL     1       0.533  17.473  18.319  0.00  0.00    +0.000 F 
ENDBRANCH   6   9
BRANCH   2  16
ATOM     16  C   UNL     1       0.746   9.622  19.116  0.00  0.00    +0.000 A 
ATOM     17  C   UNL     1       1.239   9.270  17.855  0.00  0.00    +0.000 A 
ATOM     18  C   UNL     1       2.091   8.168  17.721  0.00  0.00    +0.000 A 
ATOM     19  C   UNL     1       2.495   7.452  18.855  0.00  0.00    +0.000 A 
ATOM     20  C   UNL     1       1.934   7.749  20.099  0.00  0.00    +0.000 A 
ATOM     21  C   UNL     1       1.030   8.805  20.217  0.00  0.00    +0.000 A 
BRANCH  19  22
ATOM     22  S   UNL     1       3.494   5.990  18.686  0.00  0.00    +0.000 S 
ATOM     23  O   UNL     1       4.648   6.345  17.881  0.00  0.00    +0.000 OA
ATOM     24  O   UNL     1       3.674   5.475  20.020  0.00  0.00    +0.000 OA
BRANCH  22  25
ATOM     25  N   UNL     1       2.602   4.852  17.753  0.00  0.00    +0.000 NA
ATOM     26  C   UNL     1       1.458   4.119  18.378  0.00  0.00    +0.000 C 
ATOM     27  C   UNL     1       1.947   3.115  19.427  0.00  0.00    +0.000 C 
ATOM     28  O   UNL     1       2.831   2.152  18.835  0.00  0.00    +0.000 OA
ATOM     29  C   UNL     1       3.952   2.775  18.184  0.00  0.00    +0.000 C 
ATOM     30  C   UNL     1       3.502   3.805  17.131  0.00  0.00    +0.000 C 
ENDBRANCH  22  25
ENDBRANCH  19  22
ENDBRANCH   2  16
TORSDOF 4
ENDMDL
MODEL 9
REMARK VINA RESULT:      -7.6      3.302      4.814
REMARK  Name = 
REMARK  4 active torsions:
REMARK  status: ('A' for Active; 'I' for Inactive)
REMARK    1  A    between atoms: C_2  and  C_3
REMARK    2  A    between atoms: C_6  and  S_7
REMARK    3  A    between atoms: S_7  and  N_10
REMARK    4  A    between atoms: N_21  and  C_22
REMARK                            x       y       z     vdW  Elec       q    Type
REMARK                         _______ _______ _______ _____ _____    ______ ____
ROOT
ATOM      1  O   UNL     1       1.984  11.362  17.886  0.00  0.00    +0.000 OA
ATOM      2  C   UNL     1       1.333  10.616  18.616  0.00  0.00    +0.000 C 
ATOM      3  N   UNL     1       0.182  11.021  19.289  0.00  0.00    +0.000 N 
ATOM      4  C   UNL     1      -0.558  10.254  20.306  0.00  0.00    +0.000 C 
ATOM      5  C   UNL     1      -0.855  11.071  21.570  0.00  0.00    +0.000 C 
ATOM      6  N   UNL     1      -1.409  12.396  21.267  0.00  0.00    +0.000 N 
ATOM      7  C   UNL     1      -0.660  13.165  20.249  0.00  0.00    +0.000 C 
ATOM      8  C   UNL     1      -0.412  12.327  18.980  0.00  0.00    +0.000 C 
ENDROOT
BRANCH   6   9
ATOM      9  C   UNL     1      -2.770  12.642  21.413  0.00  0.00    +0.000 A 
ATOM     10  C   UNL     1      -3.537  12.872  20.257  0.00  0.00    +0.000 A 
ATOM     11  C   UNL     1      -4.899  13.182  20.323  0.00  0.00    +0.000 A 
ATOM     12  C   UNL     1      -5.537  13.260  21.556  0.00  0.00    +0.000 A 
ATOM     13  C   UNL     1      -4.809  13.036  22.720  0.00  0.00    +0.000 A 
ATOM     14  C   UNL     1      -3.446  12.741  22.643  0.00  0.00    +0.000 A 
ATOM     15  F   UNL     1      -2.799  12.528  23.800  0.00  0.00    +0.000 F 
ENDBRANCH   6   9
BRANCH   2  16
ATOM     16  C   UNL     1       1.832   9.225  18.795  0.00  0.00    +0.000 A 
ATOM     17  C   UNL     1       2.536   8.617  17.749  0.00  0.00    +0.000 A 
ATOM     18  C   UNL     1       3.058   7.330  17.916  0.00  0.00    +0.000 A 
ATOM     19  C   UNL     1       2.924   6.672  19.146  0.00  0.00    +0.000 A 
ATOM     20  C   UNL     1       2.147   7.243  20.156  0.00  0.00    +0.000 A 
ATOM     21  C   UNL     1       1.569   8.497  19.961  0.00  0.00    +0.000 A 
BRANCH  19  22
ATOM     22  S   UNL     1       3.493   4.997  19.336  0.00  0.00    +0.000 S 
ATOM     23  O   UNL     1       4.943   5.023  19.277  0.00  0.00    +0.000 OA
ATOM     24  O   UNL     1       2.826   4.481  20.505  0.00  0.00    +0.000 OA
BRANCH  22  25
ATOM     25  N   UNL     1       2.983   4.111  17.952  0.00  0.00    +0.000 NA
ATOM     26  C   UNL     1       1.532   3.795  17.771  0.00  0.00    +0.000 C 
ATOM     27  C   UNL     1       1.053   2.769  18.802  0.00  0.00    +0.000 C 
ATOM     28  O   UNL     1       1.799   1.548  18.687  0.00  0.00    +0.000 OA
ATOM     29  C   UNL     1       3.215   1.764  18.822  0.00  0.00    +0.000 C 
ATOM     30  C   UNL     1       3.734   2.804  17.812  0.00  0.00    +0.000 C 
ENDBRANCH  22  25
ENDBRANCH  19  22
ENDBRANCH   2  16
TORSDOF 4
ENDMDL
