MODEL 1
REMARK VINA RESULT:      -8.0      0.000      0.000
REMARK  Name = 
REMARK  15 active torsions:
REMARK  status: ('A' for Active; 'I' for Inactive)
REMARK    1  A    between atoms: N_1  and  C_2
REMARK    2  A    between atoms: C_2  and  C_3
REMARK    3  A    between atoms: C_2  and  C_14
REMARK    4  A    between atoms: C_2  and  C_25
REMARK    5  A    between atoms: C_3  and  C_4
REMARK    6  A    between atoms: C_4  and  O_6
REMARK    7  A    between atoms: O_6  and  C_7
REMARK    8  A    between atoms: C_7  and  C_8
REMARK    9  A    between atoms: C_14  and  C_15
REMARK   10  A    between atoms: C_15  and  O_17
REMARK   11  A    between atoms: O_17  and  C_18
REMARK   12  A    between atoms: C_18  and  C_19
REMARK   13  A    between atoms: C_25  and  O_27
REMARK   14  A    between atoms: O_27  and  C_28
REMARK   15  A    between atoms: C_28  and  C_29
REMARK                            x       y       z     vdW  Elec       q    Type
REMARK                         _______ _______ _______ _____ _____    ______ ____
ROOT
ATOM      1  C   UNL     1       6.367   5.659  18.078  0.00  0.00    +0.000 C 
ENDROOT
BRANCH   1   2
ATOM      2  N   UNL     1       5.549   6.705  17.379  0.00  0.00    +0.000 NA
ATOM      3  H   UNL     1       5.855   7.629  17.708  0.00  0.00    +0.000 HD
ATOM      4  H   UNL     1       4.573   6.617  17.667  0.00  0.00    +0.000 HD
ENDBRANCH   1   2
BRANCH   1   5
ATOM      5  C   UNL     1       5.521   5.103  19.257  0.00  0.00    +0.000 C 
ATOM      6  O   UNL     1       5.567   3.947  19.643  0.00  0.00    +0.000 OA
BRANCH   5   7
ATOM      7  O   UNL     1       4.703   6.070  19.771  0.00  0.00    +0.000 OA
BRANCH   7   8
ATOM      8  C   UNL     1       3.303   5.760  19.782  0.00  0.00    +0.000 C 
BRANCH   8   9
ATOM      9  C   UNL     1       2.502   7.010  19.513  0.00  0.00    +0.000 A 
ATOM     10  C   UNL     1       2.457   7.579  18.233  0.00  0.00    +0.000 A 
ATOM     11  C   UNL     1       1.722   8.745  18.001  0.00  0.00    +0.000 A 
ATOM     12  C   UNL     1       1.026   9.352  19.045  0.00  0.00    +0.000 A 
ATOM     13  C   UNL     1       1.061   8.794  20.320  0.00  0.00    +0.000 A 
ATOM     14  C   UNL     1       1.797   7.631  20.555  0.00  0.00    +0.000 A 
ENDBRANCH   8   9
ENDBRANCH   7   8
ENDBRANCH   5   7
ENDBRANCH   1   5
BRANCH   1  15
ATOM     15  C   UNL     1       6.641   4.502  17.086  0.00  0.00    +0.000 C 
BRANCH  15  16
ATOM     16  C   UNL     1       5.965   4.688  15.746  0.00  0.00    +0.000 C 
ATOM     17  O   UNL     1       6.447   5.305  14.807  0.00  0.00    +0.000 OA
BRANCH  16  18
ATOM     18  O   UNL     1       4.740   4.103  15.748  0.00  0.00    +0.000 OA
BRANCH  18  19
ATOM     19  C   UNL     1       4.646   2.887  16.506  0.00  0.00    +0.000 C 
BRANCH  19  20
ATOM     20  C   UNL     1       3.382   2.902  17.323  0.00  0.00    +0.000 A 
ATOM     21  C   UNL     1       2.413   3.892  17.112  0.00  0.00    +0.000 A 
ATOM     22  C   UNL     1       1.231   3.892  17.853  0.00  0.00    +0.000 A 
ATOM     23  C   UNL     1       1.007   2.905  18.811  0.00  0.00    +0.000 A 
ATOM     24  C   UNL     1       1.966   1.918  19.032  0.00  0.00    +0.000 A 
ATOM     25  C   UNL     1       3.152   1.918  18.295  0.00  0.00    +0.000 A 
ENDBRANCH  19  20
ENDBRANCH  18  19
ENDBRANCH  16  18
ENDBRANCH  15  16
ENDBRANCH   1  15
BRANCH   1  26
ATOM     26  C   UNL     1       7.646   6.297  18.642  0.00  0.00    +0.000 C 
BRANCH  26  27
ATOM     27  C   UNL     1       8.092   7.517  17.877  0.00  0.00    +0.000 C 
ATOM     28  O   UNL     1       8.076   7.595  16.656  0.00  0.00    +0.000 OA
BRANCH  27  29
ATOM     29  O   UNL     1       8.566   8.467  18.725  0.00  0.00    +0.000 OA
BRANCH  29  30
ATOM     30  C   UNL     1       8.476   9.817  18.247  0.00  0.00    +0.000 C 
BRANCH  30  31
ATOM     31  C   UNL     1       9.535  10.714  18.832  0.00  0.00    +0.000 A 
ATOM     32  C   UNL     1       9.561  11.006  20.202  0.00  0.00    +0.000 A 
ATOM     33  C   UNL     1      10.568  11.815  20.735  0.00  0.00    +0.000 A 
ATOM     34  C   UNL     1      11.563  12.333  19.908  0.00  0.00    +0.000 A 
ATOM     35  C   UNL     1      11.560  12.033  18.547  0.00  0.00    +0.000 A 
ATOM     36  C   UNL     1      10.552  11.229  18.013  0.00  0.00    +0.000 A 
ENDBRANCH  30  31
ENDBRANCH  29  30
ENDBRANCH  27  29
ENDBRANCH  26  27
ENDBRANCH   1  26
TORSDOF 15
ENDMDL
MODEL 2
REMARK VINA RESULT:      -7.8      1.546      7.279
REMARK  Name = 
REMARK  15 active torsions:
REMARK  status: ('A' for Active; 'I' for Inactive)
REMARK    1  A    between atoms: N_1  and  C_2
REMARK    2  A    between atoms: C_2  and  C_3
REMARK    3  A    between atoms: C_2  and  C_14
REMARK    4  A    between atoms: C_2  and  C_25
REMARK    5  A    between atoms: C_3  and  C_4
REMARK    6  A    between atoms: C_4  and  O_6
REMARK    7  A    between atoms: O_6  and  C_7
REMARK    8  A    between atoms: C_7  and  C_8
REMARK    9  A    between atoms: C_14  and  C_15
REMARK   10  A    between atoms: C_15  and  O_17
REMARK   11  A    between atoms: O_17  and  C_18
REMARK   12  A    between atoms: C_18  and  C_19
REMARK   13  A    between atoms: C_25  and  O_27
REMARK   14  A    between atoms: O_27  and  C_28
REMARK   15  A    between atoms: C_28  and  C_29
REMARK                            x       y       z     vdW  Elec       q    Type
REMARK                         _______ _______ _______ _____ _____    ______ ____
ROOT
ATOM      1  C   UNL     1       5.665   5.848  16.945  0.00  0.00    +0.000 C 
ENDROOT
BRANCH   1   2
ATOM      2  N   UNL     1       5.049   6.513  15.749  0.00  0.00    +0.000 NA
ATOM      3  H   UNL     1       5.330   5.994  14.908  0.00  0.00    +0.000 HD
ATOM      4  H   UNL     1       5.447   7.448  15.644  0.00  0.00    +0.000 HD
ENDBRANCH   1   2
BRANCH   1   5
ATOM      5  C   UNL     1       5.530   4.311  16.757  0.00  0.00    +0.000 C 
ATOM      6  O   UNL     1       5.819   3.722  15.728  0.00  0.00    +0.000 OA
BRANCH   5   7
ATOM      7  O   UNL     1       5.015   3.724  17.879  0.00  0.00    +0.000 OA
BRANCH   7   8
ATOM      8  C   UNL     1       3.947   2.793  17.660  0.00  0.00    +0.000 C 
BRANCH   8   9
ATOM      9  C   UNL     1       2.999   2.819  18.833  0.00  0.00    +0.000 A 
ATOM     10  C   UNL     1       1.614   2.924  18.641  0.00  0.00    +0.000 A 
ATOM     11  C   UNL     1       0.748   2.962  19.737  0.00  0.00    +0.000 A 
ATOM     12  C   UNL     1       1.256   2.895  21.033  0.00  0.00    +0.000 A 
ATOM     13  C   UNL     1       2.629   2.787  21.235  0.00  0.00    +0.000 A 
ATOM     14  C   UNL     1       3.497   2.753  20.142  0.00  0.00    +0.000 A 
ENDBRANCH   8   9
ENDBRANCH   7   8
ENDBRANCH   5   7
ENDBRANCH   1   5
BRANCH   1  15
ATOM     15  C   UNL     1       7.172   6.203  16.987  0.00  0.00    +0.000 C 
BRANCH  15  16
ATOM     16  C   UNL     1       7.749   6.195  18.385  0.00  0.00    +0.000 C 
ATOM     17  O   UNL     1       7.740   5.228  19.134  0.00  0.00    +0.000 OA
BRANCH  16  18
ATOM     18  O   UNL     1       8.247   7.418  18.699  0.00  0.00    +0.000 OA
BRANCH  18  19
ATOM     19  C   UNL     1       7.957   8.457  17.751  0.00  0.00    +0.000 C 
BRANCH  19  20
ATOM     20  C   UNL     1       8.521   9.761  18.247  0.00  0.00    +0.000 A 
ATOM     21  C   UNL     1       8.314  10.943  17.525  0.00  0.00    +0.000 A 
ATOM     22  C   UNL     1       8.818  12.156  17.997  0.00  0.00    +0.000 A 
ATOM     23  C   UNL     1       9.532  12.198  19.193  0.00  0.00    +0.000 A 
ATOM     24  C   UNL     1       9.747  11.026  19.917  0.00  0.00    +0.000 A 
ATOM     25  C   UNL     1       9.248   9.811  19.445  0.00  0.00    +0.000 A 
ENDBRANCH  19  20
ENDBRANCH  18  19
ENDBRANCH  16  18
ENDBRANCH  15  16
ENDBRANCH   1  15
BRANCH   1  26
ATOM     26  C   UNL     1       4.903   6.262  18.214  0.00  0.00    +0.000 C 
BRANCH  26  27
ATOM     27  C   UNL     1       3.494   6.723  17.941  0.00  0.00    +0.000 C 
ATOM     28  O   UNL     1       2.582   5.970  17.631  0.00  0.00    +0.000 OA
BRANCH  27  29
ATOM     29  O   UNL     1       3.410   8.077  18.022  0.00  0.00    +0.000 OA
BRANCH  29  30
ATOM     30  C   UNL     1       2.117   8.630  17.736  0.00  0.00    +0.000 C 
BRANCH  30  31
ATOM     31  C   UNL     1       1.376   9.052  18.978  0.00  0.00    +0.000 A 
ATOM     32  C   UNL     1       1.560   8.379  20.194  0.00  0.00    +0.000 A 
ATOM     33  C   UNL     1       0.889   8.801  21.345  0.00  0.00    +0.000 A 
ATOM     34  C   UNL     1       0.036   9.903  21.296  0.00  0.00    +0.000 A 
ATOM     35  C   UNL     1      -0.139  10.592  20.098  0.00  0.00    +0.000 A 
ATOM     36  C   UNL     1       0.527  10.169  18.946  0.00  0.00    +0.000 A 
ENDBRANCH  30  31
ENDBRANCH  29  30
ENDBRANCH  27  29
ENDBRANCH  26  27
ENDBRANCH   1  26
TORSDOF 15
ENDMDL
MODEL 3
REMARK VINA RESULT:      -7.7      1.736      4.936
REMARK  Name = 
REMARK  15 active torsions:
REMARK  status: ('A' for Active; 'I' for Inactive)
REMARK    1  A    between atoms: N_1  and  C_2
REMARK    2  A    between atoms: C_2  and  C_3
REMARK    3  A    between atoms: C_2  and  C_14
REMARK    4  A    between atoms: C_2  and  C_25
REMARK    5  A    between atoms: C_3  and  C_4
REMARK    6  A    between atoms: C_4  and  O_6
REMARK    7  A    between atoms: O_6  and  C_7
REMARK    8  A    between atoms: C_7  and  C_8
REMARK    9  A    between atoms: C_14  and  C_15
REMARK   10  A    between atoms: C_15  and  O_17
REMARK   11  A    between atoms: O_17  and  C_18
REMARK   12  A    between atoms: C_18  and  C_19
REMARK   13  A    between atoms: C_25  and  O_27
REMARK   14  A    between atoms: O_27  and  C_28
REMARK   15  A    between atoms: C_28  and  C_29
REMARK                            x       y       z     vdW  Elec       q    Type
REMARK                         _______ _______ _______ _____ _____    ______ ____
ROOT
ATOM      1  C   UNL     1       4.635   5.810  17.626  0.00  0.00    +0.000 C 
ENDROOT
BRANCH   1   2
ATOM      2  N   UNL     1       5.120   5.672  19.040  0.00  0.00    +0.000 NA
ATOM      3  H   UNL     1       5.139   6.605  19.468  0.00  0.00    +0.000 HD
ATOM      4  H   UNL     1       6.089   5.350  19.031  0.00  0.00    +0.000 HD
ENDBRANCH   1   2
BRANCH   1   5
ATOM      5  C   UNL     1       4.837   4.443  16.917  0.00  0.00    +0.000 C 
ATOM      6  O   UNL     1       4.976   4.313  15.712  0.00  0.00    +0.000 OA
BRANCH   5   7
ATOM      7  O   UNL     1       4.803   3.414  17.818  0.00  0.00    +0.000 OA
BRANCH   7   8
ATOM      8  C   UNL     1       3.668   2.543  17.726  0.00  0.00    +0.000 C 
BRANCH   8   9
ATOM      9  C   UNL     1       2.794   2.712  18.944  0.00  0.00    +0.000 A 
ATOM     10  C   UNL     1       1.423   2.978  18.819  0.00  0.00    +0.000 A 
ATOM     11  C   UNL     1       0.628   3.147  19.955  0.00  0.00    +0.000 A 
ATOM     12  C   UNL     1       1.194   3.051  21.225  0.00  0.00    +0.000 A 
ATOM     13  C   UNL     1       2.554   2.785  21.361  0.00  0.00    +0.000 A 
ATOM     14  C   UNL     1       3.351   2.619  20.227  0.00  0.00    +0.000 A 
ENDBRANCH   8   9
ENDBRANCH   7   8
ENDBRANCH   5   7
ENDBRANCH   1   5
BRANCH   1  15
ATOM     15  C   UNL     1       3.119   6.126  17.652  0.00  0.00    +0.000 C 
BRANCH  15  16
ATOM     16  C   UNL     1       2.678   6.845  18.908  0.00  0.00    +0.000 C 
ATOM     17  O   UNL     1       2.352   6.288  19.947  0.00  0.00    +0.000 OA
BRANCH  16  18
ATOM     18  O   UNL     1       2.667   8.187  18.707  0.00  0.00    +0.000 OA
BRANCH  18  19
ATOM     19  C   UNL     1       1.656   8.660  17.803  0.00  0.00    +0.000 C 
BRANCH  19  20
ATOM     20  C   UNL     1       0.687   9.535  18.549  0.00  0.00    +0.000 A 
ATOM     21  C   UNL     1      -0.450  10.043  17.907  0.00  0.00    +0.000 A 
ATOM     22  C   UNL     1      -1.361  10.836  18.605  0.00  0.00    +0.000 A 
ATOM     23  C   UNL     1      -1.145  11.129  19.951  0.00  0.00    +0.000 A 
ATOM     24  C   UNL     1      -0.015  10.633  20.599  0.00  0.00    +0.000 A 
ATOM     25  C   UNL     1       0.900   9.843  19.901  0.00  0.00    +0.000 A 
ENDBRANCH  19  20
ENDBRANCH  18  19
ENDBRANCH  16  18
ENDBRANCH  15  16
ENDBRANCH   1  15
BRANCH   1  26
ATOM     26  C   UNL     1       5.469   6.876  16.897  0.00  0.00    +0.000 C 
BRANCH  26  27
ATOM     27  C   UNL     1       6.905   6.925  17.353  0.00  0.00    +0.000 C 
ATOM     28  O   UNL     1       7.551   5.935  17.667  0.00  0.00    +0.000 OA
BRANCH  27  29
ATOM     29  O   UNL     1       7.339   8.210  17.426  0.00  0.00    +0.000 OA
BRANCH  29  30
ATOM     30  C   UNL     1       8.472   8.428  18.282  0.00  0.00    +0.000 C 
BRANCH  30  31
ATOM     31  C   UNL     1       8.753   9.889  18.514  0.00  0.00    +0.000 A 
ATOM     32  C   UNL     1       9.491  10.316  19.627  0.00  0.00    +0.000 A 
ATOM     33  C   UNL     1       9.771  11.672  19.813  0.00  0.00    +0.000 A 
ATOM     34  C   UNL     1       9.325  12.614  18.887  0.00  0.00    +0.000 A 
ATOM     35  C   UNL     1       8.608  12.200  17.766  0.00  0.00    +0.000 A 
ATOM     36  C   UNL     1       8.324  10.846  17.582  0.00  0.00    +0.000 A 
ENDBRANCH  30  31
ENDBRANCH  29  30
ENDBRANCH  27  29
ENDBRANCH  26  27
ENDBRANCH   1  26
TORSDOF 15
ENDMDL
MODEL 4
REMARK VINA RESULT:      -7.6      0.822      7.853
REMARK  Name = 
REMARK  15 active torsions:
REMARK  status: ('A' for Active; 'I' for Inactive)
REMARK    1  A    between atoms: N_1  and  C_2
REMARK    2  A    between atoms: C_2  and  C_3
REMARK    3  A    between atoms: C_2  and  C_14
REMARK    4  A    between atoms: C_2  and  C_25
REMARK    5  A    between atoms: C_3  and  C_4
REMARK    6  A    between atoms: C_4  and  O_6
REMARK    7  A    between atoms: O_6  and  C_7
REMARK    8  A    between atoms: C_7  and  C_8
REMARK    9  A    between atoms: C_14  and  C_15
REMARK   10  A    between atoms: C_15  and  O_17
REMARK   11  A    between atoms: O_17  and  C_18
REMARK   12  A    between atoms: C_18  and  C_19
REMARK   13  A    between atoms: C_25  and  O_27
REMARK   14  A    between atoms: O_27  and  C_28
REMARK   15  A    between atoms: C_28  and  C_29
REMARK                            x       y       z     vdW  Elec       q    Type
REMARK                         _______ _______ _______ _____ _____    ______ ____
ROOT
ATOM      1  C   UNL     1       6.796   5.620  18.622  0.00  0.00    +0.000 C 
ENDROOT
BRANCH   1   2
ATOM      2  N   UNL     1       7.815   5.745  19.717  0.00  0.00    +0.000 NA
ATOM      3  H   UNL     1       7.635   6.618  20.228  0.00  0.00    +0.000 HD
ATOM      4  H   UNL     1       8.741   5.852  19.301  0.00  0.00    +0.000 HD
ENDBRANCH   1   2
BRANCH   1   5
ATOM      5  C   UNL     1       5.473   5.111  19.259  0.00  0.00    +0.000 C 
ATOM      6  O   UNL     1       5.399   4.139  19.993  0.00  0.00    +0.000 OA
BRANCH   5   7
ATOM      7  O   UNL     1       4.411   5.874  18.858  0.00  0.00    +0.000 OA
BRANCH   7   8
ATOM      8  C   UNL     1       3.328   5.973  19.791  0.00  0.00    +0.000 C 
BRANCH   8   9
ATOM      9  C   UNL     1       2.517   7.212  19.502  0.00  0.00    +0.000 A 
ATOM     10  C   UNL     1       1.748   7.822  20.504  0.00  0.00    +0.000 A 
ATOM     11  C   UNL     1       0.990   8.960  20.219  0.00  0.00    +0.000 A 
ATOM     12  C   UNL     1       0.993   9.500  18.934  0.00  0.00    +0.000 A 
ATOM     13  C   UNL     1       1.756   8.904  17.933  0.00  0.00    +0.000 A 
ATOM     14  C   UNL     1       2.511   7.764  18.214  0.00  0.00    +0.000 A 
ENDBRANCH   8   9
ENDBRANCH   7   8
ENDBRANCH   5   7
ENDBRANCH   1   5
BRANCH   1  15
ATOM     15  C   UNL     1       6.539   7.025  18.023  0.00  0.00    +0.000 C 
BRANCH  15  16
ATOM     16  C   UNL     1       7.799   7.710  17.542  0.00  0.00    +0.000 C 
ATOM     17  O   UNL     1       8.394   7.424  16.513  0.00  0.00    +0.000 OA
BRANCH  16  18
ATOM     18  O   UNL     1       8.189   8.661  18.429  0.00  0.00    +0.000 OA
BRANCH  18  19
ATOM     19  C   UNL     1       8.320   9.984  17.886  0.00  0.00    +0.000 C 
BRANCH  19  20
ATOM     20  C   UNL     1       9.420  10.715  18.608  0.00  0.00    +0.000 A 
ATOM     21  C   UNL     1       9.374  10.870  20.000  0.00  0.00    +0.000 A 
ATOM     22  C   UNL     1      10.406  11.527  20.671  0.00  0.00    +0.000 A 
ATOM     23  C   UNL     1      11.490  12.036  19.959  0.00  0.00    +0.000 A 
ATOM     24  C   UNL     1      11.544  11.891  18.574  0.00  0.00    +0.000 A 
ATOM     25  C   UNL     1      10.511  11.237  17.899  0.00  0.00    +0.000 A 
ENDBRANCH  19  20
ENDBRANCH  18  19
ENDBRANCH  16  18
ENDBRANCH  15  16
ENDBRANCH   1  15
BRANCH   1  26
ATOM     26  C   UNL     1       7.276   4.592  17.586  0.00  0.00    +0.000 C 
BRANCH  26  27
ATOM     27  C   UNL     1       6.364   4.477  16.392  0.00  0.00    +0.000 C 
ATOM     28  O   UNL     1       6.400   5.238  15.435  0.00  0.00    +0.000 OA
BRANCH  27  29
ATOM     29  O   UNL     1       5.473   3.466  16.567  0.00  0.00    +0.000 OA
BRANCH  29  30
ATOM     30  C   UNL     1       4.117   3.774  16.210  0.00  0.00    +0.000 C 
BRANCH  30  31
ATOM     31  C   UNL     1       3.123   3.306  17.241  0.00  0.00    +0.000 A 
ATOM     32  C   UNL     1       1.890   3.953  17.403  0.00  0.00    +0.000 A 
ATOM     33  C   UNL     1       0.965   3.489  18.343  0.00  0.00    +0.000 A 
ATOM     34  C   UNL     1       1.259   2.370  19.122  0.00  0.00    +0.000 A 
ATOM     35  C   UNL     1       2.472   1.707  18.955  0.00  0.00    +0.000 A 
ATOM     36  C   UNL     1       3.398   2.173  18.020  0.00  0.00    +0.000 A 
ENDBRANCH  30  31
ENDBRANCH  29  30
ENDBRANCH  27  29
ENDBRANCH  26  27
ENDBRANCH   1  26
TORSDOF 15
ENDMDL
MODEL 5
REMARK VINA RESULT:      -7.6      3.472      6.573
REMARK  Name = 
REMARK  15 active torsions:
REMARK  status: ('A' for Active; 'I' for Inactive)
REMARK    1  A    between atoms: N_1  and  C_2
REMARK    2  A    between atoms: C_2  and  C_3
REMARK    3  A    between atoms: C_2  and  C_14
REMARK    4  A    between atoms: C_2  and  C_25
REMARK    5  A    between atoms: C_3  and  C_4
REMARK    6  A    between atoms: C_4  and  O_6
REMARK    7  A    between atoms: O_6  and  C_7
REMARK    8  A    between atoms: C_7  and  C_8
REMARK    9  A    between atoms: C_14  and  C_15
REMARK   10  A    between atoms: C_15  and  O_17
REMARK   11  A    between atoms: O_17  and  C_18
REMARK   12  A    between atoms: C_18  and  C_19
REMARK   13  A    between atoms: C_25  and  O_27
REMARK   14  A    between atoms: O_27  and  C_28
REMARK   15  A    between atoms: C_28  and  C_29
REMARK                            x       y       z     vdW  Elec       q    Type
REMARK                         _______ _______ _______ _____ _____    ______ ____
ROOT
ATOM      1  C   UNL     1       4.702   5.694  18.310  0.00  0.00    +0.000 C 
ENDROOT
BRANCH   1   2
ATOM      2  N   UNL     1       4.113   4.931  17.160  0.00  0.00    +0.000 NA
ATOM      3  H   UNL     1       3.168   5.293  16.981  0.00  0.00    +0.000 HD
ATOM      4  H   UNL     1       3.989   3.955  17.434  0.00  0.00    +0.000 HD
ENDBRANCH   1   2
BRANCH   1   5
ATOM      5  C   UNL     1       5.592   4.716  19.125  0.00  0.00    +0.000 C 
ATOM      6  O   UNL     1       6.463   5.073  19.901  0.00  0.00    +0.000 OA
BRANCH   5   7
ATOM      7  O   UNL     1       5.291   3.416  18.827  0.00  0.00    +0.000 OA
BRANCH   7   8
ATOM      8  C   UNL     1       4.755   2.638  19.905  0.00  0.00    +0.000 C 
BRANCH   8   9
ATOM      9  C   UNL     1       3.249   2.716  19.892  0.00  0.00    +0.000 A 
ATOM     10  C   UNL     1       2.540   3.202  20.999  0.00  0.00    +0.000 A 
ATOM     11  C   UNL     1       1.144   3.254  20.979  0.00  0.00    +0.000 A 
ATOM     12  C   UNL     1       0.444   2.823  19.854  0.00  0.00    +0.000 A 
ATOM     13  C   UNL     1       1.138   2.342  18.747  0.00  0.00    +0.000 A 
ATOM     14  C   UNL     1       2.533   2.284  18.766  0.00  0.00    +0.000 A 
ENDBRANCH   8   9
ENDBRANCH   7   8
ENDBRANCH   5   7
ENDBRANCH   1   5
BRANCH   1  15
ATOM     15  C   UNL     1       5.604   6.820  17.746  0.00  0.00    +0.000 C 
BRANCH  15  16
ATOM     16  C   UNL     1       5.911   6.660  16.273  0.00  0.00    +0.000 C 
ATOM     17  O   UNL     1       5.132   6.928  15.370  0.00  0.00    +0.000 OA
BRANCH  16  18
ATOM     18  O   UNL     1       7.157   6.149  16.101  0.00  0.00    +0.000 OA
BRANCH  18  19
ATOM     19  C   UNL     1       7.206   4.738  15.837  0.00  0.00    +0.000 C 
BRANCH  19  20
ATOM     20  C   UNL     1       7.025   4.497  14.363  0.00  0.00    +0.000 A 
ATOM     21  C   UNL     1       6.059   3.592  13.906  0.00  0.00    +0.000 A 
ATOM     22  C   UNL     1       5.875   3.386  12.538  0.00  0.00    +0.000 A 
ATOM     23  C   UNL     1       6.655   4.082  11.616  0.00  0.00    +0.000 A 
ATOM     24  C   UNL     1       7.622   4.982  12.060  0.00  0.00    +0.000 A 
ATOM     25  C   UNL     1       7.811   5.186  13.428  0.00  0.00    +0.000 A 
ENDBRANCH  19  20
ENDBRANCH  18  19
ENDBRANCH  16  18
ENDBRANCH  15  16
ENDBRANCH   1  15
BRANCH   1  26
ATOM     26  C   UNL     1       3.574   6.212  19.216  0.00  0.00    +0.000 C 
BRANCH  26  27
ATOM     27  C   UNL     1       2.508   6.972  18.468  0.00  0.00    +0.000 C 
ATOM     28  O   UNL     1       1.741   6.453  17.668  0.00  0.00    +0.000 OA
BRANCH  27  29
ATOM     29  O   UNL     1       2.573   8.297  18.758  0.00  0.00    +0.000 OA
BRANCH  29  30
ATOM     30  C   UNL     1       1.329   9.008  18.664  0.00  0.00    +0.000 C 
BRANCH  30  31
ATOM     31  C   UNL     1       0.782   9.406  20.011  0.00  0.00    +0.000 A 
ATOM     32  C   UNL     1       1.191   8.751  21.180  0.00  0.00    +0.000 A 
ATOM     33  C   UNL     1       0.698   9.152  22.425  0.00  0.00    +0.000 A 
ATOM     34  C   UNL     1      -0.198  10.216  22.515  0.00  0.00    +0.000 A 
ATOM     35  C   UNL     1      -0.595  10.889  21.362  0.00  0.00    +0.000 A 
ATOM     36  C   UNL     1      -0.108  10.486  20.117  0.00  0.00    +0.000 A 
ENDBRANCH  30  31
ENDBRANCH  29  30
ENDBRANCH  27  29
ENDBRANCH  26  27
ENDBRANCH   1  26
TORSDOF 15
ENDMDL
MODEL 6
REMARK VINA RESULT:      -7.5      3.863      6.473
REMARK  Name = 
REMARK  15 active torsions:
REMARK  status: ('A' for Active; 'I' for Inactive)
REMARK    1  A    between atoms: N_1  and  C_2
REMARK    2  A    between atoms: C_2  and  C_3
REMARK    3  A    between atoms: C_2  and  C_14
REMARK    4  A    between atoms: C_2  and  C_25
REMARK    5  A    between atoms: C_3  and  C_4
REMARK    6  A    between atoms: C_4  and  O_6
REMARK    7  A    between atoms: O_6  and  C_7
REMARK    8  A    between atoms: C_7  and  C_8
REMARK    9  A    between atoms: C_14  and  C_15
REMARK   10  A    between atoms: C_15  and  O_17
REMARK   11  A    between atoms: O_17  and  C_18
REMARK   12  A    between atoms: C_18  and  C_19
REMARK   13  A    between atoms: C_25  and  O_27
REMARK   14  A    between atoms: O_27  and  C_28
REMARK   15  A    between atoms: C_28  and  C_29
REMARK                            x       y       z     vdW  Elec       q    Type
REMARK                         _______ _______ _______ _____ _____    ______ ____
ROOT
ATOM      1  C   UNL     1       4.882   4.640  17.411  0.00  0.00    +0.000 C 
ENDROOT
BRANCH   1   2
ATOM      2  N   UNL     1       5.101   3.372  16.639  0.00  0.00    +0.000 NA
ATOM      3  H   UNL     1       4.293   2.756  16.790  0.00  0.00    +0.000 HD
ATOM      4  H   UNL     1       5.905   2.877  17.028  0.00  0.00    +0.000 HD
ENDBRANCH   1   2
BRANCH   1   5
ATOM      5  C   UNL     1       5.272   4.370  18.890  0.00  0.00    +0.000 C 
ATOM      6  O   UNL     1       5.517   5.247  19.702  0.00  0.00    +0.000 OA
BRANCH   5   7
ATOM      7  O   UNL     1       5.335   3.027  19.143  0.00  0.00    +0.000 OA
BRANCH   7   8
ATOM      8  C   UNL     1       4.589   2.572  20.279  0.00  0.00    +0.000 C 
BRANCH   8   9
ATOM      9  C   UNL     1       3.113   2.755  20.028  0.00  0.00    +0.000 A 
ATOM     10  C   UNL     1       2.335   3.576  20.856  0.00  0.00    +0.000 A 
ATOM     11  C   UNL     1       0.966   3.725  20.621  0.00  0.00    +0.000 A 
ATOM     12  C   UNL     1       0.362   3.057  19.557  0.00  0.00    +0.000 A 
ATOM     13  C   UNL     1       1.126   2.242  18.725  0.00  0.00    +0.000 A 
ATOM     14  C   UNL     1       2.494   2.088  18.961  0.00  0.00    +0.000 A 
ENDBRANCH   8   9
ENDBRANCH   7   8
ENDBRANCH   5   7
ENDBRANCH   1   5
BRANCH   1  15
ATOM     15  C   UNL     1       5.827   5.731  16.849  0.00  0.00    +0.000 C 
BRANCH  15  16
ATOM     16  C   UNL     1       6.903   5.181  15.939  0.00  0.00    +0.000 C 
ATOM     17  O   UNL     1       7.897   4.583  16.325  0.00  0.00    +0.000 OA
BRANCH  16  18
ATOM     18  O   UNL     1       6.623   5.474  14.644  0.00  0.00    +0.000 OA
BRANCH  18  19
ATOM     19  C   UNL     1       7.447   4.805  13.676  0.00  0.00    +0.000 C 
BRANCH  19  20
ATOM     20  C   UNL     1       6.586   3.932  12.803  0.00  0.00    +0.000 A 
ATOM     21  C   UNL     1       7.168   2.965  11.974  0.00  0.00    +0.000 A 
ATOM     22  C   UNL     1       6.369   2.140  11.182  0.00  0.00    +0.000 A 
ATOM     23  C   UNL     1       4.982   2.274  11.212  0.00  0.00    +0.000 A 
ATOM     24  C   UNL     1       4.392   3.235  12.031  0.00  0.00    +0.000 A 
ATOM     25  C   UNL     1       5.190   4.065  12.820  0.00  0.00    +0.000 A 
ENDBRANCH  19  20
ENDBRANCH  18  19
ENDBRANCH  16  18
ENDBRANCH  15  16
ENDBRANCH   1  15
BRANCH   1  26
ATOM     26  C   UNL     1       3.396   5.029  17.352  0.00  0.00    +0.000 C 
BRANCH  26  27
ATOM     27  C   UNL     1       3.123   6.423  17.856  0.00  0.00    +0.000 C 
ATOM     28  O   UNL     1       3.747   7.410  17.491  0.00  0.00    +0.000 OA
BRANCH  27  29
ATOM     29  O   UNL     1       2.150   6.407  18.803  0.00  0.00    +0.000 OA
BRANCH  29  30
ATOM     30  C   UNL     1       2.436   7.161  19.991  0.00  0.00    +0.000 C 
BRANCH  30  31
ATOM     31  C   UNL     1       1.470   8.296  20.207  0.00  0.00    +0.000 A 
ATOM     32  C   UNL     1       1.234   9.246  19.204  0.00  0.00    +0.000 A 
ATOM     33  C   UNL     1       0.312  10.277  19.407  0.00  0.00    +0.000 A 
ATOM     34  C   UNL     1      -0.389  10.363  20.609  0.00  0.00    +0.000 A 
ATOM     35  C   UNL     1      -0.179   9.413  21.606  0.00  0.00    +0.000 A 
ATOM     36  C   UNL     1       0.746   8.386  21.405  0.00  0.00    +0.000 A 
ENDBRANCH  30  31
ENDBRANCH  29  30
ENDBRANCH  27  29
ENDBRANCH  26  27
ENDBRANCH   1  26
TORSDOF 15
ENDMDL
MODEL 7
REMARK VINA RESULT:      -7.5      1.405      7.985
REMARK  Name = 
REMARK  15 active torsions:
REMARK  status: ('A' for Active; 'I' for Inactive)
REMARK    1  A    between atoms: N_1  and  C_2
REMARK    2  A    between atoms: C_2  and  C_3
REMARK    3  A    between atoms: C_2  and  C_14
REMARK    4  A    between atoms: C_2  and  C_25
REMARK    5  A    between atoms: C_3  and  C_4
REMARK    6  A    between atoms: C_4  and  O_6
REMARK    7  A    between atoms: O_6  and  C_7
REMARK    8  A    between atoms: C_7  and  C_8
REMARK    9  A    between atoms: C_14  and  C_15
REMARK   10  A    between atoms: C_15  and  O_17
REMARK   11  A    between atoms: O_17  and  C_18
REMARK   12  A    between atoms: C_18  and  C_19
REMARK   13  A    between atoms: C_25  and  O_27
REMARK   14  A    between atoms: O_27  and  C_28
REMARK   15  A    between atoms: C_28  and  C_29
REMARK                            x       y       z     vdW  Elec       q    Type
REMARK                         _______ _______ _______ _____ _____    ______ ____
ROOT
ATOM      1  C   UNL     1       6.544   6.217  17.187  0.00  0.00    +0.000 C 
ENDROOT
BRANCH   1   2
ATOM      2  N   UNL     1       6.400   5.975  18.661  0.00  0.00    +0.000 NA
ATOM      3  H   UNL     1       6.574   6.859  19.154  0.00  0.00    +0.000 HD
ATOM      4  H   UNL     1       7.135   5.336  18.969  0.00  0.00    +0.000 HD
ENDBRANCH   1   2
BRANCH   1   5
ATOM      5  C   UNL     1       5.195   6.784  16.664  0.00  0.00    +0.000 C 
ATOM      6  O   UNL     1       4.956   6.996  15.487  0.00  0.00    +0.000 OA
BRANCH   5   7
ATOM      7  O   UNL     1       4.338   7.042  17.698  0.00  0.00    +0.000 OA
BRANCH   7   8
ATOM      8  C   UNL     1       2.950   7.123  17.350  0.00  0.00    +0.000 C 
BRANCH   8   9
ATOM      9  C   UNL     1       2.204   7.903  18.404  0.00  0.00    +0.000 A 
ATOM     10  C   UNL     1       1.577   9.119  18.096  0.00  0.00    +0.000 A 
ATOM     11  C   UNL     1       0.903   9.838  19.086  0.00  0.00    +0.000 A 
ATOM     12  C   UNL     1       0.847   9.351  20.390  0.00  0.00    +0.000 A 
ATOM     13  C   UNL     1       1.463   8.143  20.707  0.00  0.00    +0.000 A 
ATOM     14  C   UNL     1       2.141   7.424  19.720  0.00  0.00    +0.000 A 
ENDBRANCH   8   9
ENDBRANCH   7   8
ENDBRANCH   5   7
ENDBRANCH   1   5
BRANCH   1  15
ATOM     15  C   UNL     1       7.641   7.288  16.967  0.00  0.00    +0.000 C 
BRANCH  15  16
ATOM     16  C   UNL     1       8.222   7.824  18.257  0.00  0.00    +0.000 C 
ATOM     17  O   UNL     1       8.617   7.127  19.181  0.00  0.00    +0.000 OA
BRANCH  16  18
ATOM     18  O   UNL     1       8.213   9.181  18.253  0.00  0.00    +0.000 OA
BRANCH  18  19
ATOM     19  C   UNL     1       9.094   9.800  19.203  0.00  0.00    +0.000 C 
BRANCH  19  20
ATOM     20  C   UNL     1       9.702  11.034  18.593  0.00  0.00    +0.000 A 
ATOM     21  C   UNL     1       8.897  11.967  17.928  0.00  0.00    +0.000 A 
ATOM     22  C   UNL     1       9.458  13.123  17.383  0.00  0.00    +0.000 A 
ATOM     23  C   UNL     1      10.827  13.355  17.496  0.00  0.00    +0.000 A 
ATOM     24  C   UNL     1      11.639  12.430  18.152  0.00  0.00    +0.000 A 
ATOM     25  C   UNL     1      11.081  11.271  18.694  0.00  0.00    +0.000 A 
ENDBRANCH  19  20
ENDBRANCH  18  19
ENDBRANCH  16  18
ENDBRANCH  15  16
ENDBRANCH   1  15
BRANCH   1  26
ATOM     26  C   UNL     1       6.835   4.888  16.473  0.00  0.00    +0.000 C 
BRANCH  26  27
ATOM     27  C   UNL     1       5.600   4.060  16.225  0.00  0.00    +0.000 C 
ATOM     28  O   UNL     1       5.210   3.741  15.111  0.00  0.00    +0.000 OA
BRANCH  27  29
ATOM     29  O   UNL     1       4.966   3.786  17.395  0.00  0.00    +0.000 OA
BRANCH  29  30
ATOM     30  C   UNL     1       3.565   3.497  17.281  0.00  0.00    +0.000 C 
BRANCH  30  31
ATOM     31  C   UNL     1       2.879   3.402  18.619  0.00  0.00    +0.000 A 
ATOM     32  C   UNL     1       3.530   2.848  19.729  0.00  0.00    +0.000 A 
ATOM     33  C   UNL     1       2.892   2.795  20.971  0.00  0.00    +0.000 A 
ATOM     34  C   UNL     1       1.602   3.302  21.119  0.00  0.00    +0.000 A 
ATOM     35  C   UNL     1       0.952   3.874  20.028  0.00  0.00    +0.000 A 
ATOM     36  C   UNL     1       1.587   3.923  18.785  0.00  0.00    +0.000 A 
ENDBRANCH  30  31
ENDBRANCH  29  30
ENDBRANCH  27  29
ENDBRANCH  26  27
ENDBRANCH   1  26
TORSDOF 15
ENDMDL
MODEL 8
REMARK VINA RESULT:      -7.4      1.659      4.836
REMARK  Name = 
REMARK  15 active torsions:
REMARK  status: ('A' for Active; 'I' for Inactive)
REMARK    1  A    between atoms: N_1  and  C_2
REMARK    2  A    between atoms: C_2  and  C_3
REMARK    3  A    between atoms: C_2  and  C_14
REMARK    4  A    between atoms: C_2  and  C_25
REMARK    5  A    between atoms: C_3  and  C_4
REMARK    6  A    between atoms: C_4  and  O_6
REMARK    7  A    between atoms: O_6  and  C_7
REMARK    8  A    between atoms: C_7  and  C_8
REMARK    9  A    between atoms: C_14  and  C_15
REMARK   10  A    between atoms: C_15  and  O_17
REMARK   11  A    between atoms: O_17  and  C_18
REMARK   12  A    between atoms: C_18  and  C_19
REMARK   13  A    between atoms: C_25  and  O_27
REMARK   14  A    between atoms: O_27  and  C_28
REMARK   15  A    between atoms: C_28  and  C_29
REMARK                            x       y       z     vdW  Elec       q    Type
REMARK                         _______ _______ _______ _____ _____    ______ ____
ROOT
ATOM      1  C   UNL     1       5.398   5.957  17.599  0.00  0.00    +0.000 C 
ENDROOT
BRANCH   1   2
ATOM      2  N   UNL     1       5.183   5.825  19.078  0.00  0.00    +0.000 NA
ATOM      3  H   UNL     1       4.218   5.510  19.239  0.00  0.00    +0.000 HD
ATOM      4  H   UNL     1       5.249   6.748  19.510  0.00  0.00    +0.000 HD
ENDBRANCH   1   2
BRANCH   1   5
ATOM      5  C   UNL     1       5.440   4.526  16.994  0.00  0.00    +0.000 C 
ATOM      6  O   UNL     1       6.454   3.992  16.576  0.00  0.00    +0.000 OA
BRANCH   5   7
ATOM      7  O   UNL     1       4.191   3.970  16.964  0.00  0.00    +0.000 OA
BRANCH   7   8
ATOM      8  C   UNL     1       4.067   2.682  17.581  0.00  0.00    +0.000 C 
BRANCH   8   9
ATOM      9  C   UNL     1       3.107   2.762  18.742  0.00  0.00    +0.000 A 
ATOM     10  C   UNL     1       3.570   2.738  20.065  0.00  0.00    +0.000 A 
ATOM     11  C   UNL     1       2.669   2.798  21.132  0.00  0.00    +0.000 A 
ATOM     12  C   UNL     1       1.300   2.882  20.886  0.00  0.00    +0.000 A 
ATOM     13  C   UNL     1       0.829   2.910  19.576  0.00  0.00    +0.000 A 
ATOM     14  C   UNL     1       1.728   2.846  18.509  0.00  0.00    +0.000 A 
ENDBRANCH   8   9
ENDBRANCH   7   8
ENDBRANCH   5   7
ENDBRANCH   1   5
BRANCH   1  15
ATOM     15  C   UNL     1       4.189   6.708  16.988  0.00  0.00    +0.000 C 
BRANCH  15  16
ATOM     16  C   UNL     1       3.094   6.996  17.991  0.00  0.00    +0.000 C 
ATOM     17  O   UNL     1       2.416   6.140  18.542  0.00  0.00    +0.000 OA
BRANCH  16  18
ATOM     18  O   UNL     1       2.951   8.335  18.166  0.00  0.00    +0.000 OA
BRANCH  18  19
ATOM     19  C   UNL     1       1.630   8.844  17.926  0.00  0.00    +0.000 C 
BRANCH  19  20
ATOM     20  C   UNL     1       1.163   9.615  19.131  0.00  0.00    +0.000 A 
ATOM     21  C   UNL     1       0.951  10.997  19.050  0.00  0.00    +0.000 A 
ATOM     22  C   UNL     1       0.496  11.709  20.160  0.00  0.00    +0.000 A 
ATOM     23  C   UNL     1       0.250  11.046  21.361  0.00  0.00    +0.000 A 
ATOM     24  C   UNL     1       0.462   9.671  21.455  0.00  0.00    +0.000 A 
ATOM     25  C   UNL     1       0.921   8.958  20.346  0.00  0.00    +0.000 A 
ENDBRANCH  19  20
ENDBRANCH  18  19
ENDBRANCH  16  18
ENDBRANCH  15  16
ENDBRANCH   1  15
BRANCH   1  26
ATOM     26  C   UNL     1       6.744   6.648  17.333  0.00  0.00    +0.000 C 
BRANCH  26  27
ATOM     27  C   UNL     1       7.705   6.549  18.491  0.00  0.00    +0.000 C 
ATOM     28  O   UNL     1       7.728   5.609  19.274  0.00  0.00    +0.000 OA
BRANCH  27  29
ATOM     29  O   UNL     1       8.475   7.665  18.571  0.00  0.00    +0.000 OA
BRANCH  29  30
ATOM     30  C   UNL     1       7.932   8.832  17.936  0.00  0.00    +0.000 C 
BRANCH  30  31
ATOM     31  C   UNL     1       8.587  10.107  18.402  0.00  0.00    +0.000 A 
ATOM     32  C   UNL     1       9.363  10.136  19.569  0.00  0.00    +0.000 A 
ATOM     33  C   UNL     1       9.989  11.319  19.972  0.00  0.00    +0.000 A 
ATOM     34  C   UNL     1       9.854  12.479  19.211  0.00  0.00    +0.000 A 
ATOM     35  C   UNL     1       9.102  12.457  18.038  0.00  0.00    +0.000 A 
ATOM     36  C   UNL     1       8.472  11.277  17.637  0.00  0.00    +0.000 A 
ENDBRANCH  30  31
ENDBRANCH  29  30
ENDBRANCH  27  29
ENDBRANCH  26  27
ENDBRANCH   1  26
TORSDOF 15
ENDMDL
MODEL 9
REMARK VINA RESULT:      -7.4      1.570      4.545
REMARK  Name = 
REMARK  15 active torsions:
REMARK  status: ('A' for Active; 'I' for Inactive)
REMARK    1  A    between atoms: N_1  and  C_2
REMARK    2  A    between atoms: C_2  and  C_3
REMARK    3  A    between atoms: C_2  and  C_14
REMARK    4  A    between atoms: C_2  and  C_25
REMARK    5  A    between atoms: C_3  and  C_4
REMARK    6  A    between atoms: C_4  and  O_6
REMARK    7  A    between atoms: O_6  and  C_7
REMARK    8  A    between atoms: C_7  and  C_8
REMARK    9  A    between atoms: C_14  and  C_15
REMARK   10  A    between atoms: C_15  and  O_17
REMARK   11  A    between atoms: O_17  and  C_18
REMARK   12  A    between atoms: C_18  and  C_19
REMARK   13  A    between atoms: C_25  and  O_27
REMARK   14  A    between atoms: O_27  and  C_28
REMARK   15  A    between atoms: C_28  and  C_29
REMARK                            x       y       z     vdW  Elec       q    Type
REMARK                         _______ _______ _______ _____ _____    ______ ____
ROOT
ATOM      1  C   UNL     1       5.697   5.706  18.373  0.00  0.00    +0.000 C 
ENDROOT
BRANCH   1   2
ATOM      2  N   UNL     1       4.954   5.627  19.675  0.00  0.00    +0.000 NA
ATOM      3  H   UNL     1       5.583   5.229  20.383  0.00  0.00    +0.000 HD
ATOM      4  H   UNL     1       4.185   4.962  19.581  0.00  0.00    +0.000 HD
ENDBRANCH   1   2
BRANCH   1   5
ATOM      5  C   UNL     1       5.637   4.305  17.704  0.00  0.00    +0.000 C 
ATOM      6  O   UNL     1       5.876   4.102  16.525  0.00  0.00    +0.000 OA
BRANCH   5   7
ATOM      7  O   UNL     1       5.249   3.350  18.603  0.00  0.00    +0.000 OA
BRANCH   7   8
ATOM      8  C   UNL     1       4.108   2.569  18.227  0.00  0.00    +0.000 C 
BRANCH   8   9
ATOM      9  C   UNL     1       3.038   2.686  19.285  0.00  0.00    +0.000 A 
ATOM     10  C   UNL     1       1.694   2.880  18.935  0.00  0.00    +0.000 A 
ATOM     11  C   UNL     1       0.716   3.002  19.925  0.00  0.00    +0.000 A 
ATOM     12  C   UNL     1       1.070   2.930  21.271  0.00  0.00    +0.000 A 
ATOM     13  C   UNL     1       2.401   2.735  21.629  0.00  0.00    +0.000 A 
ATOM     14  C   UNL     1       3.381   2.617  20.642  0.00  0.00    +0.000 A 
ENDBRANCH   8   9
ENDBRANCH   7   8
ENDBRANCH   5   7
ENDBRANCH   1   5
BRANCH   1  15
ATOM     15  C   UNL     1       4.973   6.718  17.451  0.00  0.00    +0.000 C 
BRANCH  15  16
ATOM     16  C   UNL     1       3.514   6.909  17.801  0.00  0.00    +0.000 C 
ATOM     17  O   UNL     1       2.694   6.004  17.873  0.00  0.00    +0.000 OA
BRANCH  16  18
ATOM     18  O   UNL     1       3.240   8.225  17.990  0.00  0.00    +0.000 OA
BRANCH  18  19
ATOM     19  C   UNL     1       1.852   8.580  17.889  0.00  0.00    +0.000 C 
BRANCH  19  20
ATOM     20  C   UNL     1       1.364   9.080  19.221  0.00  0.00    +0.000 A 
ATOM     21  C   UNL     1       1.492   8.286  20.368  0.00  0.00    +0.000 A 
ATOM     22  C   UNL     1       1.061   8.760  21.607  0.00  0.00    +0.000 A 
ATOM     23  C   UNL     1       0.497  10.031  21.711  0.00  0.00    +0.000 A 
ATOM     24  C   UNL     1       0.361  10.828  20.576  0.00  0.00    +0.000 A 
ATOM     25  C   UNL     1       0.788  10.354  19.334  0.00  0.00    +0.000 A 
ENDBRANCH  19  20
ENDBRANCH  18  19
ENDBRANCH  16  18
ENDBRANCH  15  16
ENDBRANCH   1  15
BRANCH   1  26
ATOM     26  C   UNL     1       7.167   6.067  18.640  0.00  0.00    +0.000 C 
BRANCH  26  27
ATOM     27  C   UNL     1       7.707   7.111  17.696  0.00  0.00    +0.000 C 
ATOM     28  O   UNL     1       7.779   6.957  16.485  0.00  0.00    +0.000 OA
BRANCH  27  29
ATOM     29  O   UNL     1       8.152   8.194  18.385  0.00  0.00    +0.000 OA
BRANCH  29  30
ATOM     30  C   UNL     1       8.339   9.384  17.605  0.00  0.00    +0.000 C 
BRANCH  30  31
ATOM     31  C   UNL     1       8.868  10.537  18.418  0.00  0.00    +0.000 A 
ATOM     32  C   UNL     1       9.483  10.324  19.659  0.00  0.00    +0.000 A 
ATOM     33  C   UNL     1       9.997  11.401  20.388  0.00  0.00    +0.000 A 
ATOM     34  C   UNL     1       9.910  12.696  19.881  0.00  0.00    +0.000 A 
ATOM     35  C   UNL     1       9.320  12.918  18.638  0.00  0.00    +0.000 A 
ATOM     36  C   UNL     1       8.802  11.844  17.912  0.00  0.00    +0.000 A 
ENDBRANCH  30  31
ENDBRANCH  29  30
ENDBRANCH  27  29
ENDBRANCH  26  27
ENDBRANCH   1  26
TORSDOF 15
ENDMDL
