MODEL 1
REMARK VINA RESULT:      -8.1      0.000      0.000
REMARK  Name = 
REMARK  7 active torsions:
REMARK  status: ('A' for Active; 'I' for Inactive)
REMARK    1  A    between atoms: C_2  and  C_3
REMARK    2  A    between atoms: C_7  and  O_8
REMARK    3  A    between atoms: N_10  and  C_11
REMARK    4  A    between atoms: N_10  and  C_19
REMARK    5  A    between atoms: C_11  and  C_12
REMARK    6  A    between atoms: C_12  and  C_13
REMARK    7  A    between atoms: C_19  and  C_20
REMARK                            x       y       z     vdW  Elec       q    Type
REMARK                         _______ _______ _______ _____ _____    ______ ____
ROOT
ATOM      1  O   UNL     1       3.250   3.529  17.205  0.00  0.00    +0.000 OA
ATOM      2  C   UNL     1       2.952   4.584  17.760  0.00  0.00    +0.000 C 
ATOM      3  N   UNL     1       3.582   5.807  17.452  0.00  0.00    +0.000 N 
ENDROOT
BRANCH   2   4
ATOM      4  C   UNL     1       1.823   4.601  18.811  0.00  0.00    +0.000 C 
ATOM      5  C   UNL     1       0.771   3.529  18.517  0.00  0.00    +0.000 C 
ATOM      6  C   UNL     1       1.188   2.139  18.988  0.00  0.00    +0.000 C 
ATOM      7  C   UNL     1       1.520   2.128  20.472  0.00  0.00    +0.000 C 
ATOM      8  C   UNL     1       2.563   3.169  20.862  0.00  0.00    +0.000 C 
ATOM      9  C   UNL     1       2.327   4.553  20.258  0.00  0.00    +0.000 C 
BRANCH   8  10
ATOM     10  O   UNL     1       2.522   3.278  22.291  0.00  0.00    +0.000 OA
ATOM     11  H   UNL     1       3.366   3.654  22.595  0.00  0.00    +0.000 HD
ENDBRANCH   8  10
ENDBRANCH   2   4
BRANCH   3  12
ATOM     12  C   UNL     1       3.352   7.014  18.258  0.00  0.00    +0.000 C 
BRANCH  12  13
ATOM     13  C   UNL     1       2.484   8.142  17.683  0.00  0.00    +0.000 C 
BRANCH  13  14
ATOM     14  C   UNL     1       1.654   8.751  18.802  0.00  0.00    +0.000 C 
ATOM     15  C   UNL     1       1.709   8.272  20.060  0.00  0.00    +0.000 C 
ATOM     16  C   UNL     1       0.831   8.754  21.178  0.00  0.00    +0.000 C 
ATOM     17  C   UNL     1      -0.344   9.605  20.694  0.00  0.00    +0.000 C 
ATOM     18  C   UNL     1       0.110  10.601  19.634  0.00  0.00    +0.000 C 
ATOM     19  C   UNL     1       0.725   9.885  18.427  0.00  0.00    +0.000 C 
ENDBRANCH  13  14
ENDBRANCH  12  13
ENDBRANCH   3  12
BRANCH   3  20
ATOM     20  C   UNL     1       4.811   5.742  16.646  0.00  0.00    +0.000 C 
BRANCH  20  21
ATOM     21  C   UNL     1       6.083   6.109  17.384  0.00  0.00    +0.000 A 
ATOM     22  C   UNL     1       6.737   7.318  17.097  0.00  0.00    +0.000 A 
ATOM     23  C   UNL     1       7.862   7.720  17.831  0.00  0.00    +0.000 A 
ATOM     24  C   UNL     1       8.335   6.923  18.869  0.00  0.00    +0.000 A 
ATOM     25  C   UNL     1       7.684   5.730  19.177  0.00  0.00    +0.000 A 
ATOM     26  C   UNL     1       6.563   5.330  18.444  0.00  0.00    +0.000 A 
ENDBRANCH  20  21
ENDBRANCH   3  20
TORSDOF 7
ENDMDL
MODEL 2
REMARK VINA RESULT:      -8.0      0.219      1.026
REMARK  Name = 
REMARK  7 active torsions:
REMARK  status: ('A' for Active; 'I' for Inactive)
REMARK    1  A    between atoms: C_2  and  C_3
REMARK    2  A    between atoms: C_7  and  O_8
REMARK    3  A    between atoms: N_10  and  C_11
REMARK    4  A    between atoms: N_10  and  C_19
REMARK    5  A    between atoms: C_11  and  C_12
REMARK    6  A    between atoms: C_12  and  C_13
REMARK    7  A    between atoms: C_19  and  C_20
REMARK                            x       y       z     vdW  Elec       q    Type
REMARK                         _______ _______ _______ _____ _____    ______ ____
ROOT
ATOM      1  O   UNL     1       3.278   3.618  17.152  0.00  0.00    +0.000 OA
ATOM      2  C   UNL     1       2.958   4.658  17.723  0.00  0.00    +0.000 C 
ATOM      3  N   UNL     1       3.568   5.897  17.441  0.00  0.00    +0.000 N 
ENDROOT
BRANCH   2   4
ATOM      4  C   UNL     1       1.823   4.637  18.769  0.00  0.00    +0.000 C 
ATOM      5  C   UNL     1       0.784   3.561  18.441  0.00  0.00    +0.000 C 
ATOM      6  C   UNL     1       1.214   2.164  18.879  0.00  0.00    +0.000 C 
ATOM      7  C   UNL     1       1.537   2.119  20.364  0.00  0.00    +0.000 C 
ATOM      8  C   UNL     1       2.567   3.161  20.787  0.00  0.00    +0.000 C 
ATOM      9  C   UNL     1       2.319   4.558  20.216  0.00  0.00    +0.000 C 
BRANCH   8  10
ATOM     10  O   UNL     1       2.517   3.233  22.217  0.00  0.00    +0.000 OA
ATOM     11  H   UNL     1       3.311   3.700  22.530  0.00  0.00    +0.000 HD
ENDBRANCH   8  10
ENDBRANCH   2   4
BRANCH   3  12
ATOM     12  C   UNL     1       3.312   7.085  18.267  0.00  0.00    +0.000 C 
BRANCH  12  13
ATOM     13  C   UNL     1       2.487   8.239  17.680  0.00  0.00    +0.000 C 
BRANCH  13  14
ATOM     14  C   UNL     1       1.587   8.809  18.765  0.00  0.00    +0.000 C 
ATOM     15  C   UNL     1       0.725   9.812  18.509  0.00  0.00    +0.000 C 
ATOM     16  C   UNL     1      -0.104  10.491  19.560  0.00  0.00    +0.000 C 
ATOM     17  C   UNL     1       0.347  10.165  20.984  0.00  0.00    +0.000 C 
ATOM     18  C   UNL     1       0.644   8.678  21.131  0.00  0.00    +0.000 C 
ATOM     19  C   UNL     1       1.740   8.233  20.156  0.00  0.00    +0.000 C 
ENDBRANCH  13  14
ENDBRANCH  12  13
ENDBRANCH   3  12
BRANCH   3  20
ATOM     20  C   UNL     1       4.802   5.868  16.641  0.00  0.00    +0.000 C 
BRANCH  20  21
ATOM     21  C   UNL     1       6.068   6.210  17.402  0.00  0.00    +0.000 A 
ATOM     22  C   UNL     1       6.779   7.380  17.091  0.00  0.00    +0.000 A 
ATOM     23  C   UNL     1       7.900   7.762  17.843  0.00  0.00    +0.000 A 
ATOM     24  C   UNL     1       8.312   6.984  18.920  0.00  0.00    +0.000 A 
ATOM     25  C   UNL     1       7.603   5.830  19.250  0.00  0.00    +0.000 A 
ATOM     26  C   UNL     1       6.487   5.450  18.501  0.00  0.00    +0.000 A 
ENDBRANCH  20  21
ENDBRANCH   3  20
TORSDOF 7
ENDMDL
MODEL 3
REMARK VINA RESULT:      -7.9      1.557      5.135
REMARK  Name = 
REMARK  7 active torsions:
REMARK  status: ('A' for Active; 'I' for Inactive)
REMARK    1  A    between atoms: C_2  and  C_3
REMARK    2  A    between atoms: C_7  and  O_8
REMARK    3  A    between atoms: N_10  and  C_11
REMARK    4  A    between atoms: N_10  and  C_19
REMARK    5  A    between atoms: C_11  and  C_12
REMARK    6  A    between atoms: C_12  and  C_13
REMARK    7  A    between atoms: C_19  and  C_20
REMARK                            x       y       z     vdW  Elec       q    Type
REMARK                         _______ _______ _______ _____ _____    ______ ____
ROOT
ATOM      1  O   UNL     1       4.877   5.331  19.369  0.00  0.00    +0.000 OA
ATOM      2  C   UNL     1       4.299   6.063  18.569  0.00  0.00    +0.000 C 
ATOM      3  N   UNL     1       3.072   6.692  18.865  0.00  0.00    +0.000 N 
ENDROOT
BRANCH   2   4
ATOM      4  C   UNL     1       4.939   6.348  17.194  0.00  0.00    +0.000 C 
ATOM      5  C   UNL     1       6.349   6.926  17.345  0.00  0.00    +0.000 C 
ATOM      6  C   UNL     1       7.405   5.859  17.615  0.00  0.00    +0.000 C 
ATOM      7  C   UNL     1       7.410   4.791  16.534  0.00  0.00    +0.000 C 
ATOM      8  C   UNL     1       6.042   4.156  16.310  0.00  0.00    +0.000 C 
ATOM      9  C   UNL     1       4.889   5.156  16.232  0.00  0.00    +0.000 C 
BRANCH   8  10
ATOM     10  O   UNL     1       6.117   3.442  15.070  0.00  0.00    +0.000 OA
ATOM     11  H   UNL     1       5.716   2.565  15.194  0.00  0.00    +0.000 HD
ENDBRANCH   8  10
ENDBRANCH   2   4
BRANCH   3  12
ATOM     12  C   UNL     1       2.304   7.402  17.833  0.00  0.00    +0.000 C 
BRANCH  12  13
ATOM     13  C   UNL     1       2.313   8.936  17.818  0.00  0.00    +0.000 C 
BRANCH  13  14
ATOM     14  C   UNL     1       1.045   9.448  18.482  0.00  0.00    +0.000 C 
ATOM     15  C   UNL     1      -0.047   9.769  17.761  0.00  0.00    +0.000 C 
ATOM     16  C   UNL     1      -1.284  10.386  18.346  0.00  0.00    +0.000 C 
ATOM     17  C   UNL     1      -1.079  10.912  19.767  0.00  0.00    +0.000 C 
ATOM     18  C   UNL     1      -0.289   9.914  20.604  0.00  0.00    +0.000 C 
ATOM     19  C   UNL     1       1.083   9.631  19.984  0.00  0.00    +0.000 C 
ENDBRANCH  13  14
ENDBRANCH  12  13
ENDBRANCH   3  12
BRANCH   3  20
ATOM     20  C   UNL     1       2.353   6.224  20.060  0.00  0.00    +0.000 C 
BRANCH  20  21
ATOM     21  C   UNL     1       1.862   4.791  19.993  0.00  0.00    +0.000 A 
ATOM     22  C   UNL     1       1.476   4.238  18.760  0.00  0.00    +0.000 A 
ATOM     23  C   UNL     1       1.107   2.889  18.660  0.00  0.00    +0.000 A 
ATOM     24  C   UNL     1       1.134   2.077  19.789  0.00  0.00    +0.000 A 
ATOM     25  C   UNL     1       1.533   2.608  21.014  0.00  0.00    +0.000 A 
ATOM     26  C   UNL     1       1.900   3.952  21.113  0.00  0.00    +0.000 A 
ENDBRANCH  20  21
ENDBRANCH   3  20
TORSDOF 7
ENDMDL
MODEL 4
REMARK VINA RESULT:      -7.9      1.311      2.184
REMARK  Name = 
REMARK  7 active torsions:
REMARK  status: ('A' for Active; 'I' for Inactive)
REMARK    1  A    between atoms: C_2  and  C_3
REMARK    2  A    between atoms: C_7  and  O_8
REMARK    3  A    between atoms: N_10  and  C_11
REMARK    4  A    between atoms: N_10  and  C_19
REMARK    5  A    between atoms: C_11  and  C_12
REMARK    6  A    between atoms: C_12  and  C_13
REMARK    7  A    between atoms: C_19  and  C_20
REMARK                            x       y       z     vdW  Elec       q    Type
REMARK                         _______ _______ _______ _____ _____    ______ ____
ROOT
ATOM      1  O   UNL     1       4.298   4.737  19.290  0.00  0.00    +0.000 OA
ATOM      2  C   UNL     1       3.318   5.359  18.887  0.00  0.00    +0.000 C 
ATOM      3  N   UNL     1       3.422   6.429  17.973  0.00  0.00    +0.000 N 
ENDROOT
BRANCH   2   4
ATOM      4  C   UNL     1       1.906   4.950  19.357  0.00  0.00    +0.000 C 
ATOM      5  C   UNL     1       1.254   3.972  18.375  0.00  0.00    +0.000 C 
ATOM      6  C   UNL     1       1.732   2.535  18.559  0.00  0.00    +0.000 C 
ATOM      7  C   UNL     1       1.507   2.049  19.981  0.00  0.00    +0.000 C 
ATOM      8  C   UNL     1       2.123   2.964  21.034  0.00  0.00    +0.000 C 
ATOM      9  C   UNL     1       1.859   4.452  20.805  0.00  0.00    +0.000 C 
BRANCH   8  10
ATOM     10  O   UNL     1       1.554   2.584  22.294  0.00  0.00    +0.000 OA
ATOM     11  H   UNL     1       0.727   3.080  22.420  0.00  0.00    +0.000 HD
ENDBRANCH   8  10
ENDBRANCH   2   4
BRANCH   3  12
ATOM     12  C   UNL     1       2.268   7.282  17.656  0.00  0.00    +0.000 C 
BRANCH  12  13
ATOM     13  C   UNL     1       2.338   8.781  17.975  0.00  0.00    +0.000 C 
BRANCH  13  14
ATOM     14  C   UNL     1       1.363   9.096  19.098  0.00  0.00    +0.000 C 
ATOM     15  C   UNL     1       0.405  10.033  18.957  0.00  0.00    +0.000 C 
ATOM     16  C   UNL     1      -0.509  10.469  20.065  0.00  0.00    +0.000 C 
ATOM     17  C   UNL     1      -0.052   9.991  21.444  0.00  0.00    +0.000 C 
ATOM     18  C   UNL     1       0.397   8.536  21.390  0.00  0.00    +0.000 C 
ATOM     19  C   UNL     1       1.551   8.348  20.400  0.00  0.00    +0.000 C 
ENDBRANCH  13  14
ENDBRANCH  12  13
ENDBRANCH   3  12
BRANCH   3  20
ATOM     20  C   UNL     1       4.767   6.970  17.728  0.00  0.00    +0.000 C 
BRANCH  20  21
ATOM     21  C   UNL     1       5.602   6.186  16.734  0.00  0.00    +0.000 A 
ATOM     22  C   UNL     1       6.809   5.596  17.142  0.00  0.00    +0.000 A 
ATOM     23  C   UNL     1       7.550   4.791  16.264  0.00  0.00    +0.000 A 
ATOM     24  C   UNL     1       7.083   4.559  14.974  0.00  0.00    +0.000 A 
ATOM     25  C   UNL     1       5.877   5.123  14.563  0.00  0.00    +0.000 A 
ATOM     26  C   UNL     1       5.140   5.925  15.438  0.00  0.00    +0.000 A 
ENDBRANCH  20  21
ENDBRANCH   3  20
TORSDOF 7
ENDMDL
MODEL 5
REMARK VINA RESULT:      -7.9      1.570      5.250
REMARK  Name = 
REMARK  7 active torsions:
REMARK  status: ('A' for Active; 'I' for Inactive)
REMARK    1  A    between atoms: C_2  and  C_3
REMARK    2  A    between atoms: C_7  and  O_8
REMARK    3  A    between atoms: N_10  and  C_11
REMARK    4  A    between atoms: N_10  and  C_19
REMARK    5  A    between atoms: C_11  and  C_12
REMARK    6  A    between atoms: C_12  and  C_13
REMARK    7  A    between atoms: C_19  and  C_20
REMARK                            x       y       z     vdW  Elec       q    Type
REMARK                         _______ _______ _______ _____ _____    ______ ____
ROOT
ATOM      1  O   UNL     1       3.904   4.309  16.943  0.00  0.00    +0.000 OA
ATOM      2  C   UNL     1       4.007   5.493  17.253  0.00  0.00    +0.000 C 
ATOM      3  N   UNL     1       3.042   6.159  18.036  0.00  0.00    +0.000 N 
ENDROOT
BRANCH   2   4
ATOM      4  C   UNL     1       5.249   6.294  16.809  0.00  0.00    +0.000 C 
ATOM      5  C   UNL     1       6.430   6.060  17.755  0.00  0.00    +0.000 C 
ATOM      6  C   UNL     1       7.170   4.755  17.473  0.00  0.00    +0.000 C 
ATOM      7  C   UNL     1       7.654   4.686  16.034  0.00  0.00    +0.000 C 
ATOM      8  C   UNL     1       6.543   4.910  15.015  0.00  0.00    +0.000 C 
ATOM      9  C   UNL     1       5.622   6.087  15.337  0.00  0.00    +0.000 C 
BRANCH   8  10
ATOM     10  O   UNL     1       7.181   5.157  13.756  0.00  0.00    +0.000 OA
ATOM     11  H   UNL     1       6.784   5.951  13.360  0.00  0.00    +0.000 HD
ENDBRANCH   8  10
ENDBRANCH   2   4
BRANCH   3  12
ATOM     12  C   UNL     1       3.082   7.615  18.231  0.00  0.00    +0.000 C 
BRANCH  12  13
ATOM     13  C   UNL     1       1.863   8.457  17.830  0.00  0.00    +0.000 C 
BRANCH  13  14
ATOM     14  C   UNL     1       1.213   9.019  19.084  0.00  0.00    +0.000 C 
ATOM     15  C   UNL     1       0.402  10.093  19.035  0.00  0.00    +0.000 C 
ATOM     16  C   UNL     1      -0.175  10.762  20.249  0.00  0.00    +0.000 C 
ATOM     17  C   UNL     1       0.490  10.318  21.553  0.00  0.00    +0.000 C 
ATOM     18  C   UNL     1       0.690   8.808  21.571  0.00  0.00    +0.000 C 
ATOM     19  C   UNL     1       1.561   8.349  20.396  0.00  0.00    +0.000 C 
ENDBRANCH  13  14
ENDBRANCH  12  13
ENDBRANCH   3  12
BRANCH   3  20
ATOM     20  C   UNL     1       1.757   5.473  18.240  0.00  0.00    +0.000 C 
BRANCH  20  21
ATOM     21  C   UNL     1       1.756   4.429  19.340  0.00  0.00    +0.000 A 
ATOM     22  C   UNL     1       2.276   4.743  20.607  0.00  0.00    +0.000 A 
ATOM     23  C   UNL     1       2.202   3.825  21.664  0.00  0.00    +0.000 A 
ATOM     24  C   UNL     1       1.594   2.588  21.467  0.00  0.00    +0.000 A 
ATOM     25  C   UNL     1       1.058   2.272  20.221  0.00  0.00    +0.000 A 
ATOM     26  C   UNL     1       1.133   3.187  19.169  0.00  0.00    +0.000 A 
ENDBRANCH  20  21
ENDBRANCH   3  20
TORSDOF 7
ENDMDL
MODEL 6
REMARK VINA RESULT:      -7.8      1.529      5.121
REMARK  Name = 
REMARK  7 active torsions:
REMARK  status: ('A' for Active; 'I' for Inactive)
REMARK    1  A    between atoms: C_2  and  C_3
REMARK    2  A    between atoms: C_7  and  O_8
REMARK    3  A    between atoms: N_10  and  C_11
REMARK    4  A    between atoms: N_10  and  C_19
REMARK    5  A    between atoms: C_11  and  C_12
REMARK    6  A    between atoms: C_12  and  C_13
REMARK    7  A    between atoms: C_19  and  C_20
REMARK                            x       y       z     vdW  Elec       q    Type
REMARK                         _______ _______ _______ _____ _____    ______ ____
ROOT
ATOM      1  O   UNL     1       3.970   4.338  17.203  0.00  0.00    +0.000 OA
ATOM      2  C   UNL     1       4.033   5.541  17.447  0.00  0.00    +0.000 C 
ATOM      3  N   UNL     1       2.992   6.239  18.093  0.00  0.00    +0.000 N 
ENDROOT
BRANCH   2   4
ATOM      4  C   UNL     1       5.305   6.330  17.074  0.00  0.00    +0.000 C 
ATOM      5  C   UNL     1       6.421   6.106  18.098  0.00  0.00    +0.000 C 
ATOM      6  C   UNL     1       7.172   4.795  17.884  0.00  0.00    +0.000 C 
ATOM      7  C   UNL     1       7.749   4.704  16.481  0.00  0.00    +0.000 C 
ATOM      8  C   UNL     1       6.707   4.917  15.388  0.00  0.00    +0.000 C 
ATOM      9  C   UNL     1       5.772   6.102  15.632  0.00  0.00    +0.000 C 
BRANCH   8  10
ATOM     10  O   UNL     1       7.428   5.143  14.170  0.00  0.00    +0.000 OA
ATOM     11  H   UNL     1       7.554   4.289  13.724  0.00  0.00    +0.000 HD
ENDBRANCH   8  10
ENDBRANCH   2   4
BRANCH   3  12
ATOM     12  C   UNL     1       3.002   7.705  18.200  0.00  0.00    +0.000 C 
BRANCH  12  13
ATOM     13  C   UNL     1       1.713   8.484  17.902  0.00  0.00    +0.000 C 
BRANCH  13  14
ATOM     14  C   UNL     1       1.147   9.024  19.205  0.00  0.00    +0.000 C 
ATOM     15  C   UNL     1       1.458   8.468  20.392  0.00  0.00    +0.000 C 
ATOM     16  C   UNL     1       0.842   8.883  21.698  0.00  0.00    +0.000 C 
ATOM     17  C   UNL     1      -0.396   9.764  21.524  0.00  0.00    +0.000 C 
ATOM     18  C   UNL     1      -0.161  10.822  20.454  0.00  0.00    +0.000 C 
ATOM     19  C   UNL     1       0.175  10.180  19.104  0.00  0.00    +0.000 C 
ENDBRANCH  13  14
ENDBRANCH  12  13
ENDBRANCH   3  12
BRANCH   3  20
ATOM     20  C   UNL     1       1.700   5.548  18.217  0.00  0.00    +0.000 C 
BRANCH  20  21
ATOM     21  C   UNL     1       1.626   4.523  19.332  0.00  0.00    +0.000 A 
ATOM     22  C   UNL     1       1.083   3.252  19.082  0.00  0.00    +0.000 A 
ATOM     23  C   UNL     1       1.089   2.259  20.073  0.00  0.00    +0.000 A 
ATOM     24  C   UNL     1       1.649   2.525  21.318  0.00  0.00    +0.000 A 
ATOM     25  C   UNL     1       2.208   3.776  21.573  0.00  0.00    +0.000 A 
ATOM     26  C   UNL     1       2.202   4.764  20.585  0.00  0.00    +0.000 A 
ENDBRANCH  20  21
ENDBRANCH   3  20
TORSDOF 7
ENDMDL
MODEL 7
REMARK VINA RESULT:      -7.7      1.568      5.168
REMARK  Name = 
REMARK  7 active torsions:
REMARK  status: ('A' for Active; 'I' for Inactive)
REMARK    1  A    between atoms: C_2  and  C_3
REMARK    2  A    between atoms: C_7  and  O_8
REMARK    3  A    between atoms: N_10  and  C_11
REMARK    4  A    between atoms: N_10  and  C_19
REMARK    5  A    between atoms: C_11  and  C_12
REMARK    6  A    between atoms: C_12  and  C_13
REMARK    7  A    between atoms: C_19  and  C_20
REMARK                            x       y       z     vdW  Elec       q    Type
REMARK                         _______ _______ _______ _____ _____    ______ ____
ROOT
ATOM      1  O   UNL     1       3.842   4.317  16.834  0.00  0.00    +0.000 OA
ATOM      2  C   UNL     1       3.973   5.475  17.222  0.00  0.00    +0.000 C 
ATOM      3  N   UNL     1       3.038   6.100  18.073  0.00  0.00    +0.000 N 
ENDROOT
BRANCH   2   4
ATOM      4  C   UNL     1       5.219   6.284  16.805  0.00  0.00    +0.000 C 
ATOM      5  C   UNL     1       6.395   6.023  17.750  0.00  0.00    +0.000 C 
ATOM      6  C   UNL     1       7.133   4.725  17.436  0.00  0.00    +0.000 C 
ATOM      7  C   UNL     1       7.624   4.693  15.998  0.00  0.00    +0.000 C 
ATOM      8  C   UNL     1       6.518   4.947  14.980  0.00  0.00    +0.000 C 
ATOM      9  C   UNL     1       5.597   6.117  15.329  0.00  0.00    +0.000 C 
BRANCH   8  10
ATOM     10  O   UNL     1       7.162   5.226  13.731  0.00  0.00    +0.000 OA
ATOM     11  H   UNL     1       7.745   5.995  13.851  0.00  0.00    +0.000 HD
ENDBRANCH   8  10
ENDBRANCH   2   4
BRANCH   3  12
ATOM     12  C   UNL     1       3.109   7.538  18.367  0.00  0.00    +0.000 C 
BRANCH  12  13
ATOM     13  C   UNL     1       2.025   8.469  17.808  0.00  0.00    +0.000 C 
BRANCH  13  14
ATOM     14  C   UNL     1       1.271   9.106  18.964  0.00  0.00    +0.000 C 
ATOM     15  C   UNL     1       1.479   8.720  20.238  0.00  0.00    +0.000 C 
ATOM     16  C   UNL     1       0.686   9.228  21.407  0.00  0.00    +0.000 C 
ATOM     17  C   UNL     1      -0.583   9.975  20.992  0.00  0.00    +0.000 C 
ATOM     18  C   UNL     1      -0.299  10.919  19.830  0.00  0.00    +0.000 C 
ATOM     19  C   UNL     1       0.239  10.156  18.615  0.00  0.00    +0.000 C 
ENDBRANCH  13  14
ENDBRANCH  12  13
ENDBRANCH   3  12
BRANCH   3  20
ATOM     20  C   UNL     1       1.746   5.422  18.260  0.00  0.00    +0.000 C 
BRANCH  20  21
ATOM     21  C   UNL     1       1.725   4.375  19.356  0.00  0.00    +0.000 A 
ATOM     22  C   UNL     1       2.257   4.673  20.621  0.00  0.00    +0.000 A 
ATOM     23  C   UNL     1       2.166   3.753  21.676  0.00  0.00    +0.000 A 
ATOM     24  C   UNL     1       1.529   2.532  21.478  0.00  0.00    +0.000 A 
ATOM     25  C   UNL     1       0.980   2.232  20.233  0.00  0.00    +0.000 A 
ATOM     26  C   UNL     1       1.072   3.149  19.183  0.00  0.00    +0.000 A 
ENDBRANCH  20  21
ENDBRANCH   3  20
TORSDOF 7
ENDMDL
MODEL 8
REMARK VINA RESULT:      -7.6      1.728      2.506
REMARK  Name = 
REMARK  7 active torsions:
REMARK  status: ('A' for Active; 'I' for Inactive)
REMARK    1  A    between atoms: C_2  and  C_3
REMARK    2  A    between atoms: C_7  and  O_8
REMARK    3  A    between atoms: N_10  and  C_11
REMARK    4  A    between atoms: N_10  and  C_19
REMARK    5  A    between atoms: C_11  and  C_12
REMARK    6  A    between atoms: C_12  and  C_13
REMARK    7  A    between atoms: C_19  and  C_20
REMARK                            x       y       z     vdW  Elec       q    Type
REMARK                         _______ _______ _______ _____ _____    ______ ____
ROOT
ATOM      1  O   UNL     1       4.381   3.097  18.638  0.00  0.00    +0.000 OA
ATOM      2  C   UNL     1       3.993   4.263  18.654  0.00  0.00    +0.000 C 
ATOM      3  N   UNL     1       4.711   5.310  18.041  0.00  0.00    +0.000 N 
ENDROOT
BRANCH   2   4
ATOM      4  C   UNL     1       2.654   4.613  19.337  0.00  0.00    +0.000 C 
ATOM      5  C   UNL     1       1.462   4.210  18.465  0.00  0.00    +0.000 C 
ATOM      6  C   UNL     1       1.125   2.725  18.566  0.00  0.00    +0.000 C 
ATOM      7  C   UNL     1       0.863   2.308  20.004  0.00  0.00    +0.000 C 
ATOM      8  C   UNL     1       2.001   2.671  20.952  0.00  0.00    +0.000 C 
ATOM      9  C   UNL     1       2.539   4.091  20.774  0.00  0.00    +0.000 C 
BRANCH   8  10
ATOM     10  O   UNL     1       1.487   2.538  22.283  0.00  0.00    +0.000 OA
ATOM     11  H   UNL     1       0.761   1.892  22.270  0.00  0.00    +0.000 HD
ENDBRANCH   8  10
ENDBRANCH   2   4
BRANCH   3  12
ATOM     12  C   UNL     1       4.336   6.717  18.237  0.00  0.00    +0.000 C 
BRANCH  12  13
ATOM     13  C   UNL     1       3.150   7.291  17.451  0.00  0.00    +0.000 C 
BRANCH  13  14
ATOM     14  C   UNL     1       2.344   8.204  18.361  0.00  0.00    +0.000 C 
ATOM     15  C   UNL     1       2.038   7.846  19.624  0.00  0.00    +0.000 C 
ATOM     16  C   UNL     1       1.151   8.651  20.529  0.00  0.00    +0.000 C 
ATOM     17  C   UNL     1       0.371   9.741  19.792  0.00  0.00    +0.000 C 
ATOM     18  C   UNL     1       1.268  10.473  18.803  0.00  0.00    +0.000 C 
ATOM     19  C   UNL     1       1.857   9.508  17.768  0.00  0.00    +0.000 C 
ENDBRANCH  13  14
ENDBRANCH  12  13
ENDBRANCH   3  12
BRANCH   3  20
ATOM     20  C   UNL     1       6.089   5.017  17.618  0.00  0.00    +0.000 C 
BRANCH  20  21
ATOM     21  C   UNL     1       6.256   4.720  16.140  0.00  0.00    +0.000 A 
ATOM     22  C   UNL     1       5.197   4.152  15.414  0.00  0.00    +0.000 A 
ATOM     23  C   UNL     1       5.298   3.955  14.029  0.00  0.00    +0.000 A 
ATOM     24  C   UNL     1       6.454   4.336  13.356  0.00  0.00    +0.000 A 
ATOM     25  C   UNL     1       7.505   4.918  14.062  0.00  0.00    +0.000 A 
ATOM     26  C   UNL     1       7.404   5.114  15.441  0.00  0.00    +0.000 A 
ENDBRANCH  20  21
ENDBRANCH   3  20
TORSDOF 7
ENDMDL
MODEL 9
REMARK VINA RESULT:      -7.6      1.292      1.818
REMARK  Name = 
REMARK  7 active torsions:
REMARK  status: ('A' for Active; 'I' for Inactive)
REMARK    1  A    between atoms: C_2  and  C_3
REMARK    2  A    between atoms: C_7  and  O_8
REMARK    3  A    between atoms: N_10  and  C_11
REMARK    4  A    between atoms: N_10  and  C_19
REMARK    5  A    between atoms: C_11  and  C_12
REMARK    6  A    between atoms: C_12  and  C_13
REMARK    7  A    between atoms: C_19  and  C_20
REMARK                            x       y       z     vdW  Elec       q    Type
REMARK                         _______ _______ _______ _____ _____    ______ ____
ROOT
ATOM      1  O   UNL     1       4.214   4.595  19.136  0.00  0.00    +0.000 OA
ATOM      2  C   UNL     1       3.224   5.238  18.795  0.00  0.00    +0.000 C 
ATOM      3  N   UNL     1       3.300   6.338  17.916  0.00  0.00    +0.000 N 
ENDROOT
BRANCH   2   4
ATOM      4  C   UNL     1       1.830   4.823  19.308  0.00  0.00    +0.000 C 
ATOM      5  C   UNL     1       1.182   3.787  18.386  0.00  0.00    +0.000 C 
ATOM      6  C   UNL     1       1.693   2.370  18.629  0.00  0.00    +0.000 C 
ATOM      7  C   UNL     1       1.501   1.947  20.076  0.00  0.00    +0.000 C 
ATOM      8  C   UNL     1       2.115   2.923  21.073  0.00  0.00    +0.000 C 
ATOM      9  C   UNL     1       1.817   4.394  20.780  0.00  0.00    +0.000 C 
BRANCH   8  10
ATOM     10  O   UNL     1       1.575   2.593  22.359  0.00  0.00    +0.000 OA
ATOM     11  H   UNL     1       1.054   1.777  22.274  0.00  0.00    +0.000 HD
ENDBRANCH   8  10
ENDBRANCH   2   4
BRANCH   3  12
ATOM     12  C   UNL     1       2.142   7.210  17.675  0.00  0.00    +0.000 C 
BRANCH  12  13
ATOM     13  C   UNL     1       2.281   8.719  17.919  0.00  0.00    +0.000 C 
BRANCH  13  14
ATOM     14  C   UNL     1       1.578   9.079  19.219  0.00  0.00    +0.000 C 
ATOM     15  C   UNL     1       1.604   8.256  20.285  0.00  0.00    +0.000 C 
ATOM     16  C   UNL     1       0.837   8.502  21.551  0.00  0.00    +0.000 C 
ATOM     17  C   UNL     1      -0.223   9.595  21.408  0.00  0.00    +0.000 C 
ATOM     18  C   UNL     1       0.331  10.789  20.641  0.00  0.00    +0.000 C 
ATOM     19  C   UNL     1       0.803  10.379  19.242  0.00  0.00    +0.000 C 
ENDBRANCH  13  14
ENDBRANCH  12  13
ENDBRANCH   3  12
BRANCH   3  20
ATOM     20  C   UNL     1       4.639   6.877  17.634  0.00  0.00    +0.000 C 
BRANCH  20  21
ATOM     21  C   UNL     1       5.497   6.021  16.722  0.00  0.00    +0.000 A 
ATOM     22  C   UNL     1       5.112   5.813  15.388  0.00  0.00    +0.000 A 
ATOM     23  C   UNL     1       5.935   5.102  14.503  0.00  0.00    +0.000 A 
ATOM     24  C   UNL     1       7.157   4.603  14.942  0.00  0.00    +0.000 A 
ATOM     25  C   UNL     1       7.560   4.818  16.259  0.00  0.00    +0.000 A 
ATOM     26  C   UNL     1       6.739   5.526  17.139  0.00  0.00    +0.000 A 
ENDBRANCH  20  21
ENDBRANCH   3  20
TORSDOF 7
ENDMDL
