MODEL 1
REMARK VINA RESULT:      -7.9      0.000      0.000
REMARK  Name = 
REMARK  8 active torsions:
REMARK  status: ('A' for Active; 'I' for Inactive)
REMARK    1  A    between atoms: C_1  and  O_2
REMARK    2  A    between atoms: O_2  and  C_3
REMARK    3  A    between atoms: C_6  and  C_7
REMARK    4  A    between atoms: C_12  and  N_13
REMARK    5  A    between atoms: C_14  and  C_16
REMARK    6  A    between atoms: C_23  and  C_24
REMARK    7  A    between atoms: C_32  and  O_33
REMARK    8  A    between atoms: O_33  and  C_34
REMARK                            x       y       z     vdW  Elec       q    Type
REMARK                         _______ _______ _______ _____ _____    ______ ____
ROOT
ATOM      1  C   UNL     1       1.384   8.884  21.246  0.00  0.00    +0.000 C 
ATOM      2  O   UNL     1       1.892   8.852  22.367  0.00  0.00    +0.000 OA
ATOM      3  N   UNL     1       0.571   9.947  20.823  0.00  0.00    +0.000 N 
ATOM      4  C   UNL     1       0.579  11.176  21.613  0.00  0.00    +0.000 C 
ATOM      5  C   UNL     1      -0.825  11.750  21.782  0.00  0.00    +0.000 C 
ATOM      6  C   UNL     1      -1.543  11.952  20.436  0.00  0.00    +0.000 C 
ATOM      7  C   UNL     1      -1.524  10.637  19.627  0.00  0.00    +0.000 C 
ATOM      8  C   UNL     1      -0.112  10.039  19.534  0.00  0.00    +0.000 C 
ENDROOT
BRANCH   1  12
ATOM      9  C   UNL     1       2.323   5.536  18.703  0.00  0.00    +0.000 A 
ATOM     10  C   UNL     1       2.528   6.858  18.277  0.00  0.00    +0.000 A 
ATOM     11  C   UNL     1       2.224   7.938  19.111  0.00  0.00    +0.000 A 
ATOM     12  C   UNL     1       1.641   7.715  20.359  0.00  0.00    +0.000 A 
ATOM     13  C   UNL     1       1.278   6.412  20.701  0.00  0.00    +0.000 A 
ATOM     14  C   UNL     1       1.663   5.313  19.920  0.00  0.00    +0.000 A 
BRANCH   9  16
ATOM     15  C   UNL     1       4.016   3.948  18.185  0.00  0.00    +0.000 C 
ATOM     16  O   UNL     1       2.709   4.466  17.944  0.00  0.00    +0.000 OA
ENDBRANCH   9  16
BRANCH  14  17
ATOM     17  O   UNL     1       1.336   4.134  20.534  0.00  0.00    +0.000 OA
ATOM     18  C   UNL     1       2.176   3.621  21.553  0.00  0.00    +0.000 C 
ENDBRANCH  14  17
ENDBRANCH   1  12
BRANCH   7  19
ATOM     19  C   UNL     1      -2.192  10.725  18.258  0.00  0.00    +0.000 A 
ATOM     20  C   UNL     1      -1.707  10.037  17.131  0.00  0.00    +0.000 A 
ATOM     21  C   UNL     1      -2.390  10.078  15.914  0.00  0.00    +0.000 A 
ATOM     22  C   UNL     1      -3.560  10.819  15.799  0.00  0.00    +0.000 A 
ATOM     23  C   UNL     1      -4.043  11.531  16.896  0.00  0.00    +0.000 A 
ATOM     24  C   UNL     1      -3.361  11.487  18.114  0.00  0.00    +0.000 A 
ENDBRANCH   7  19
BRANCH   6  25
ATOM     25  N   UNL     1      -0.968  13.077  19.704  0.00  0.00    +0.000 N 
ATOM     26  C   UNL     1      -0.967  14.364  20.191  0.00  0.00    +0.000 C 
ATOM     27  O   UNL     1      -1.527  14.687  21.232  0.00  0.00    +0.000 OA
ATOM     28  H   UNL     1      -0.409  12.881  18.883  0.00  0.00    +0.000 HD
BRANCH  26  29
ATOM     29  C   UNL     1      -0.274  15.395  19.366  0.00  0.00    +0.000 A 
ATOM     30  C   UNL     1      -1.070  16.462  18.914  0.00  0.00    +0.000 A 
ATOM     31  C   UNL     1      -0.518  17.489  18.138  0.00  0.00    +0.000 A 
ATOM     32  C   UNL     1       0.833  17.466  17.820  0.00  0.00    +0.000 A 
ATOM     33  C   UNL     1       1.638  16.417  18.268  0.00  0.00    +0.000 A 
ATOM     34  C   UNL     1       1.089  15.381  19.037  0.00  0.00    +0.000 A 
ATOM     35 CL   UNL     1       2.198  14.153  19.544  0.00  0.00    +0.000 Cl
ENDBRANCH  26  29
ENDBRANCH   6  25
TORSDOF 6
ENDMDL
MODEL 2
REMARK VINA RESULT:      -7.7      3.098      8.260
REMARK  Name = 
REMARK  8 active torsions:
REMARK  status: ('A' for Active; 'I' for Inactive)
REMARK    1  A    between atoms: C_1  and  O_2
REMARK    2  A    between atoms: O_2  and  C_3
REMARK    3  A    between atoms: C_6  and  C_7
REMARK    4  A    between atoms: C_12  and  N_13
REMARK    5  A    between atoms: C_14  and  C_16
REMARK    6  A    between atoms: C_23  and  C_24
REMARK    7  A    between atoms: C_32  and  O_33
REMARK    8  A    between atoms: O_33  and  C_34
REMARK                            x       y       z     vdW  Elec       q    Type
REMARK                         _______ _______ _______ _____ _____    ______ ____
ROOT
ATOM      1  C   UNL     1      -1.146  13.533  22.461  0.00  0.00    +0.000 C 
ATOM      2  O   UNL     1      -0.403  14.192  23.190  0.00  0.00    +0.000 OA
ATOM      3  N   UNL     1      -0.659  12.772  21.387  0.00  0.00    +0.000 N 
ATOM      4  C   UNL     1       0.778  12.515  21.324  0.00  0.00    +0.000 C 
ATOM      5  C   UNL     1       1.316  12.657  19.902  0.00  0.00    +0.000 C 
ATOM      6  C   UNL     1       0.545  11.790  18.893  0.00  0.00    +0.000 C 
ATOM      7  C   UNL     1      -0.968  12.083  18.995  0.00  0.00    +0.000 C 
ATOM      8  C   UNL     1      -1.471  12.007  20.444  0.00  0.00    +0.000 C 
ENDROOT
BRANCH   1  12
ATOM      9  C   UNL     1      -5.323  13.798  23.478  0.00  0.00    +0.000 A 
ATOM     10  C   UNL     1      -4.522  12.745  23.947  0.00  0.00    +0.000 A 
ATOM     11  C   UNL     1      -3.166  12.670  23.615  0.00  0.00    +0.000 A 
ATOM     12  C   UNL     1      -2.606  13.608  22.748  0.00  0.00    +0.000 A 
ATOM     13  C   UNL     1      -3.448  14.545  22.147  0.00  0.00    +0.000 A 
ATOM     14  C   UNL     1      -4.784  14.693  22.543  0.00  0.00    +0.000 A 
BRANCH   9  16
ATOM     15  C   UNL     1      -7.454  12.788  23.789  0.00  0.00    +0.000 C 
ATOM     16  O   UNL     1      -6.624  13.945  23.874  0.00  0.00    +0.000 OA
ENDBRANCH   9  16
BRANCH  14  17
ATOM     17  O   UNL     1      -5.362  15.774  21.933  0.00  0.00    +0.000 OA
ATOM     18  C   UNL     1      -6.111  15.587  20.745  0.00  0.00    +0.000 C 
ENDBRANCH  14  17
ENDBRANCH   1  12
BRANCH   7  19
ATOM     19  C   UNL     1      -1.838  11.261  18.050  0.00  0.00    +0.000 A 
ATOM     20  C   UNL     1      -2.563  10.131  18.474  0.00  0.00    +0.000 A 
ATOM     21  C   UNL     1      -3.411   9.451  17.599  0.00  0.00    +0.000 A 
ATOM     22  C   UNL     1      -3.539   9.877  16.283  0.00  0.00    +0.000 A 
ATOM     23  C   UNL     1      -2.808  10.976  15.835  0.00  0.00    +0.000 A 
ATOM     24  C   UNL     1      -1.961  11.659  16.711  0.00  0.00    +0.000 A 
ENDBRANCH   7  19
BRANCH   6  25
ATOM     25  N   UNL     1       0.862  10.376  19.072  0.00  0.00    +0.000 N 
ATOM     26  C   UNL     1       1.873   9.743  18.384  0.00  0.00    +0.000 C 
ATOM     27  O   UNL     1       2.526  10.288  17.502  0.00  0.00    +0.000 OA
ATOM     28  H   UNL     1       0.431   9.880  19.843  0.00  0.00    +0.000 HD
BRANCH  26  29
ATOM     29  C   UNL     1       2.129   8.315  18.729  0.00  0.00    +0.000 A 
ATOM     30  C   UNL     1       2.726   7.535  17.724  0.00  0.00    +0.000 A 
ATOM     31  C   UNL     1       3.017   6.182  17.946  0.00  0.00    +0.000 A 
ATOM     32  C   UNL     1       2.730   5.605  19.176  0.00  0.00    +0.000 A 
ATOM     33  C   UNL     1       2.144   6.370  20.186  0.00  0.00    +0.000 A 
ATOM     34  C   UNL     1       1.841   7.721  19.966  0.00  0.00    +0.000 A 
ATOM     35 CL   UNL     1       1.136   8.559  21.306  0.00  0.00    +0.000 Cl
ENDBRANCH  26  29
ENDBRANCH   6  25
TORSDOF 6
ENDMDL
MODEL 3
REMARK VINA RESULT:      -7.6      1.282      1.522
REMARK  Name = 
REMARK  8 active torsions:
REMARK  status: ('A' for Active; 'I' for Inactive)
REMARK    1  A    between atoms: C_1  and  O_2
REMARK    2  A    between atoms: O_2  and  C_3
REMARK    3  A    between atoms: C_6  and  C_7
REMARK    4  A    between atoms: C_12  and  N_13
REMARK    5  A    between atoms: C_14  and  C_16
REMARK    6  A    between atoms: C_23  and  C_24
REMARK    7  A    between atoms: C_32  and  O_33
REMARK    8  A    between atoms: O_33  and  C_34
REMARK                            x       y       z     vdW  Elec       q    Type
REMARK                         _______ _______ _______ _____ _____    ______ ____
ROOT
ATOM      1  C   UNL     1       1.122   9.399  21.312  0.00  0.00    +0.000 C 
ATOM      2  O   UNL     1       1.591   9.384  22.450  0.00  0.00    +0.000 OA
ATOM      3  N   UNL     1       0.227  10.392  20.885  0.00  0.00    +0.000 N 
ATOM      4  C   UNL     1       0.093  11.595  21.703  0.00  0.00    +0.000 C 
ATOM      5  C   UNL     1      -1.364  12.031  21.834  0.00  0.00    +0.000 C 
ATOM      6  C   UNL     1      -2.051  12.202  20.468  0.00  0.00    +0.000 C 
ATOM      7  C   UNL     1      -1.881  10.917  19.629  0.00  0.00    +0.000 C 
ATOM      8  C   UNL     1      -0.417  10.455  19.574  0.00  0.00    +0.000 C 
ENDROOT
BRANCH   1  12
ATOM      9  C   UNL     1       2.451   6.247  18.694  0.00  0.00    +0.000 A 
ATOM     10  C   UNL     1       2.302   7.566  18.234  0.00  0.00    +0.000 A 
ATOM     11  C   UNL     1       1.873   8.582  19.092  0.00  0.00    +0.000 A 
ATOM     12  C   UNL     1       1.518   8.282  20.408  0.00  0.00    +0.000 A 
ATOM     13  C   UNL     1       1.500   6.945  20.805  0.00  0.00    +0.000 A 
ATOM     14  C   UNL     1       2.017   5.930  19.988  0.00  0.00    +0.000 A 
BRANCH   9  16
ATOM     15  C   UNL     1       4.370   5.029  17.994  0.00  0.00    +0.000 C 
ATOM     16  O   UNL     1       2.966   5.261  17.898  0.00  0.00    +0.000 OA
ENDBRANCH   9  16
BRANCH  14  17
ATOM     17  O   UNL     1       2.041   4.731  20.649  0.00  0.00    +0.000 OA
ATOM     18  C   UNL     1       1.104   3.725  20.304  0.00  0.00    +0.000 C 
ENDBRANCH  14  17
ENDBRANCH   1  12
BRANCH   7  19
ATOM     19  C   UNL     1      -2.507  10.979  18.239  0.00  0.00    +0.000 A 
ATOM     20  C   UNL     1      -1.874  10.454  17.098  0.00  0.00    +0.000 A 
ATOM     21  C   UNL     1      -2.512  10.457  15.856  0.00  0.00    +0.000 A 
ATOM     22  C   UNL     1      -3.786  10.999  15.731  0.00  0.00    +0.000 A 
ATOM     23  C   UNL     1      -4.419  11.550  16.844  0.00  0.00    +0.000 A 
ATOM     24  C   UNL     1      -3.782  11.543  18.087  0.00  0.00    +0.000 A 
ENDBRANCH   7  19
BRANCH   6  25
ATOM     25  N   UNL     1      -1.559  13.394  19.784  0.00  0.00    +0.000 N 
ATOM     26  C   UNL     1      -1.565  14.643  20.362  0.00  0.00    +0.000 C 
ATOM     27  O   UNL     1      -2.065  14.873  21.457  0.00  0.00    +0.000 OA
ATOM     28  H   UNL     1      -1.050  13.276  18.917  0.00  0.00    +0.000 HD
BRANCH  26  29
ATOM     29  C   UNL     1      -0.959  15.753  19.571  0.00  0.00    +0.000 A 
ATOM     30  C   UNL     1       0.338  15.526  19.081  0.00  0.00    +0.000 A 
ATOM     31  C   UNL     1       0.997  16.501  18.319  0.00  0.00    +0.000 A 
ATOM     32  C   UNL     1       0.360  17.700  18.030  0.00  0.00    +0.000 A 
ATOM     33  C   UNL     1      -0.932  17.937  18.504  0.00  0.00    +0.000 A 
ATOM     34  C   UNL     1      -1.592  16.969  19.275  0.00  0.00    +0.000 A 
ATOM     35 CL   UNL     1      -3.195  17.380  19.783  0.00  0.00    +0.000 Cl
ENDBRANCH  26  29
ENDBRANCH   6  25
TORSDOF 6
ENDMDL
MODEL 4
REMARK VINA RESULT:      -7.4      3.306      8.134
REMARK  Name = 
REMARK  8 active torsions:
REMARK  status: ('A' for Active; 'I' for Inactive)
REMARK    1  A    between atoms: C_1  and  O_2
REMARK    2  A    between atoms: O_2  and  C_3
REMARK    3  A    between atoms: C_6  and  C_7
REMARK    4  A    between atoms: C_12  and  N_13
REMARK    5  A    between atoms: C_14  and  C_16
REMARK    6  A    between atoms: C_23  and  C_24
REMARK    7  A    between atoms: C_32  and  O_33
REMARK    8  A    between atoms: O_33  and  C_34
REMARK                            x       y       z     vdW  Elec       q    Type
REMARK                         _______ _______ _______ _____ _____    ______ ____
ROOT
ATOM      1  C   UNL     1      -1.858  13.209  22.735  0.00  0.00    +0.000 C 
ATOM      2  O   UNL     1      -1.175  13.847  23.537  0.00  0.00    +0.000 OA
ATOM      3  N   UNL     1      -1.310  12.633  21.579  0.00  0.00    +0.000 N 
ATOM      4  C   UNL     1       0.145  12.528  21.486  0.00  0.00    +0.000 C 
ATOM      5  C   UNL     1       0.651  12.890  20.092  0.00  0.00    +0.000 C 
ATOM      6  C   UNL     1      -0.042  12.076  18.986  0.00  0.00    +0.000 C 
ATOM      7  C   UNL     1      -1.575  12.203  19.121  0.00  0.00    +0.000 C 
ATOM      8  C   UNL     1      -2.053  11.908  20.550  0.00  0.00    +0.000 C 
ENDROOT
BRANCH   1  12
ATOM      9  C   UNL     1      -6.044  13.031  23.734  0.00  0.00    +0.000 A 
ATOM     10  C   UNL     1      -5.073  12.414  24.539  0.00  0.00    +0.000 A 
ATOM     11  C   UNL     1      -3.717  12.480  24.208  0.00  0.00    +0.000 A 
ATOM     12  C   UNL     1      -3.315  13.105  23.027  0.00  0.00    +0.000 A 
ATOM     13  C   UNL     1      -4.297  13.559  22.146  0.00  0.00    +0.000 A 
ATOM     14  C   UNL     1      -5.652  13.585  22.507  0.00  0.00    +0.000 A 
BRANCH   9  16
ATOM     15  C   UNL     1      -7.916  14.348  24.382  0.00  0.00    +0.000 C 
ATOM     16  O   UNL     1      -7.363  13.064  24.093  0.00  0.00    +0.000 OA
ENDBRANCH   9  16
BRANCH  14  17
ATOM     17  O   UNL     1      -6.403  14.218  21.553  0.00  0.00    +0.000 OA
ATOM     18  C   UNL     1      -6.418  13.713  20.229  0.00  0.00    +0.000 C 
ENDBRANCH  14  17
ENDBRANCH   1  12
BRANCH   7  19
ATOM     19  C   UNL     1      -2.371  11.417  18.084  0.00  0.00    +0.000 A 
ATOM     20  C   UNL     1      -3.756  11.589  17.899  0.00  0.00    +0.000 A 
ATOM     21  C   UNL     1      -4.436  10.910  16.887  0.00  0.00    +0.000 A 
ATOM     22  C   UNL     1      -3.749  10.037  16.053  0.00  0.00    +0.000 A 
ATOM     23  C   UNL     1      -2.383   9.830  16.237  0.00  0.00    +0.000 A 
ATOM     24  C   UNL     1      -1.701  10.512  17.248  0.00  0.00    +0.000 A 
ENDBRANCH   7  19
BRANCH   6  25
ATOM     25  N   UNL     1       0.414  10.689  18.996  0.00  0.00    +0.000 N 
ATOM     26  C   UNL     1       1.662  10.310  18.555  0.00  0.00    +0.000 C 
ATOM     27  O   UNL     1       2.454  11.087  18.035  0.00  0.00    +0.000 OA
ATOM     28  H   UNL     1      -0.142  10.003  19.491  0.00  0.00    +0.000 HD
BRANCH  26  29
ATOM     29  C   UNL     1       2.016   8.868  18.699  0.00  0.00    +0.000 A 
ATOM     30  C   UNL     1       2.612   8.264  17.579  0.00  0.00    +0.000 A 
ATOM     31  C   UNL     1       2.990   6.915  17.609  0.00  0.00    +0.000 A 
ATOM     32  C   UNL     1       2.792   6.166  18.761  0.00  0.00    +0.000 A 
ATOM     33  C   UNL     1       2.208   6.756  19.885  0.00  0.00    +0.000 A 
ATOM     34  C   UNL     1       1.818   8.102  19.857  0.00  0.00    +0.000 A 
ATOM     35 CL   UNL     1       1.126   8.713  21.320  0.00  0.00    +0.000 Cl
ENDBRANCH  26  29
ENDBRANCH   6  25
TORSDOF 6
ENDMDL
MODEL 5
REMARK VINA RESULT:      -7.3      0.784      1.629
REMARK  Name = 
REMARK  8 active torsions:
REMARK  status: ('A' for Active; 'I' for Inactive)
REMARK    1  A    between atoms: C_1  and  O_2
REMARK    2  A    between atoms: O_2  and  C_3
REMARK    3  A    between atoms: C_6  and  C_7
REMARK    4  A    between atoms: C_12  and  N_13
REMARK    5  A    between atoms: C_14  and  C_16
REMARK    6  A    between atoms: C_23  and  C_24
REMARK    7  A    between atoms: C_32  and  O_33
REMARK    8  A    between atoms: O_33  and  C_34
REMARK                            x       y       z     vdW  Elec       q    Type
REMARK                         _______ _______ _______ _____ _____    ______ ____
ROOT
ATOM      1  C   UNL     1       1.375   8.951  21.362  0.00  0.00    +0.000 C 
ATOM      2  O   UNL     1       1.854   8.938  22.497  0.00  0.00    +0.000 OA
ATOM      3  N   UNL     1       0.551   9.992  20.909  0.00  0.00    +0.000 N 
ATOM      4  C   UNL     1       0.513  11.227  21.688  0.00  0.00    +0.000 C 
ATOM      5  C   UNL     1      -0.907  11.773  21.815  0.00  0.00    +0.000 C 
ATOM      6  C   UNL     1      -1.592  11.950  20.450  0.00  0.00    +0.000 C 
ATOM      7  C   UNL     1      -1.525  10.629  19.652  0.00  0.00    +0.000 C 
ATOM      8  C   UNL     1      -0.099  10.060  19.601  0.00  0.00    +0.000 C 
ENDROOT
BRANCH   1  12
ATOM      9  C   UNL     1       2.062   5.546  18.814  0.00  0.00    +0.000 A 
ATOM     10  C   UNL     1       1.481   5.403  20.085  0.00  0.00    +0.000 A 
ATOM     11  C   UNL     1       1.260   6.515  20.903  0.00  0.00    +0.000 A 
ATOM     12  C   UNL     1       1.680   7.780  20.492  0.00  0.00    +0.000 A 
ATOM     13  C   UNL     1       2.413   7.887  19.310  0.00  0.00    +0.000 A 
ATOM     14  C   UNL     1       2.560   6.801  18.435  0.00  0.00    +0.000 A 
BRANCH   9  16
ATOM     15  C   UNL     1       1.513   3.285  18.318  0.00  0.00    +0.000 C 
ATOM     16  O   UNL     1       2.194   4.486  17.959  0.00  0.00    +0.000 OA
ENDBRANCH   9  16
BRANCH  14  17
ATOM     17  O   UNL     1       3.174   7.183  17.274  0.00  0.00    +0.000 OA
ATOM     18  C   UNL     1       4.549   6.894  17.083  0.00  0.00    +0.000 C 
ENDBRANCH  14  17
ENDBRANCH   1  12
BRANCH   7  19
ATOM     19  C   UNL     1      -2.159  10.692  18.266  0.00  0.00    +0.000 A 
ATOM     20  C   UNL     1      -1.659   9.965  17.169  0.00  0.00    +0.000 A 
ATOM     21  C   UNL     1      -2.312   9.986  15.936  0.00  0.00    +0.000 A 
ATOM     22  C   UNL     1      -3.465  10.744  15.772  0.00  0.00    +0.000 A 
ATOM     23  C   UNL     1      -3.961  11.493  16.838  0.00  0.00    +0.000 A 
ATOM     24  C   UNL     1      -3.309  11.470  18.073  0.00  0.00    +0.000 A 
ENDBRANCH   7  19
BRANCH   6  25
ATOM     25  N   UNL     1      -1.022  13.080  19.723  0.00  0.00    +0.000 N 
ATOM     26  C   UNL     1      -1.046  14.368  20.208  0.00  0.00    +0.000 C 
ATOM     27  O   UNL     1      -1.625  14.686  21.240  0.00  0.00    +0.000 OA
ATOM     28  H   UNL     1      -0.449  12.890  18.911  0.00  0.00    +0.000 HD
BRANCH  26  29
ATOM     29  C   UNL     1      -0.355  15.407  19.390  0.00  0.00    +0.000 A 
ATOM     30  C   UNL     1      -1.137  16.508  19.002  0.00  0.00    +0.000 A 
ATOM     31  C   UNL     1      -0.584  17.545  18.238  0.00  0.00    +0.000 A 
ATOM     32  C   UNL     1       0.753  17.497  17.870  0.00  0.00    +0.000 A 
ATOM     33  C   UNL     1       1.544  16.413  18.255  0.00  0.00    +0.000 A 
ATOM     34  C   UNL     1       0.995  15.368  19.012  0.00  0.00    +0.000 A 
ATOM     35 CL   UNL     1       2.087  14.096  19.439  0.00  0.00    +0.000 Cl
ENDBRANCH  26  29
ENDBRANCH   6  25
TORSDOF 6
ENDMDL
MODEL 6
REMARK VINA RESULT:      -7.2      4.095      7.621
REMARK  Name = 
REMARK  8 active torsions:
REMARK  status: ('A' for Active; 'I' for Inactive)
REMARK    1  A    between atoms: C_1  and  O_2
REMARK    2  A    between atoms: O_2  and  C_3
REMARK    3  A    between atoms: C_6  and  C_7
REMARK    4  A    between atoms: C_12  and  N_13
REMARK    5  A    between atoms: C_14  and  C_16
REMARK    6  A    between atoms: C_23  and  C_24
REMARK    7  A    between atoms: C_32  and  O_33
REMARK    8  A    between atoms: O_33  and  C_34
REMARK                            x       y       z     vdW  Elec       q    Type
REMARK                         _______ _______ _______ _____ _____    ______ ____
ROOT
ATOM      1  C   UNL     1       1.704  16.170  20.295  0.00  0.00    +0.000 C 
ATOM      2  O   UNL     1       1.507  17.349  20.000  0.00  0.00    +0.000 OA
ATOM      3  N   UNL     1       0.686  15.205  20.243  0.00  0.00    +0.000 N 
ATOM      4  C   UNL     1      -0.545  15.543  19.533  0.00  0.00    +0.000 C 
ATOM      5  C   UNL     1      -1.783  15.066  20.289  0.00  0.00    +0.000 C 
ATOM      6  C   UNL     1      -1.723  13.567  20.626  0.00  0.00    +0.000 C 
ATOM      7  C   UNL     1      -0.406  13.246  21.366  0.00  0.00    +0.000 C 
ATOM      8  C   UNL     1       0.819  13.801  20.626  0.00  0.00    +0.000 C 
ENDROOT
BRANCH   1  12
ATOM      9  C   UNL     1       5.597  14.969  21.693  0.00  0.00    +0.000 A 
ATOM     10  C   UNL     1       4.588  15.360  22.587  0.00  0.00    +0.000 A 
ATOM     11  C   UNL     1       3.327  15.745  22.124  0.00  0.00    +0.000 A 
ATOM     12  C   UNL     1       3.077  15.813  20.753  0.00  0.00    +0.000 A 
ATOM     13  C   UNL     1       4.135  15.595  19.871  0.00  0.00    +0.000 A 
ATOM     14  C   UNL     1       5.375  15.116  20.317  0.00  0.00    +0.000 A 
BRANCH   9  16
ATOM     15  C   UNL     1       6.785  13.247  22.826  0.00  0.00    +0.000 C 
ATOM     16  O   UNL     1       6.803  14.493  22.131  0.00  0.00    +0.000 OA
ENDBRANCH   9  16
BRANCH  14  17
ATOM     17  O   UNL     1       6.199  14.826  19.262  0.00  0.00    +0.000 OA
ATOM     18  C   UNL     1       5.694  14.906  17.940  0.00  0.00    +0.000 C 
ENDBRANCH  14  17
ENDBRANCH   1  12
BRANCH   7  19
ATOM     19  C   UNL     1      -0.227  11.777  21.735  0.00  0.00    +0.000 A 
ATOM     20  C   UNL     1      -0.902  11.178  22.816  0.00  0.00    +0.000 A 
ATOM     21  C   UNL     1      -0.775   9.813  23.075  0.00  0.00    +0.000 A 
ATOM     22  C   UNL     1       0.039   9.025  22.270  0.00  0.00    +0.000 A 
ATOM     23  C   UNL     1       0.739   9.604  21.212  0.00  0.00    +0.000 A 
ATOM     24  C   UNL     1       0.609  10.970  20.950  0.00  0.00    +0.000 A 
ENDBRANCH   7  19
BRANCH   6  25
ATOM     25  N   UNL     1      -1.911  12.755  19.427  0.00  0.00    +0.000 N 
ATOM     26  C   UNL     1      -3.098  12.124  19.131  0.00  0.00    +0.000 C 
ATOM     27  O   UNL     1      -4.061  12.116  19.890  0.00  0.00    +0.000 OA
ATOM     28  H   UNL     1      -1.199  12.786  18.709  0.00  0.00    +0.000 HD
BRANCH  26  29
ATOM     29  C   UNL     1      -3.165  11.394  17.832  0.00  0.00    +0.000 A 
ATOM     30  C   UNL     1      -2.101  10.517  17.561  0.00  0.00    +0.000 A 
ATOM     31  C   UNL     1      -2.069   9.776  16.372  0.00  0.00    +0.000 A 
ATOM     32  C   UNL     1      -3.105   9.893  15.455  0.00  0.00    +0.000 A 
ATOM     33  C   UNL     1      -4.172  10.755  15.715  0.00  0.00    +0.000 A 
ATOM     34  C   UNL     1      -4.205  11.507  16.898  0.00  0.00    +0.000 A 
ATOM     35 CL   UNL     1      -5.593  12.520  17.105  0.00  0.00    +0.000 Cl
ENDBRANCH  26  29
ENDBRANCH   6  25
TORSDOF 6
ENDMDL
MODEL 7
REMARK VINA RESULT:      -7.2      2.849      8.516
REMARK  Name = 
REMARK  8 active torsions:
REMARK  status: ('A' for Active; 'I' for Inactive)
REMARK    1  A    between atoms: C_1  and  O_2
REMARK    2  A    between atoms: O_2  and  C_3
REMARK    3  A    between atoms: C_6  and  C_7
REMARK    4  A    between atoms: C_12  and  N_13
REMARK    5  A    between atoms: C_14  and  C_16
REMARK    6  A    between atoms: C_23  and  C_24
REMARK    7  A    between atoms: C_32  and  O_33
REMARK    8  A    between atoms: O_33  and  C_34
REMARK                            x       y       z     vdW  Elec       q    Type
REMARK                         _______ _______ _______ _____ _____    ______ ____
ROOT
ATOM      1  C   UNL     1       0.215  14.304  22.054  0.00  0.00    +0.000 C 
ATOM      2  O   UNL     1       1.189  14.924  22.483  0.00  0.00    +0.000 OA
ATOM      3  N   UNL     1       0.334  13.315  21.065  0.00  0.00    +0.000 N 
ATOM      4  C   UNL     1       1.668  12.800  20.766  0.00  0.00    +0.000 C 
ATOM      5  C   UNL     1       1.884  12.626  19.265  0.00  0.00    +0.000 C 
ATOM      6  C   UNL     1       0.790  11.767  18.609  0.00  0.00    +0.000 C 
ATOM      7  C   UNL     1      -0.604  12.336  18.955  0.00  0.00    +0.000 C 
ATOM      8  C   UNL     1      -0.771  12.572  20.463  0.00  0.00    +0.000 C 
ENDROOT
BRANCH   1  12
ATOM      9  C   UNL     1      -3.542  15.478  23.804  0.00  0.00    +0.000 A 
ATOM     10  C   UNL     1      -2.752  14.469  24.377  0.00  0.00    +0.000 A 
ATOM     11  C   UNL     1      -1.533  14.097  23.803  0.00  0.00    +0.000 A 
ATOM     12  C   UNL     1      -1.117  14.681  22.606  0.00  0.00    +0.000 A 
ATOM     13  C   UNL     1      -1.988  15.552  21.952  0.00  0.00    +0.000 A 
ATOM     14  C   UNL     1      -3.167  16.005  22.560  0.00  0.00    +0.000 A 
BRANCH   9  16
ATOM     15  C   UNL     1      -4.588  17.144  25.141  0.00  0.00    +0.000 C 
ATOM     16  O   UNL     1      -4.686  15.926  24.405  0.00  0.00    +0.000 OA
ENDBRANCH   9  16
BRANCH  14  17
ATOM     17  O   UNL     1      -3.773  16.970  21.801  0.00  0.00    +0.000 OA
ATOM     18  C   UNL     1      -3.794  16.838  20.390  0.00  0.00    +0.000 C 
ENDBRANCH  14  17
ENDBRANCH   1  12
BRANCH   7  19
ATOM     19  C   UNL     1      -1.773  11.547  18.372  0.00  0.00    +0.000 A 
ATOM     20  C   UNL     1      -1.594  10.470  17.484  0.00  0.00    +0.000 A 
ATOM     21  C   UNL     1      -2.682   9.722  17.034  0.00  0.00    +0.000 A 
ATOM     22  C   UNL     1      -3.968  10.046  17.449  0.00  0.00    +0.000 A 
ATOM     23  C   UNL     1      -4.170  11.127  18.306  0.00  0.00    +0.000 A 
ATOM     24  C   UNL     1      -3.080  11.874  18.760  0.00  0.00    +0.000 A 
ENDBRANCH   7  19
BRANCH   6  25
ATOM     25  N   UNL     1       0.937  10.363  18.983  0.00  0.00    +0.000 N 
ATOM     26  C   UNL     1       1.860   9.527  18.397  0.00  0.00    +0.000 C 
ATOM     27  O   UNL     1       2.567   9.864  17.455  0.00  0.00    +0.000 OA
ATOM     28  H   UNL     1       0.456  10.032  19.810  0.00  0.00    +0.000 HD
BRANCH  26  29
ATOM     29  C   UNL     1       1.948   8.139  18.936  0.00  0.00    +0.000 A 
ATOM     30  C   UNL     1       2.350   7.147  18.025  0.00  0.00    +0.000 A 
ATOM     31  C   UNL     1       2.472   5.810  18.430  0.00  0.00    +0.000 A 
ATOM     32  C   UNL     1       2.208   5.459  19.747  0.00  0.00    +0.000 A 
ATOM     33  C   UNL     1       1.814   6.435  20.664  0.00  0.00    +0.000 A 
ATOM     34  C   UNL     1       1.681   7.772  20.263  0.00  0.00    +0.000 A 
ATOM     35 CL   UNL     1       1.206   8.883  21.502  0.00  0.00    +0.000 Cl
ENDBRANCH  26  29
ENDBRANCH   6  25
TORSDOF 6
ENDMDL
MODEL 8
REMARK VINA RESULT:      -7.1      3.974      7.598
REMARK  Name = 
REMARK  8 active torsions:
REMARK  status: ('A' for Active; 'I' for Inactive)
REMARK    1  A    between atoms: C_1  and  O_2
REMARK    2  A    between atoms: O_2  and  C_3
REMARK    3  A    between atoms: C_6  and  C_7
REMARK    4  A    between atoms: C_12  and  N_13
REMARK    5  A    between atoms: C_14  and  C_16
REMARK    6  A    between atoms: C_23  and  C_24
REMARK    7  A    between atoms: C_32  and  O_33
REMARK    8  A    between atoms: O_33  and  C_34
REMARK                            x       y       z     vdW  Elec       q    Type
REMARK                         _______ _______ _______ _____ _____    ______ ____
ROOT
ATOM      1  C   UNL     1       2.189  16.161  19.937  0.00  0.00    +0.000 C 
ATOM      2  O   UNL     1       2.076  17.320  19.536  0.00  0.00    +0.000 OA
ATOM      3  N   UNL     1       1.105  15.271  19.970  0.00  0.00    +0.000 N 
ATOM      4  C   UNL     1      -0.102  15.632  19.229  0.00  0.00    +0.000 C 
ATOM      5  C   UNL     1      -1.368  15.315  20.022  0.00  0.00    +0.000 C 
ATOM      6  C   UNL     1      -1.415  13.851  20.493  0.00  0.00    +0.000 C 
ATOM      7  C   UNL     1      -0.122  13.505  21.263  0.00  0.00    +0.000 C 
ATOM      8  C   UNL     1       1.138  13.901  20.478  0.00  0.00    +0.000 C 
ENDROOT
BRANCH   1  12
ATOM      9  C   UNL     1       5.996  14.799  21.424  0.00  0.00    +0.000 A 
ATOM     10  C   UNL     1       4.966  15.185  22.296  0.00  0.00    +0.000 A 
ATOM     11  C   UNL     1       3.733  15.622  21.804  0.00  0.00    +0.000 A 
ATOM     12  C   UNL     1       3.534  15.749  20.429  0.00  0.00    +0.000 A 
ATOM     13  C   UNL     1       4.618  15.534  19.577  0.00  0.00    +0.000 A 
ATOM     14  C   UNL     1       5.828  15.005  20.047  0.00  0.00    +0.000 A 
BRANCH   9  16
ATOM     15  C   UNL     1       7.128  13.620  23.152  0.00  0.00    +0.000 C 
ATOM     16  O   UNL     1       7.172  14.273  21.885  0.00  0.00    +0.000 OA
ENDBRANCH   9  16
BRANCH  14  17
ATOM     17  O   UNL     1       6.681  14.731  19.012  0.00  0.00    +0.000 OA
ATOM     18  C   UNL     1       7.424  15.784  18.423  0.00  0.00    +0.000 C 
ENDBRANCH  14  17
ENDBRANCH   1  12
BRANCH   7  19
ATOM     19  C   UNL     1      -0.048  12.065  21.763  0.00  0.00    +0.000 A 
ATOM     20  C   UNL     1      -0.923  11.556  22.739  0.00  0.00    +0.000 A 
ATOM     21  C   UNL     1      -0.877  10.212  23.115  0.00  0.00    +0.000 A 
ATOM     22  C   UNL     1       0.053   9.359  22.534  0.00  0.00    +0.000 A 
ATOM     23  C   UNL     1       0.948   9.851  21.585  0.00  0.00    +0.000 A 
ATOM     24  C   UNL     1       0.900  11.195  21.206  0.00  0.00    +0.000 A 
ENDBRANCH   7  19
BRANCH   6  25
ATOM     25  N   UNL     1      -1.666  12.951  19.372  0.00  0.00    +0.000 N 
ATOM     26  C   UNL     1      -2.842  12.251  19.224  0.00  0.00    +0.000 C 
ATOM     27  O   UNL     1      -3.734  12.254  20.065  0.00  0.00    +0.000 OA
ATOM     28  H   UNL     1      -1.020  12.962  18.592  0.00  0.00    +0.000 HD
BRANCH  26  29
ATOM     29  C   UNL     1      -2.985  11.429  17.988  0.00  0.00    +0.000 A 
ATOM     30  C   UNL     1      -4.143  11.658  17.225  0.00  0.00    +0.000 A 
ATOM     31  C   UNL     1      -4.372  10.945  16.040  0.00  0.00    +0.000 A 
ATOM     32  C   UNL     1      -3.442  10.012  15.603  0.00  0.00    +0.000 A 
ATOM     33  C   UNL     1      -2.283   9.780  16.347  0.00  0.00    +0.000 A 
ATOM     34  C   UNL     1      -2.053  10.483  17.538  0.00  0.00    +0.000 A 
ATOM     35 CL   UNL     1      -0.571  10.115  18.352  0.00  0.00    +0.000 Cl
ENDBRANCH  26  29
ENDBRANCH   6  25
TORSDOF 6
ENDMDL
MODEL 9
REMARK VINA RESULT:      -7.1      3.954      7.482
REMARK  Name = 
REMARK  8 active torsions:
REMARK  status: ('A' for Active; 'I' for Inactive)
REMARK    1  A    between atoms: C_1  and  O_2
REMARK    2  A    between atoms: O_2  and  C_3
REMARK    3  A    between atoms: C_6  and  C_7
REMARK    4  A    between atoms: C_12  and  N_13
REMARK    5  A    between atoms: C_14  and  C_16
REMARK    6  A    between atoms: C_23  and  C_24
REMARK    7  A    between atoms: C_32  and  O_33
REMARK    8  A    between atoms: O_33  and  C_34
REMARK                            x       y       z     vdW  Elec       q    Type
REMARK                         _______ _______ _______ _____ _____    ______ ____
ROOT
ATOM      1  C   UNL     1       2.364  16.090  19.901  0.00  0.00    +0.000 C 
ATOM      2  O   UNL     1       2.311  17.251  19.496  0.00  0.00    +0.000 OA
ATOM      3  N   UNL     1       1.243  15.246  19.904  0.00  0.00    +0.000 N 
ATOM      4  C   UNL     1       0.073  15.655  19.131  0.00  0.00    +0.000 C 
ATOM      5  C   UNL     1      -1.227  15.393  19.889  0.00  0.00    +0.000 C 
ATOM      6  C   UNL     1      -1.348  13.934  20.360  0.00  0.00    +0.000 C 
ATOM      7  C   UNL     1      -0.091  13.535  21.165  0.00  0.00    +0.000 C 
ATOM      8  C   UNL     1       1.204  13.877  20.415  0.00  0.00    +0.000 C 
ENDROOT
BRANCH   1  12
ATOM      9  C   UNL     1       6.238  14.913  21.371  0.00  0.00    +0.000 A 
ATOM     10  C   UNL     1       5.974  15.001  19.995  0.00  0.00    +0.000 A 
ATOM     11  C   UNL     1       4.714  15.386  19.527  0.00  0.00    +0.000 A 
ATOM     12  C   UNL     1       3.677  15.623  20.430  0.00  0.00    +0.000 A 
ATOM     13  C   UNL     1       3.898  15.362  21.782  0.00  0.00    +0.000 A 
ATOM     14  C   UNL     1       5.177  15.069  22.274  0.00  0.00    +0.000 A 
BRANCH   9  16
ATOM     15  C   UNL     1       7.776  13.270  22.142  0.00  0.00    +0.000 C 
ATOM     16  O   UNL     1       7.490  14.637  21.848  0.00  0.00    +0.000 OA
ENDBRANCH   9  16
BRANCH  14  17
ATOM     17  O   UNL     1       5.178  15.012  23.642  0.00  0.00    +0.000 OA
ATOM     18  C   UNL     1       4.745  16.137  24.387  0.00  0.00    +0.000 C 
ENDBRANCH  14  17
ENDBRANCH   1  12
BRANCH   7  19
ATOM     19  C   UNL     1      -0.091  12.095  21.668  0.00  0.00    +0.000 A 
ATOM     20  C   UNL     1       0.812  11.126  21.194  0.00  0.00    +0.000 A 
ATOM     21  C   UNL     1       0.835   9.839  21.735  0.00  0.00    +0.000 A 
ATOM     22  C   UNL     1      -0.053   9.494  22.746  0.00  0.00    +0.000 A 
ATOM     23  C   UNL     1      -0.975  10.431  23.210  0.00  0.00    +0.000 A 
ATOM     24  C   UNL     1      -0.995  11.720  22.672  0.00  0.00    +0.000 A 
ENDBRANCH   7  19
BRANCH   6  25
ATOM     25  N   UNL     1      -1.605  13.042  19.233  0.00  0.00    +0.000 N 
ATOM     26  C   UNL     1      -2.713  12.229  19.162  0.00  0.00    +0.000 C 
ATOM     27  O   UNL     1      -3.523  12.118  20.076  0.00  0.00    +0.000 OA
ATOM     28  H   UNL     1      -1.036  13.140  18.402  0.00  0.00    +0.000 HD
BRANCH  26  29
ATOM     29  C   UNL     1      -2.882  11.430  17.914  0.00  0.00    +0.000 A 
ATOM     30  C   UNL     1      -4.065  11.658  17.190  0.00  0.00    +0.000 A 
ATOM     31  C   UNL     1      -4.320  10.966  15.999  0.00  0.00    +0.000 A 
ATOM     32  C   UNL     1      -3.391  10.054  15.515  0.00  0.00    +0.000 A 
ATOM     33  C   UNL     1      -2.208   9.823  16.220  0.00  0.00    +0.000 A 
ATOM     34  C   UNL     1      -1.952  10.505  17.418  0.00  0.00    +0.000 A 
ATOM     35 CL   UNL     1      -0.442  10.141  18.181  0.00  0.00    +0.000 Cl
ENDBRANCH  26  29
ENDBRANCH   6  25
TORSDOF 6
ENDMDL
