MODEL 1
REMARK VINA RESULT:      -7.3      0.000      0.000
REMARK  Name = 
REMARK  12 active torsions:
REMARK  status: ('A' for Active; 'I' for Inactive)
REMARK    1  A    between atoms: C_1  and  C_2
REMARK    2  A    between atoms: C_2  and  N_3
REMARK    3  A    between atoms: N_3  and  C_4
REMARK    4  A    between atoms: N_3  and  C_6
REMARK    5  A    between atoms: C_4  and  C_5
REMARK    6  A    between atoms: C_6  and  C_7
REMARK    7  A    between atoms: C_7  and  N_8
REMARK    8  A    between atoms: C_9  and  C_11
REMARK    9  A    between atoms: C_13  and  O_14
REMARK   10  A    between atoms: O_14  and  C_15
REMARK   11  A    between atoms: C_15  and  C_16
REMARK   12  A    between atoms: C_15  and  C_17
REMARK                            x       y       z     vdW  Elec       q    Type
REMARK                         _______ _______ _______ _____ _____    ______ ____
ROOT
ATOM      1  C   UNL     1       2.715   6.221  18.942  0.00  0.00    +0.000 A 
ATOM      2  C   UNL     1       3.626   6.385  17.892  0.00  0.00    +0.000 A 
ATOM      3  C   UNL     1       4.106   5.259  17.264  0.00  0.00    +0.000 A 
ATOM      4  N   UNL     1       3.800   4.009  17.652  0.00  0.00    +0.000 NA
ATOM      5  C   UNL     1       2.924   3.845  18.655  0.00  0.00    +0.000 A 
ATOM      6  C   UNL     1       2.606   2.543  19.014  0.00  0.00    +0.000 A 
ATOM      7  C   UNL     1       1.661   2.255  19.999  0.00  0.00    +0.000 A 
ATOM      8  C   UNL     1       0.997   3.292  20.630  0.00  0.00    +0.000 A 
ATOM      9  C   UNL     1       1.303   4.610  20.292  0.00  0.00    +0.000 A 
ATOM     10  C   UNL     1       2.302   4.919  19.329  0.00  0.00    +0.000 A 
ENDROOT
BRANCH   1  12
ATOM     11  N   UNL     1       1.999   7.543  20.895  0.00  0.00    +0.000 N 
ATOM     12  C   UNL     1       2.180   7.483  19.530  0.00  0.00    +0.000 C 
ATOM     13  O   UNL     1       1.944   8.431  18.787  0.00  0.00    +0.000 OA
ATOM     14  H   UNL     1       2.412   6.847  21.503  0.00  0.00    +0.000 HD
BRANCH  11  15
ATOM     15  C   UNL     1       1.464   8.736  21.530  0.00  0.00    +0.000 C 
BRANCH  15  16
ATOM     16  C   UNL     1      -0.063   8.677  21.740  0.00  0.00    +0.000 C 
BRANCH  16  17
ATOM     17  N   UNL     1      -0.792   9.965  21.647  0.00  0.00    +0.000 NA
BRANCH  17  19
ATOM     18  C   UNL     1      -1.237  12.109  22.908  0.00  0.00    +0.000 C 
ATOM     19  C   UNL     1      -0.901  10.621  22.961  0.00  0.00    +0.000 C 
ENDBRANCH  17  19
BRANCH  17  20
ATOM     20  C   UNL     1      -0.194  10.830  20.605  0.00  0.00    +0.000 C 
ATOM     21  C   UNL     1      -0.798  10.741  19.203  0.00  0.00    +0.000 C 
ENDBRANCH  17  20
ENDBRANCH  16  17
ENDBRANCH  15  16
ENDBRANCH  11  15
ENDBRANCH   1  12
BRANCH   3  22
ATOM     22  O   UNL     1       4.974   5.451  16.210  0.00  0.00    +0.000 OA
BRANCH  22  23
ATOM     23  C   UNL     1       5.828   4.332  15.917  0.00  0.00    +0.000 C 
ATOM     24  C   UNL     1       5.966   4.174  14.404  0.00  0.00    +0.000 C 
ATOM     25  C   UNL     1       7.192   4.629  16.532  0.00  0.00    +0.000 C 
ENDBRANCH  22  23
ENDBRANCH   3  22
TORSDOF 8
ENDMDL
MODEL 2
REMARK VINA RESULT:      -7.1      1.531      2.365
REMARK  Name = 
REMARK  12 active torsions:
REMARK  status: ('A' for Active; 'I' for Inactive)
REMARK    1  A    between atoms: C_1  and  C_2
REMARK    2  A    between atoms: C_2  and  N_3
REMARK    3  A    between atoms: N_3  and  C_4
REMARK    4  A    between atoms: N_3  and  C_6
REMARK    5  A    between atoms: C_4  and  C_5
REMARK    6  A    between atoms: C_6  and  C_7
REMARK    7  A    between atoms: C_7  and  N_8
REMARK    8  A    between atoms: C_9  and  C_11
REMARK    9  A    between atoms: C_13  and  O_14
REMARK   10  A    between atoms: O_14  and  C_15
REMARK   11  A    between atoms: C_15  and  C_16
REMARK   12  A    between atoms: C_15  and  C_17
REMARK                            x       y       z     vdW  Elec       q    Type
REMARK                         _______ _______ _______ _____ _____    ______ ____
ROOT
ATOM      1  C   UNL     1       2.982   5.783  18.423  0.00  0.00    +0.000 A 
ATOM      2  C   UNL     1       3.897   5.629  17.376  0.00  0.00    +0.000 A 
ATOM      3  C   UNL     1       4.269   4.354  17.018  0.00  0.00    +0.000 A 
ATOM      4  N   UNL     1       3.853   3.253  17.667  0.00  0.00    +0.000 NA
ATOM      5  C   UNL     1       2.971   3.394  18.668  0.00  0.00    +0.000 A 
ATOM      6  C   UNL     1       2.539   2.237  19.301  0.00  0.00    +0.000 A 
ATOM      7  C   UNL     1       1.578   2.259  20.312  0.00  0.00    +0.000 A 
ATOM      8  C   UNL     1       1.015   3.466  20.690  0.00  0.00    +0.000 A 
ATOM      9  C   UNL     1       1.437   4.643  20.074  0.00  0.00    +0.000 A 
ATOM     10  C   UNL     1       2.454   4.642  19.081  0.00  0.00    +0.000 A 
ENDROOT
BRANCH   1  12
ATOM     11  N   UNL     1       2.334   8.032  17.649  0.00  0.00    +0.000 N 
ATOM     12  C   UNL     1       2.568   7.187  18.712  0.00  0.00    +0.000 C 
ATOM     13  O   UNL     1       2.425   7.535  19.880  0.00  0.00    +0.000 OA
ATOM     14  H   UNL     1       2.231   7.667  16.710  0.00  0.00    +0.000 HD
BRANCH  11  15
ATOM     15  C   UNL     1       1.945   9.416  17.862  0.00  0.00    +0.000 C 
BRANCH  15  16
ATOM     16  C   UNL     1       0.434   9.588  18.122  0.00  0.00    +0.000 C 
BRANCH  16  17
ATOM     17  N   UNL     1       0.004  10.894  18.678  0.00  0.00    +0.000 NA
BRANCH  17  19
ATOM     18  C   UNL     1      -2.082  10.189  17.439  0.00  0.00    +0.000 C 
ATOM     19  C   UNL     1      -1.314  11.296  18.156  0.00  0.00    +0.000 C 
ENDBRANCH  17  19
BRANCH  17  20
ATOM     20  C   UNL     1       0.073  10.880  20.156  0.00  0.00    +0.000 C 
ATOM     21  C   UNL     1      -0.227   9.549  20.848  0.00  0.00    +0.000 C 
ENDBRANCH  17  20
ENDBRANCH  16  17
ENDBRANCH  15  16
ENDBRANCH  11  15
ENDBRANCH   1  12
BRANCH   3  22
ATOM     22  O   UNL     1       5.144   4.230  15.959  0.00  0.00    +0.000 OA
BRANCH  22  23
ATOM     23  C   UNL     1       6.318   5.057  16.045  0.00  0.00    +0.000 C 
ATOM     24  C   UNL     1       7.241   4.527  17.140  0.00  0.00    +0.000 C 
ATOM     25  C   UNL     1       7.023   4.985  14.694  0.00  0.00    +0.000 C 
ENDBRANCH  22  23
ENDBRANCH   3  22
TORSDOF 8
ENDMDL
MODEL 3
REMARK VINA RESULT:      -7.0      1.216      1.615
REMARK  Name = 
REMARK  12 active torsions:
REMARK  status: ('A' for Active; 'I' for Inactive)
REMARK    1  A    between atoms: C_1  and  C_2
REMARK    2  A    between atoms: C_2  and  N_3
REMARK    3  A    between atoms: N_3  and  C_4
REMARK    4  A    between atoms: N_3  and  C_6
REMARK    5  A    between atoms: C_4  and  C_5
REMARK    6  A    between atoms: C_6  and  C_7
REMARK    7  A    between atoms: C_7  and  N_8
REMARK    8  A    between atoms: C_9  and  C_11
REMARK    9  A    between atoms: C_13  and  O_14
REMARK   10  A    between atoms: O_14  and  C_15
REMARK   11  A    between atoms: C_15  and  C_16
REMARK   12  A    between atoms: C_15  and  C_17
REMARK                            x       y       z     vdW  Elec       q    Type
REMARK                         _______ _______ _______ _____ _____    ______ ____
ROOT
ATOM      1  C   UNL     1       2.825   6.174  18.513  0.00  0.00    +0.000 A 
ATOM      2  C   UNL     1       3.772   6.277  17.488  0.00  0.00    +0.000 A 
ATOM      3  C   UNL     1       4.250   5.117  16.923  0.00  0.00    +0.000 A 
ATOM      4  N   UNL     1       3.907   3.891  17.351  0.00  0.00    +0.000 NA
ATOM      5  C   UNL     1       2.995   3.785  18.330  0.00  0.00    +0.000 A 
ATOM      6  C   UNL     1       2.640   2.505  18.731  0.00  0.00    +0.000 A 
ATOM      7  C   UNL     1       1.659   2.275  19.695  0.00  0.00    +0.000 A 
ATOM      8  C   UNL     1       0.995   3.350  20.261  0.00  0.00    +0.000 A 
ATOM      9  C   UNL     1       1.338   4.646  19.880  0.00  0.00    +0.000 A 
ATOM     10  C   UNL     1       2.373   4.897  18.939  0.00  0.00    +0.000 A 
ENDROOT
BRANCH   1  12
ATOM     11  N   UNL     1       1.973   8.454  18.124  0.00  0.00    +0.000 N 
ATOM     12  C   UNL     1       2.297   7.468  19.031  0.00  0.00    +0.000 C 
ATOM     13  O   UNL     1       2.144   7.605  20.241  0.00  0.00    +0.000 OA
ATOM     14  H   UNL     1       1.886   8.242  17.138  0.00  0.00    +0.000 HD
BRANCH  11  15
ATOM     15  C   UNL     1       1.471   9.745  18.564  0.00  0.00    +0.000 C 
BRANCH  15  16
ATOM     16  C   UNL     1      -0.064   9.863  18.465  0.00  0.00    +0.000 C 
BRANCH  16  17
ATOM     17  N   UNL     1      -0.762  10.411  19.653  0.00  0.00    +0.000 NA
BRANCH  17  19
ATOM     18  C   UNL     1      -0.241   9.411  21.913  0.00  0.00    +0.000 C 
ATOM     19  C   UNL     1       0.117  10.429  20.835  0.00  0.00    +0.000 C 
ENDBRANCH  17  19
BRANCH  17  20
ATOM     20  C   UNL     1      -1.361  11.729  19.345  0.00  0.00    +0.000 C 
ATOM     21  C   UNL     1      -1.957  11.906  17.947  0.00  0.00    +0.000 C 
ENDBRANCH  17  20
ENDBRANCH  16  17
ENDBRANCH  15  16
ENDBRANCH  11  15
ENDBRANCH   1  12
BRANCH   3  22
ATOM     22  O   UNL     1       5.155   5.250  15.891  0.00  0.00    +0.000 OA
BRANCH  22  23
ATOM     23  C   UNL     1       6.068   4.148  15.741  0.00  0.00    +0.000 C 
ATOM     24  C   UNL     1       6.368   3.928  14.259  0.00  0.00    +0.000 C 
ATOM     25  C   UNL     1       7.351   4.519  16.478  0.00  0.00    +0.000 C 
ENDBRANCH  22  23
ENDBRANCH   3  22
TORSDOF 8
ENDMDL
MODEL 4
REMARK VINA RESULT:      -7.0      4.533      6.629
REMARK  Name = 
REMARK  12 active torsions:
REMARK  status: ('A' for Active; 'I' for Inactive)
REMARK    1  A    between atoms: C_1  and  C_2
REMARK    2  A    between atoms: C_2  and  N_3
REMARK    3  A    between atoms: N_3  and  C_4
REMARK    4  A    between atoms: N_3  and  C_6
REMARK    5  A    between atoms: C_4  and  C_5
REMARK    6  A    between atoms: C_6  and  C_7
REMARK    7  A    between atoms: C_7  and  N_8
REMARK    8  A    between atoms: C_9  and  C_11
REMARK    9  A    between atoms: C_13  and  O_14
REMARK   10  A    between atoms: O_14  and  C_15
REMARK   11  A    between atoms: C_15  and  C_16
REMARK   12  A    between atoms: C_15  and  C_17
REMARK                            x       y       z     vdW  Elec       q    Type
REMARK                         _______ _______ _______ _____ _____    ______ ____
ROOT
ATOM      1  C   UNL     1       6.460   5.424  17.580  0.00  0.00    +0.000 A 
ATOM      2  C   UNL     1       6.980   4.863  16.408  0.00  0.00    +0.000 A 
ATOM      3  C   UNL     1       6.140   4.115  15.615  0.00  0.00    +0.000 A 
ATOM      4  N   UNL     1       4.866   3.839  15.942  0.00  0.00    +0.000 NA
ATOM      5  C   UNL     1       4.360   4.378  17.061  0.00  0.00    +0.000 A 
ATOM      6  C   UNL     1       3.034   4.096  17.358  0.00  0.00    +0.000 A 
ATOM      7  C   UNL     1       2.387   4.653  18.461  0.00  0.00    +0.000 A 
ATOM      8  C   UNL     1       3.072   5.531  19.282  0.00  0.00    +0.000 A 
ATOM      9  C   UNL     1       4.408   5.825  19.009  0.00  0.00    +0.000 A 
ATOM     10  C   UNL     1       5.096   5.224  17.920  0.00  0.00    +0.000 A 
ENDROOT
BRANCH   1  12
ATOM     11  N   UNL     1       7.683   7.542  17.880  0.00  0.00    +0.000 N 
ATOM     12  C   UNL     1       7.403   6.280  18.355  0.00  0.00    +0.000 C 
ATOM     13  O   UNL     1       7.878   5.844  19.400  0.00  0.00    +0.000 OA
ATOM     14  H   UNL     1       7.112   7.962  17.157  0.00  0.00    +0.000 HD
BRANCH  11  15
ATOM     15  C   UNL     1       8.607   8.420  18.578  0.00  0.00    +0.000 C 
BRANCH  15  16
ATOM     16  C   UNL     1       8.509   9.890  18.120  0.00  0.00    +0.000 C 
BRANCH  16  17
ATOM     17  N   UNL     1       9.542  10.815  18.645  0.00  0.00    +0.000 NA
BRANCH  17  19
ATOM     18  C   UNL     1      10.795  12.542  17.292  0.00  0.00    +0.000 C 
ATOM     19  C   UNL     1       9.492  12.122  17.967  0.00  0.00    +0.000 C 
ENDBRANCH  17  19
BRANCH  17  20
ATOM     20  C   UNL     1       9.453  10.914  20.119  0.00  0.00    +0.000 C 
ATOM     21  C   UNL     1      10.401  11.901  20.803  0.00  0.00    +0.000 C 
ENDBRANCH  17  20
ENDBRANCH  16  17
ENDBRANCH  15  16
ENDBRANCH  11  15
ENDBRANCH   1  12
BRANCH   3  22
ATOM     22  O   UNL     1       6.670   3.606  14.448  0.00  0.00    +0.000 OA
BRANCH  22  23
ATOM     23  C   UNL     1       6.325   4.335  13.257  0.00  0.00    +0.000 C 
ATOM     24  C   UNL     1       7.581   4.975  12.666  0.00  0.00    +0.000 C 
ATOM     25  C   UNL     1       5.739   3.335  12.266  0.00  0.00    +0.000 C 
ENDBRANCH  22  23
ENDBRANCH   3  22
TORSDOF 8
ENDMDL
MODEL 5
REMARK VINA RESULT:      -6.9      1.688      2.373
REMARK  Name = 
REMARK  12 active torsions:
REMARK  status: ('A' for Active; 'I' for Inactive)
REMARK    1  A    between atoms: C_1  and  C_2
REMARK    2  A    between atoms: C_2  and  N_3
REMARK    3  A    between atoms: N_3  and  C_4
REMARK    4  A    between atoms: N_3  and  C_6
REMARK    5  A    between atoms: C_4  and  C_5
REMARK    6  A    between atoms: C_6  and  C_7
REMARK    7  A    between atoms: C_7  and  N_8
REMARK    8  A    between atoms: C_9  and  C_11
REMARK    9  A    between atoms: C_13  and  O_14
REMARK   10  A    between atoms: O_14  and  C_15
REMARK   11  A    between atoms: C_15  and  C_16
REMARK   12  A    between atoms: C_15  and  C_17
REMARK                            x       y       z     vdW  Elec       q    Type
REMARK                         _______ _______ _______ _____ _____    ______ ____
ROOT
ATOM      1  C   UNL     1       2.550   6.552  19.131  0.00  0.00    +0.000 A 
ATOM      2  C   UNL     1       3.445   6.813  18.088  0.00  0.00    +0.000 A 
ATOM      3  C   UNL     1       3.999   5.744  17.421  0.00  0.00    +0.000 A 
ATOM      4  N   UNL     1       3.779   4.464  17.765  0.00  0.00    +0.000 NA
ATOM      5  C   UNL     1       2.918   4.207  18.761  0.00  0.00    +0.000 A 
ATOM      6  C   UNL     1       2.691   2.874  19.075  0.00  0.00    +0.000 A 
ATOM      7  C   UNL     1       1.769   2.489  20.049  0.00  0.00    +0.000 A 
ATOM      8  C   UNL     1       1.038   3.456  20.716  0.00  0.00    +0.000 A 
ATOM      9  C   UNL     1       1.253   4.802  20.424  0.00  0.00    +0.000 A 
ATOM     10  C   UNL     1       2.226   5.212  19.473  0.00  0.00    +0.000 A 
ENDROOT
BRANCH   1  12
ATOM     11  N   UNL     1       1.580   8.810  18.952  0.00  0.00    +0.000 N 
ATOM     12  C   UNL     1       1.932   7.753  19.763  0.00  0.00    +0.000 C 
ATOM     13  O   UNL     1       1.735   7.751  20.974  0.00  0.00    +0.000 OA
ATOM     14  H   UNL     1       1.536   8.700  17.947  0.00  0.00    +0.000 HD
BRANCH  11  15
ATOM     15  C   UNL     1       0.991  10.018  19.507  0.00  0.00    +0.000 C 
BRANCH  15  16
ATOM     16  C   UNL     1      -0.539  10.086  19.319  0.00  0.00    +0.000 C 
BRANCH  16  17
ATOM     17  N   UNL     1      -1.024  10.773  18.098  0.00  0.00    +0.000 NA
BRANCH  17  19
ATOM     18  C   UNL     1      -3.242   9.972  17.189  0.00  0.00    +0.000 C 
ATOM     19  C   UNL     1      -1.721   9.841  17.194  0.00  0.00    +0.000 C 
ENDBRANCH  17  19
BRANCH  17  20
ATOM     20  C   UNL     1      -1.831  11.962  18.453  0.00  0.00    +0.000 C 
ATOM     21  C   UNL     1      -2.096  12.197  19.942  0.00  0.00    +0.000 C 
ENDBRANCH  17  20
ENDBRANCH  16  17
ENDBRANCH  15  16
ENDBRANCH  11  15
ENDBRANCH   1  12
BRANCH   3  22
ATOM     22  O   UNL     1       4.850   6.032  16.375  0.00  0.00    +0.000 OA
BRANCH  22  23
ATOM     23  C   UNL     1       6.130   5.379  16.438  0.00  0.00    +0.000 C 
ATOM     24  C   UNL     1       6.584   5.001  15.028  0.00  0.00    +0.000 C 
ATOM     25  C   UNL     1       7.115   6.370  17.050  0.00  0.00    +0.000 C 
ENDBRANCH  22  23
ENDBRANCH   3  22
TORSDOF 8
ENDMDL
MODEL 6
REMARK VINA RESULT:      -6.9      3.569      5.927
REMARK  Name = 
REMARK  12 active torsions:
REMARK  status: ('A' for Active; 'I' for Inactive)
REMARK    1  A    between atoms: C_1  and  C_2
REMARK    2  A    between atoms: C_2  and  N_3
REMARK    3  A    between atoms: N_3  and  C_4
REMARK    4  A    between atoms: N_3  and  C_6
REMARK    5  A    between atoms: C_4  and  C_5
REMARK    6  A    between atoms: C_6  and  C_7
REMARK    7  A    between atoms: C_7  and  N_8
REMARK    8  A    between atoms: C_9  and  C_11
REMARK    9  A    between atoms: C_13  and  O_14
REMARK   10  A    between atoms: O_14  and  C_15
REMARK   11  A    between atoms: C_15  and  C_16
REMARK   12  A    between atoms: C_15  and  C_17
REMARK                            x       y       z     vdW  Elec       q    Type
REMARK                         _______ _______ _______ _____ _____    ______ ____
ROOT
ATOM      1  C   UNL     1       5.003   4.050  16.426  0.00  0.00    +0.000 A 
ATOM      2  C   UNL     1       5.212   3.938  15.047  0.00  0.00    +0.000 A 
ATOM      3  C   UNL     1       6.285   4.598  14.494  0.00  0.00    +0.000 A 
ATOM      4  N   UNL     1       7.101   5.401  15.198  0.00  0.00    +0.000 NA
ATOM      5  C   UNL     1       6.909   5.509  16.521  0.00  0.00    +0.000 A 
ATOM      6  C   UNL     1       7.785   6.323  17.225  0.00  0.00    +0.000 A 
ATOM      7  C   UNL     1       7.718   6.460  18.612  0.00  0.00    +0.000 A 
ATOM      8  C   UNL     1       6.766   5.749  19.322  0.00  0.00    +0.000 A 
ATOM      9  C   UNL     1       5.870   4.930  18.637  0.00  0.00    +0.000 A 
ATOM     10  C   UNL     1       5.891   4.823  17.220  0.00  0.00    +0.000 A 
ENDROOT
BRANCH   1  12
ATOM     11  N   UNL     1       4.105   2.417  18.039  0.00  0.00    +0.000 N 
ATOM     12  C   UNL     1       3.866   3.253  16.970  0.00  0.00    +0.000 C 
ATOM     13  O   UNL     1       2.754   3.386  16.468  0.00  0.00    +0.000 OA
ATOM     14  H   UNL     1       4.959   2.497  18.578  0.00  0.00    +0.000 HD
BRANCH  11  15
ATOM     15  C   UNL     1       3.046   1.600  18.605  0.00  0.00    +0.000 C 
BRANCH  15  16
ATOM     16  C   UNL     1       2.002   2.421  19.391  0.00  0.00    +0.000 C 
BRANCH  16  17
ATOM     17  N   UNL     1       2.507   3.619  20.105  0.00  0.00    +0.000 NA
BRANCH  17  19
ATOM     18  C   UNL     1       1.823   6.009  20.557  0.00  0.00    +0.000 C 
ATOM     19  C   UNL     1       1.922   4.857  19.561  0.00  0.00    +0.000 C 
ENDBRANCH  17  19
BRANCH  17  20
ATOM     20  C   UNL     1       2.322   3.474  21.565  0.00  0.00    +0.000 C 
ATOM     21  C   UNL     1       1.363   2.377  22.034  0.00  0.00    +0.000 C 
ENDBRANCH  17  20
ENDBRANCH  16  17
ENDBRANCH  15  16
ENDBRANCH  11  15
ENDBRANCH   1  12
BRANCH   3  22
ATOM     22  O   UNL     1       6.487   4.440  13.139  0.00  0.00    +0.000 OA
BRANCH  22  23
ATOM     23  C   UNL     1       5.951   3.226  12.585  0.00  0.00    +0.000 C 
ATOM     24  C   UNL     1       4.687   3.541  11.786  0.00  0.00    +0.000 C 
ATOM     25  C   UNL     1       7.014   2.640  11.661  0.00  0.00    +0.000 C 
ENDBRANCH  22  23
ENDBRANCH   3  22
TORSDOF 8
ENDMDL
MODEL 7
REMARK VINA RESULT:      -6.9      0.951      1.664
REMARK  Name = 
REMARK  12 active torsions:
REMARK  status: ('A' for Active; 'I' for Inactive)
REMARK    1  A    between atoms: C_1  and  C_2
REMARK    2  A    between atoms: C_2  and  N_3
REMARK    3  A    between atoms: N_3  and  C_4
REMARK    4  A    between atoms: N_3  and  C_6
REMARK    5  A    between atoms: C_4  and  C_5
REMARK    6  A    between atoms: C_6  and  C_7
REMARK    7  A    between atoms: C_7  and  N_8
REMARK    8  A    between atoms: C_9  and  C_11
REMARK    9  A    between atoms: C_13  and  O_14
REMARK   10  A    between atoms: O_14  and  C_15
REMARK   11  A    between atoms: C_15  and  C_16
REMARK   12  A    between atoms: C_15  and  C_17
REMARK                            x       y       z     vdW  Elec       q    Type
REMARK                         _______ _______ _______ _____ _____    ______ ____
ROOT
ATOM      1  C   UNL     1       3.008   5.786  18.427  0.00  0.00    +0.000 A 
ATOM      2  C   UNL     1       3.919   5.626  17.376  0.00  0.00    +0.000 A 
ATOM      3  C   UNL     1       4.327   4.352  17.056  0.00  0.00    +0.000 A 
ATOM      4  N   UNL     1       3.951   3.261  17.745  0.00  0.00    +0.000 NA
ATOM      5  C   UNL     1       3.075   3.407  18.750  0.00  0.00    +0.000 A 
ATOM      6  C   UNL     1       2.685   2.259  19.425  0.00  0.00    +0.000 A 
ATOM      7  C   UNL     1       1.733   2.284  20.444  0.00  0.00    +0.000 A 
ATOM      8  C   UNL     1       1.136   3.484  20.788  0.00  0.00    +0.000 A 
ATOM      9  C   UNL     1       1.515   4.654  20.130  0.00  0.00    +0.000 A 
ATOM     10  C   UNL     1       2.523   4.651  19.128  0.00  0.00    +0.000 A 
ENDROOT
BRANCH   1  12
ATOM     11  N   UNL     1       2.032   7.494  19.912  0.00  0.00    +0.000 N 
ATOM     12  C   UNL     1       2.553   7.185  18.674  0.00  0.00    +0.000 C 
ATOM     13  O   UNL     1       2.680   8.017  17.781  0.00  0.00    +0.000 OA
ATOM     14  H   UNL     1       2.150   6.865  20.696  0.00  0.00    +0.000 HD
BRANCH  11  15
ATOM     15  C   UNL     1       1.553   8.833  20.212  0.00  0.00    +0.000 C 
BRANCH  15  16
ATOM     16  C   UNL     1       0.955   8.959  21.628  0.00  0.00    +0.000 C 
BRANCH  16  17
ATOM     17  N   UNL     1       0.581  10.325  22.068  0.00  0.00    +0.000 NA
BRANCH  17  19
ATOM     18  C   UNL     1       1.144  12.412  20.759  0.00  0.00    +0.000 C 
ATOM     19  C   UNL     1       0.246  11.189  20.922  0.00  0.00    +0.000 C 
ENDBRANCH  17  19
BRANCH  17  20
ATOM     20  C   UNL     1      -0.483  10.271  23.094  0.00  0.00    +0.000 C 
ATOM     21  C   UNL     1      -1.566  11.350  23.024  0.00  0.00    +0.000 C 
ENDBRANCH  17  20
ENDBRANCH  16  17
ENDBRANCH  15  16
ENDBRANCH  11  15
ENDBRANCH   1  12
BRANCH   3  22
ATOM     22  O   UNL     1       5.196   4.221  15.994  0.00  0.00    +0.000 OA
BRANCH  22  23
ATOM     23  C   UNL     1       6.367   5.053  16.064  0.00  0.00    +0.000 C 
ATOM     24  C   UNL     1       7.286   4.553  17.177  0.00  0.00    +0.000 C 
ATOM     25  C   UNL     1       7.080   4.947  14.719  0.00  0.00    +0.000 C 
ENDBRANCH  22  23
ENDBRANCH   3  22
TORSDOF 8
ENDMDL
MODEL 8
REMARK VINA RESULT:      -6.8      3.676      5.853
REMARK  Name = 
REMARK  12 active torsions:
REMARK  status: ('A' for Active; 'I' for Inactive)
REMARK    1  A    between atoms: C_1  and  C_2
REMARK    2  A    between atoms: C_2  and  N_3
REMARK    3  A    between atoms: N_3  and  C_4
REMARK    4  A    between atoms: N_3  and  C_6
REMARK    5  A    between atoms: C_4  and  C_5
REMARK    6  A    between atoms: C_6  and  C_7
REMARK    7  A    between atoms: C_7  and  N_8
REMARK    8  A    between atoms: C_9  and  C_11
REMARK    9  A    between atoms: C_13  and  O_14
REMARK   10  A    between atoms: O_14  and  C_15
REMARK   11  A    between atoms: C_15  and  C_16
REMARK   12  A    between atoms: C_15  and  C_17
REMARK                            x       y       z     vdW  Elec       q    Type
REMARK                         _______ _______ _______ _____ _____    ______ ____
ROOT
ATOM      1  C   UNL     1       4.987   4.058  16.640  0.00  0.00    +0.000 A 
ATOM      2  C   UNL     1       5.135   3.993  15.249  0.00  0.00    +0.000 A 
ATOM      3  C   UNL     1       6.176   4.682  14.672  0.00  0.00    +0.000 A 
ATOM      4  N   UNL     1       7.016   5.469  15.365  0.00  0.00    +0.000 NA
ATOM      5  C   UNL     1       6.882   5.532  16.699  0.00  0.00    +0.000 A 
ATOM      6  C   UNL     1       7.782   6.331  17.390  0.00  0.00    +0.000 A 
ATOM      7  C   UNL     1       7.776   6.422  18.782  0.00  0.00    +0.000 A 
ATOM      8  C   UNL     1       6.862   5.679  19.509  0.00  0.00    +0.000 A 
ATOM      9  C   UNL     1       5.944   4.873  18.838  0.00  0.00    +0.000 A 
ATOM     10  C   UNL     1       5.903   4.813  17.419  0.00  0.00    +0.000 A 
ENDROOT
BRANCH   1  12
ATOM     11  N   UNL     1       2.681   3.847  17.486  0.00  0.00    +0.000 N 
ATOM     12  C   UNL     1       3.882   3.232  17.207  0.00  0.00    +0.000 C 
ATOM     13  O   UNL     1       4.068   2.031  17.382  0.00  0.00    +0.000 OA
ATOM     14  H   UNL     1       2.475   4.769  17.122  0.00  0.00    +0.000 HD
BRANCH  11  15
ATOM     15  C   UNL     1       1.571   3.104  18.056  0.00  0.00    +0.000 C 
BRANCH  15  16
ATOM     16  C   UNL     1       0.910   3.824  19.250  0.00  0.00    +0.000 C 
BRANCH  16  17
ATOM     17  N   UNL     1       1.510   3.577  20.584  0.00  0.00    +0.000 NA
BRANCH  17  19
ATOM     18  C   UNL     1       3.751   2.441  20.854  0.00  0.00    +0.000 C 
ATOM     19  C   UNL     1       2.249   2.303  20.616  0.00  0.00    +0.000 C 
ENDBRANCH  17  19
BRANCH  17  20
ATOM     20  C   UNL     1       2.319   4.738  21.016  0.00  0.00    +0.000 C 
ATOM     21  C   UNL     1       2.047   6.069  20.312  0.00  0.00    +0.000 C 
ENDBRANCH  17  20
ENDBRANCH  16  17
ENDBRANCH  15  16
ENDBRANCH  11  15
ENDBRANCH   1  12
BRANCH   3  22
ATOM     22  O   UNL     1       6.320   4.570  13.305  0.00  0.00    +0.000 OA
BRANCH  22  23
ATOM     23  C   UNL     1       5.860   3.326  12.748  0.00  0.00    +0.000 C 
ATOM     24  C   UNL     1       4.601   3.570  11.918  0.00  0.00    +0.000 C 
ATOM     25  C   UNL     1       6.973   2.790  11.853  0.00  0.00    +0.000 C 
ENDBRANCH  22  23
ENDBRANCH   3  22
TORSDOF 8
ENDMDL
MODEL 9
REMARK VINA RESULT:      -6.8      1.006      1.263
REMARK  Name = 
REMARK  12 active torsions:
REMARK  status: ('A' for Active; 'I' for Inactive)
REMARK    1  A    between atoms: C_1  and  C_2
REMARK    2  A    between atoms: C_2  and  N_3
REMARK    3  A    between atoms: N_3  and  C_4
REMARK    4  A    between atoms: N_3  and  C_6
REMARK    5  A    between atoms: C_4  and  C_5
REMARK    6  A    between atoms: C_6  and  C_7
REMARK    7  A    between atoms: C_7  and  N_8
REMARK    8  A    between atoms: C_9  and  C_11
REMARK    9  A    between atoms: C_13  and  O_14
REMARK   10  A    between atoms: O_14  and  C_15
REMARK   11  A    between atoms: C_15  and  C_16
REMARK   12  A    between atoms: C_15  and  C_17
REMARK                            x       y       z     vdW  Elec       q    Type
REMARK                         _______ _______ _______ _____ _____    ______ ____
ROOT
ATOM      1  C   UNL     1       3.105   5.840  19.226  0.00  0.00    +0.000 A 
ATOM      2  C   UNL     1       4.417   5.931  18.747  0.00  0.00    +0.000 A 
ATOM      3  C   UNL     1       5.077   4.766  18.430  0.00  0.00    +0.000 A 
ATOM      4  N   UNL     1       4.552   3.544  18.622  0.00  0.00    +0.000 NA
ATOM      5  C   UNL     1       3.293   3.450  19.076  0.00  0.00    +0.000 A 
ATOM      6  C   UNL     1       2.770   2.175  19.237  0.00  0.00    +0.000 A 
ATOM      7  C   UNL     1       1.452   1.961  19.642  0.00  0.00    +0.000 A 
ATOM      8  C   UNL     1       0.625   3.046  19.873  0.00  0.00    +0.000 A 
ATOM      9  C   UNL     1       1.129   4.337  19.725  0.00  0.00    +0.000 A 
ATOM     10  C   UNL     1       2.484   4.571  19.365  0.00  0.00    +0.000 A 
ENDROOT
BRANCH   1  12
ATOM     11  N   UNL     1       2.158   7.496  20.787  0.00  0.00    +0.000 N 
ATOM     12  C   UNL     1       2.424   7.142  19.482  0.00  0.00    +0.000 C 
ATOM     13  O   UNL     1       2.147   7.865  18.530  0.00  0.00    +0.000 OA
ATOM     14  H   UNL     1       2.597   7.005  21.556  0.00  0.00    +0.000 HD
BRANCH  11  15
ATOM     15  C   UNL     1       1.481   8.742  21.105  0.00  0.00    +0.000 C 
BRANCH  15  16
ATOM     16  C   UNL     1       0.004   8.543  21.503  0.00  0.00    +0.000 C 
BRANCH  16  17
ATOM     17  N   UNL     1      -0.834   9.766  21.562  0.00  0.00    +0.000 NA
BRANCH  17  19
ATOM     18  C   UNL     1      -1.243  11.820  22.976  0.00  0.00    +0.000 C 
ATOM     19  C   UNL     1      -0.847  10.347  22.916  0.00  0.00    +0.000 C 
ENDBRANCH  17  19
BRANCH  17  20
ATOM     20  C   UNL     1      -0.428  10.728  20.513  0.00  0.00    +0.000 C 
ATOM     21  C   UNL     1      -1.327  10.824  19.279  0.00  0.00    +0.000 C 
ENDBRANCH  17  20
ENDBRANCH  16  17
ENDBRANCH  15  16
ENDBRANCH  11  15
ENDBRANCH   1  12
BRANCH   3  22
ATOM     22  O   UNL     1       6.355   4.887  17.926  0.00  0.00    +0.000 OA
BRANCH  22  23
ATOM     23  C   UNL     1       6.502   5.860  16.877  0.00  0.00    +0.000 C 
ATOM     24  C   UNL     1       7.519   6.919  17.298  0.00  0.00    +0.000 C 
ATOM     25  C   UNL     1       7.006   5.121  15.641  0.00  0.00    +0.000 C 
ENDBRANCH  22  23
ENDBRANCH   3  22
TORSDOF 8
ENDMDL
