MODEL 1
REMARK VINA RESULT:      -5.8      0.000      0.000
REMARK  Name = 
REMARK  4 active torsions:
REMARK  status: ('A' for Active; 'I' for Inactive)
REMARK    1  A    between atoms: C_1  and  C_2
REMARK    2  A    between atoms: C_2  and  O_3
REMARK    3  A    between atoms: O_3  and  C_4
REMARK    4  A    between atoms: C_9  and  C_10
REMARK                            x       y       z     vdW  Elec       q    Type
REMARK                         _______ _______ _______ _____ _____    ______ ____
ROOT
ATOM      1  C   UNL     1       3.328   2.893  18.784  0.00  0.00    +0.000 A 
ATOM      2  C   UNL     1       3.263   3.188  17.416  0.00  0.00    +0.000 A 
ATOM      3  C   UNL     1       4.171   4.064  16.808  0.00  0.00    +0.000 A 
ATOM      4  C   UNL     1       5.143   4.626  17.631  0.00  0.00    +0.000 A 
ATOM      5  N   UNL     1       6.163   5.506  17.381  0.00  0.00    +0.000 N 
ATOM      6  C   UNL     1       6.832   5.737  18.556  0.00  0.00    +0.000 A 
ATOM      7  C   UNL     1       7.994   6.652  18.637  0.00  0.00    +0.000 C 
ATOM      8  N   UNL     1       6.296   5.049  19.544  0.00  0.00    +0.000 NA
ATOM      9  C   UNL     1       5.244   4.356  18.990  0.00  0.00    +0.000 A 
ATOM     10  C   UNL     1       4.326   3.473  19.581  0.00  0.00    +0.000 A 
ATOM     11  H   UNL     1       6.383   5.916  16.485  0.00  0.00    +0.000 HD
ENDROOT
BRANCH   1  12
ATOM     12  O   UNL     1       2.471   2.052  19.450  0.00  0.00    +0.000 OA
BRANCH  12  14
ATOM     13  C   UNL     1       0.841   3.638  20.216  0.00  0.00    +0.000 C 
ATOM     14  C   UNL     1       1.847   2.578  20.623  0.00  0.00    +0.000 C 
ENDBRANCH  12  14
ENDBRANCH   1  12
TORSDOF 2
ENDMDL
MODEL 2
REMARK VINA RESULT:      -5.7      3.040      5.485
REMARK  Name = 
REMARK  4 active torsions:
REMARK  status: ('A' for Active; 'I' for Inactive)
REMARK    1  A    between atoms: C_1  and  C_2
REMARK    2  A    between atoms: C_2  and  O_3
REMARK    3  A    between atoms: O_3  and  C_4
REMARK    4  A    between atoms: C_9  and  C_10
REMARK                            x       y       z     vdW  Elec       q    Type
REMARK                         _______ _______ _______ _____ _____    ______ ____
ROOT
ATOM      1  C   UNL     1       6.712   6.334  16.751  0.00  0.00    +0.000 A 
ATOM      2  C   UNL     1       6.961   5.085  16.168  0.00  0.00    +0.000 A 
ATOM      3  C   UNL     1       6.004   4.062  16.181  0.00  0.00    +0.000 A 
ATOM      4  C   UNL     1       4.791   4.349  16.800  0.00  0.00    +0.000 A 
ATOM      5  N   UNL     1       3.659   3.603  16.997  0.00  0.00    +0.000 N 
ATOM      6  C   UNL     1       2.747   4.372  17.674  0.00  0.00    +0.000 A 
ATOM      7  C   UNL     1       1.409   3.861  18.052  0.00  0.00    +0.000 C 
ATOM      8  N   UNL     1       3.233   5.573  17.917  0.00  0.00    +0.000 NA
ATOM      9  C   UNL     1       4.503   5.576  17.385  0.00  0.00    +0.000 A 
ATOM     10  C   UNL     1       5.475   6.590  17.361  0.00  0.00    +0.000 A 
ATOM     11  H   UNL     1       3.522   2.649  16.698  0.00  0.00    +0.000 HD
ENDROOT
BRANCH   1  12
ATOM     12  O   UNL     1       7.601   7.380  16.784  0.00  0.00    +0.000 OA
BRANCH  12  14
ATOM     13  C   UNL     1       8.320   9.290  18.047  0.00  0.00    +0.000 C 
ATOM     14  C   UNL     1       8.043   7.798  18.076  0.00  0.00    +0.000 C 
ENDBRANCH  12  14
ENDBRANCH   1  12
TORSDOF 2
ENDMDL
MODEL 3
REMARK VINA RESULT:      -5.7      2.475      4.866
REMARK  Name = 
REMARK  4 active torsions:
REMARK  status: ('A' for Active; 'I' for Inactive)
REMARK    1  A    between atoms: C_1  and  C_2
REMARK    2  A    between atoms: C_2  and  O_3
REMARK    3  A    between atoms: O_3  and  C_4
REMARK    4  A    between atoms: C_9  and  C_10
REMARK                            x       y       z     vdW  Elec       q    Type
REMARK                         _______ _______ _______ _____ _____    ______ ____
ROOT
ATOM      1  C   UNL     1       6.444   4.458  17.904  0.00  0.00    +0.000 A 
ATOM      2  C   UNL     1       6.045   4.365  16.565  0.00  0.00    +0.000 A 
ATOM      3  C   UNL     1       4.744   3.988  16.209  0.00  0.00    +0.000 A 
ATOM      4  C   UNL     1       3.866   3.711  17.253  0.00  0.00    +0.000 A 
ATOM      5  N   UNL     1       2.553   3.320  17.271  0.00  0.00    +0.000 N 
ATOM      6  C   UNL     1       2.162   3.182  18.579  0.00  0.00    +0.000 A 
ATOM      7  C   UNL     1       0.791   2.762  18.953  0.00  0.00    +0.000 C 
ATOM      8  N   UNL     1       3.153   3.469  19.398  0.00  0.00    +0.000 NA
ATOM      9  C   UNL     1       4.221   3.796  18.594  0.00  0.00    +0.000 A 
ATOM     10  C   UNL     1       5.529   4.178  18.931  0.00  0.00    +0.000 A 
ATOM     11  H   UNL     1       1.974   3.157  16.460  0.00  0.00    +0.000 HD
ENDROOT
BRANCH   1  12
ATOM     12  O   UNL     1       7.700   4.813  18.330  0.00  0.00    +0.000 OA
BRANCH  12  14
ATOM     13  C   UNL     1       7.820   7.196  18.071  0.00  0.00    +0.000 C 
ATOM     14  C   UNL     1       7.804   6.040  19.054  0.00  0.00    +0.000 C 
ENDBRANCH  12  14
ENDBRANCH   1  12
TORSDOF 2
ENDMDL
MODEL 4
REMARK VINA RESULT:      -5.7      3.117      5.442
REMARK  Name = 
REMARK  4 active torsions:
REMARK  status: ('A' for Active; 'I' for Inactive)
REMARK    1  A    between atoms: C_1  and  C_2
REMARK    2  A    between atoms: C_2  and  O_3
REMARK    3  A    between atoms: O_3  and  C_4
REMARK    4  A    between atoms: C_9  and  C_10
REMARK                            x       y       z     vdW  Elec       q    Type
REMARK                         _______ _______ _______ _____ _____    ______ ____
ROOT
ATOM      1  C   UNL     1       4.917   6.396  16.991  0.00  0.00    +0.000 A 
ATOM      2  C   UNL     1       3.977   7.277  17.541  0.00  0.00    +0.000 A 
ATOM      3  C   UNL     1       2.786   6.817  18.117  0.00  0.00    +0.000 A 
ATOM      4  C   UNL     1       2.583   5.440  18.116  0.00  0.00    +0.000 A 
ATOM      5  N   UNL     1       1.555   4.661  18.579  0.00  0.00    +0.000 N 
ATOM      6  C   UNL     1       1.858   3.348  18.323  0.00  0.00    +0.000 A 
ATOM      7  C   UNL     1       0.949   2.240  18.695  0.00  0.00    +0.000 C 
ATOM      8  N   UNL     1       3.029   3.245  17.725  0.00  0.00    +0.000 NA
ATOM      9  C   UNL     1       3.492   4.533  17.585  0.00  0.00    +0.000 A 
ATOM     10  C   UNL     1       4.681   5.014  17.014  0.00  0.00    +0.000 A 
ATOM     11  H   UNL     1       0.716   4.998  19.028  0.00  0.00    +0.000 HD
ENDROOT
BRANCH   1  12
ATOM     12  O   UNL     1       6.101   6.772  16.405  0.00  0.00    +0.000 OA
BRANCH  12  14
ATOM     13  C   UNL     1       7.755   8.049  17.584  0.00  0.00    +0.000 C 
ATOM     14  C   UNL     1       7.274   6.659  17.211  0.00  0.00    +0.000 C 
ENDBRANCH  12  14
ENDBRANCH   1  12
TORSDOF 2
ENDMDL
MODEL 5
REMARK VINA RESULT:      -5.6      2.397      3.569
REMARK  Name = 
REMARK  4 active torsions:
REMARK  status: ('A' for Active; 'I' for Inactive)
REMARK    1  A    between atoms: C_1  and  C_2
REMARK    2  A    between atoms: C_2  and  O_3
REMARK    3  A    between atoms: O_3  and  C_4
REMARK    4  A    between atoms: C_9  and  C_10
REMARK                            x       y       z     vdW  Elec       q    Type
REMARK                         _______ _______ _______ _____ _____    ______ ____
ROOT
ATOM      1  C   UNL     1       5.064   5.048  18.792  0.00  0.00    +0.000 A 
ATOM      2  C   UNL     1       6.424   5.335  18.964  0.00  0.00    +0.000 A 
ATOM      3  C   UNL     1       7.333   5.255  17.902  0.00  0.00    +0.000 A 
ATOM      4  C   UNL     1       6.818   4.878  16.665  0.00  0.00    +0.000 A 
ATOM      5  N   UNL     1       7.404   4.698  15.440  0.00  0.00    +0.000 N 
ATOM      6  C   UNL     1       6.434   4.317  14.548  0.00  0.00    +0.000 A 
ATOM      7  C   UNL     1       6.736   4.034  13.126  0.00  0.00    +0.000 C 
ATOM      8  N   UNL     1       5.257   4.248  15.136  0.00  0.00    +0.000 NA
ATOM      9  C   UNL     1       5.475   4.589  16.452  0.00  0.00    +0.000 A 
ATOM     10  C   UNL     1       4.579   4.677  17.529  0.00  0.00    +0.000 A 
ATOM     11  H   UNL     1       8.384   4.821  15.231  0.00  0.00    +0.000 HD
ENDROOT
BRANCH   1  12
ATOM     12  O   UNL     1       4.116   5.098  19.784  0.00  0.00    +0.000 OA
BRANCH  12  14
ATOM     13  C   UNL     1       1.873   5.423  20.573  0.00  0.00    +0.000 C 
ATOM     14  C   UNL     1       2.835   5.612  19.415  0.00  0.00    +0.000 C 
ENDBRANCH  12  14
ENDBRANCH   1  12
TORSDOF 2
ENDMDL
MODEL 6
REMARK VINA RESULT:      -5.6      2.738      5.423
REMARK  Name = 
REMARK  4 active torsions:
REMARK  status: ('A' for Active; 'I' for Inactive)
REMARK    1  A    between atoms: C_1  and  C_2
REMARK    2  A    between atoms: C_2  and  O_3
REMARK    3  A    between atoms: O_3  and  C_4
REMARK    4  A    between atoms: C_9  and  C_10
REMARK                            x       y       z     vdW  Elec       q    Type
REMARK                         _______ _______ _______ _____ _____    ______ ____
ROOT
ATOM      1  C   UNL     1       6.993   6.624  18.012  0.00  0.00    +0.000 A 
ATOM      2  C   UNL     1       6.149   6.840  16.916  0.00  0.00    +0.000 A 
ATOM      3  C   UNL     1       5.057   6.004  16.652  0.00  0.00    +0.000 A 
ATOM      4  C   UNL     1       4.851   4.947  17.534  0.00  0.00    +0.000 A 
ATOM      5  N   UNL     1       3.908   3.954  17.577  0.00  0.00    +0.000 N 
ATOM      6  C   UNL     1       4.165   3.161  18.666  0.00  0.00    +0.000 A 
ATOM      7  C   UNL     1       3.329   1.985  19.002  0.00  0.00    +0.000 C 
ATOM      8  N   UNL     1       5.221   3.595  19.325  0.00  0.00    +0.000 NA
ATOM      9  C   UNL     1       5.663   4.701  18.635  0.00  0.00    +0.000 A 
ATOM     10  C   UNL     1       6.751   5.552  18.885  0.00  0.00    +0.000 A 
ATOM     11  H   UNL     1       3.154   3.828  16.917  0.00  0.00    +0.000 HD
ENDROOT
BRANCH   1  12
ATOM     12  O   UNL     1       8.084   7.395  18.331  0.00  0.00    +0.000 OA
BRANCH  12  14
ATOM     13  C   UNL     1       8.877   9.616  18.775  0.00  0.00    +0.000 C 
ATOM     14  C   UNL     1       8.089   8.731  17.827  0.00  0.00    +0.000 C 
ENDBRANCH  12  14
ENDBRANCH   1  12
TORSDOF 2
ENDMDL
MODEL 7
REMARK VINA RESULT:      -5.6      2.077      2.502
REMARK  Name = 
REMARK  4 active torsions:
REMARK  status: ('A' for Active; 'I' for Inactive)
REMARK    1  A    between atoms: C_1  and  C_2
REMARK    2  A    between atoms: C_2  and  O_3
REMARK    3  A    between atoms: O_3  and  C_4
REMARK    4  A    between atoms: C_9  and  C_10
REMARK                            x       y       z     vdW  Elec       q    Type
REMARK                         _______ _______ _______ _____ _____    ______ ____
ROOT
ATOM      1  C   UNL     1       2.270   4.106  18.501  0.00  0.00    +0.000 A 
ATOM      2  C   UNL     1       2.357   5.498  18.635  0.00  0.00    +0.000 A 
ATOM      3  C   UNL     1       3.338   6.241  17.967  0.00  0.00    +0.000 A 
ATOM      4  C   UNL     1       4.222   5.529  17.162  0.00  0.00    +0.000 A 
ATOM      5  N   UNL     1       5.281   5.922  16.386  0.00  0.00    +0.000 N 
ATOM      6  C   UNL     1       5.820   4.808  15.795  0.00  0.00    +0.000 A 
ATOM      7  C   UNL     1       6.990   4.881  14.889  0.00  0.00    +0.000 C 
ATOM      8  N   UNL     1       5.159   3.723  16.147  0.00  0.00    +0.000 NA
ATOM      9  C   UNL     1       4.166   4.150  16.998  0.00  0.00    +0.000 A 
ATOM     10  C   UNL     1       3.174   3.422  17.675  0.00  0.00    +0.000 A 
ATOM     11  H   UNL     1       5.610   6.869  16.272  0.00  0.00    +0.000 HD
ENDROOT
BRANCH   1  12
ATOM     12  O   UNL     1       1.343   3.311  19.128  0.00  0.00    +0.000 OA
BRANCH  12  14
ATOM     13  C   UNL     1       1.818   3.058  21.466  0.00  0.00    +0.000 C 
ATOM     14  C   UNL     1       0.929   3.721  20.431  0.00  0.00    +0.000 C 
ENDBRANCH  12  14
ENDBRANCH   1  12
TORSDOF 2
ENDMDL
MODEL 8
REMARK VINA RESULT:      -5.6      2.982      5.081
REMARK  Name = 
REMARK  4 active torsions:
REMARK  status: ('A' for Active; 'I' for Inactive)
REMARK    1  A    between atoms: C_1  and  C_2
REMARK    2  A    between atoms: C_2  and  O_3
REMARK    3  A    between atoms: O_3  and  C_4
REMARK    4  A    between atoms: C_9  and  C_10
REMARK                            x       y       z     vdW  Elec       q    Type
REMARK                         _______ _______ _______ _____ _____    ______ ____
ROOT
ATOM      1  C   UNL     1       6.402   4.350  15.927  0.00  0.00    +0.000 A 
ATOM      2  C   UNL     1       7.288   4.616  16.980  0.00  0.00    +0.000 A 
ATOM      3  C   UNL     1       6.829   4.960  18.258  0.00  0.00    +0.000 A 
ATOM      4  C   UNL     1       5.449   5.021  18.431  0.00  0.00    +0.000 A 
ATOM      5  N   UNL     1       4.671   5.322  19.518  0.00  0.00    +0.000 N 
ATOM      6  C   UNL     1       3.354   5.239  19.143  0.00  0.00    +0.000 A 
ATOM      7  C   UNL     1       2.245   5.510  20.087  0.00  0.00    +0.000 C 
ATOM      8  N   UNL     1       3.248   4.895  17.875  0.00  0.00    +0.000 NA
ATOM      9  C   UNL     1       4.538   4.760  17.415  0.00  0.00    +0.000 A 
ATOM     10  C   UNL     1       5.017   4.415  16.141  0.00  0.00    +0.000 A 
ATOM     11  H   UNL     1       5.010   5.567  20.437  0.00  0.00    +0.000 HD
ENDROOT
BRANCH   1  12
ATOM     12  O   UNL     1       6.776   4.015  14.649  0.00  0.00    +0.000 OA
BRANCH  12  14
ATOM     13  C   UNL     1       6.295   3.438  12.369  0.00  0.00    +0.000 C 
ATOM     14  C   UNL     1       5.736   3.984  13.670  0.00  0.00    +0.000 C 
ENDBRANCH  12  14
ENDBRANCH   1  12
TORSDOF 2
ENDMDL
MODEL 9
REMARK VINA RESULT:      -5.6      3.121      5.243
REMARK  Name = 
REMARK  4 active torsions:
REMARK  status: ('A' for Active; 'I' for Inactive)
REMARK    1  A    between atoms: C_1  and  C_2
REMARK    2  A    between atoms: C_2  and  O_3
REMARK    3  A    between atoms: O_3  and  C_4
REMARK    4  A    between atoms: C_9  and  C_10
REMARK                            x       y       z     vdW  Elec       q    Type
REMARK                         _______ _______ _______ _____ _____    ______ ____
ROOT
ATOM      1  C   UNL     1       5.139   5.646  16.175  0.00  0.00    +0.000 A 
ATOM      2  C   UNL     1       4.741   6.877  16.711  0.00  0.00    +0.000 A 
ATOM      3  C   UNL     1       3.756   6.964  17.703  0.00  0.00    +0.000 A 
ATOM      4  C   UNL     1       3.192   5.765  18.131  0.00  0.00    +0.000 A 
ATOM      5  N   UNL     1       2.224   5.483  19.058  0.00  0.00    +0.000 N 
ATOM      6  C   UNL     1       2.040   4.124  19.090  0.00  0.00    +0.000 A 
ATOM      7  C   UNL     1       1.053   3.482  19.989  0.00  0.00    +0.000 C 
ATOM      8  N   UNL     1       2.842   3.521  18.236  0.00  0.00    +0.000 NA
ATOM      9  C   UNL     1       3.562   4.524  17.628  0.00  0.00    +0.000 A 
ATOM     10  C   UNL     1       4.553   4.457  16.635  0.00  0.00    +0.000 A 
ATOM     11  H   UNL     1       1.729   6.161  19.620  0.00  0.00    +0.000 HD
ENDROOT
BRANCH   1  12
ATOM     12  O   UNL     1       6.090   5.482  15.198  0.00  0.00    +0.000 OA
BRANCH  12  14
ATOM     13  C   UNL     1       6.185   3.847  13.443  0.00  0.00    +0.000 C 
ATOM     14  C   UNL     1       6.475   4.138  14.904  0.00  0.00    +0.000 C 
ENDBRANCH  12  14
ENDBRANCH   1  12
TORSDOF 2
ENDMDL
