MODEL 1
REMARK VINA RESULT:      -7.4      0.000      0.000
REMARK  Name = 
REMARK  6 active torsions:
REMARK  status: ('A' for Active; 'I' for Inactive)
REMARK    1  A    between atoms: C_1  and  C_2
REMARK    2  A    between atoms: C_4  and  N_5
REMARK    3  A    between atoms: C_7  and  C_8
REMARK    4  A    between atoms: C_9  and  O_10
REMARK    5  A    between atoms: O_10  and  C_11
REMARK    6  A    between atoms: C_11  and  C_12
REMARK                            x       y       z     vdW  Elec       q    Type
REMARK                         _______ _______ _______ _____ _____    ______ ____
ROOT
ATOM      1  O   UNL     1       2.696   5.572  17.762  0.00  0.00    +0.000 OA
ENDROOT
BRANCH   1   9
ATOM      2  C   UNL     1       2.325   2.404  17.494  0.00  0.00    +0.000 C 
ATOM      3  C   UNL     1       2.230   3.279  18.719  0.00  0.00    +0.000 A 
ATOM      4  C   UNL     1       1.963   2.577  19.911  0.00  0.00    +0.000 A 
ATOM      5  C   UNL     1       1.851   3.200  21.152  0.00  0.00    +0.000 A 
ATOM      6  C   UNL     1       1.881   4.597  21.177  0.00  0.00    +0.000 A 
ATOM      7  C   UNL     1       2.157   5.338  20.021  0.00  0.00    +0.000 A 
ATOM      8  C   UNL     1       2.174   6.845  20.118  0.00  0.00    +0.000 C 
ATOM      9  C   UNL     1       2.353   4.695  18.775  0.00  0.00    +0.000 A 
BRANCH   5  10
ATOM     10  N   UNL     1       1.478   2.468  22.273  0.00  0.00    +0.000 N 
ATOM     11  H   UNL     1       1.746   1.489  22.224  0.00  0.00    +0.000 HD
ATOM     12  H   UNL     1       1.771   2.893  23.151  0.00  0.00    +0.000 HD
ENDBRANCH   5  10
ENDBRANCH   1   9
BRANCH   1  13
ATOM     13  C   UNL     1       4.084   5.791  17.564  0.00  0.00    +0.000 C 
BRANCH  13  14
ATOM     14  C   UNL     1       4.996   4.585  17.886  0.00  0.00    +0.000 C 
ATOM     15  C   UNL     1       5.907   4.811  19.095  0.00  0.00    +0.000 C 
ATOM     16  C   UNL     1       6.844   5.989  18.875  0.00  0.00    +0.000 C 
ATOM     17  C   UNL     1       7.452   6.083  17.467  0.00  0.00    +0.000 C 
ATOM     18  N   UNL     1       6.758   5.434  16.354  0.00  0.00    +0.000 NA
ATOM     19  C   UNL     1       7.650   5.212  15.209  0.00  0.00    +0.000 C 
ATOM     20  C   UNL     1       6.838   4.909  13.953  0.00  0.00    +0.000 C 
ATOM     21  C   UNL     1       5.912   3.721  14.173  0.00  0.00    +0.000 C 
ATOM     22  C   UNL     1       5.050   3.954  15.405  0.00  0.00    +0.000 C 
ATOM     23  C   UNL     1       5.900   4.282  16.658  0.00  0.00    +0.000 C 
ENDBRANCH  13  14
ENDBRANCH   1  13
TORSDOF 4
ENDMDL
MODEL 2
REMARK VINA RESULT:      -7.3      0.436      1.957
REMARK  Name = 
REMARK  6 active torsions:
REMARK  status: ('A' for Active; 'I' for Inactive)
REMARK    1  A    between atoms: C_1  and  C_2
REMARK    2  A    between atoms: C_4  and  N_5
REMARK    3  A    between atoms: C_7  and  C_8
REMARK    4  A    between atoms: C_9  and  O_10
REMARK    5  A    between atoms: O_10  and  C_11
REMARK    6  A    between atoms: C_11  and  C_12
REMARK                            x       y       z     vdW  Elec       q    Type
REMARK                         _______ _______ _______ _____ _____    ______ ____
ROOT
ATOM      1  O   UNL     1       2.811   4.847  17.427  0.00  0.00    +0.000 OA
ENDROOT
BRANCH   1   9
ATOM      2  C   UNL     1       2.421   6.657  20.038  0.00  0.00    +0.000 C 
ATOM      3  C   UNL     1       2.236   5.169  19.867  0.00  0.00    +0.000 A 
ATOM      4  C   UNL     1       1.805   4.502  21.031  0.00  0.00    +0.000 A 
ATOM      5  C   UNL     1       1.563   3.131  21.078  0.00  0.00    +0.000 A 
ATOM      6  C   UNL     1       1.889   2.380  19.945  0.00  0.00    +0.000 A 
ATOM      7  C   UNL     1       2.309   2.998  18.760  0.00  0.00    +0.000 A 
ATOM      8  C   UNL     1       2.647   2.128  17.574  0.00  0.00    +0.000 C 
ATOM      9  C   UNL     1       2.474   4.403  18.692  0.00  0.00    +0.000 A 
BRANCH   5  10
ATOM     10  N   UNL     1       1.245   2.517  22.283  0.00  0.00    +0.000 N 
ATOM     11  H   UNL     1       1.348   1.507  22.262  0.00  0.00    +0.000 HD
ATOM     12  H   UNL     1       1.723   2.925  23.084  0.00  0.00    +0.000 HD
ENDBRANCH   5  10
ENDBRANCH   1   9
BRANCH   1  13
ATOM     13  C   UNL     1       4.106   5.411  17.283  0.00  0.00    +0.000 C 
BRANCH  13  14
ATOM     14  C   UNL     1       5.280   4.460  17.612  0.00  0.00    +0.000 C 
ATOM     15  C   UNL     1       6.178   4.966  18.742  0.00  0.00    +0.000 C 
ATOM     16  C   UNL     1       6.815   6.303  18.394  0.00  0.00    +0.000 C 
ATOM     17  C   UNL     1       7.312   6.430  16.946  0.00  0.00    +0.000 C 
ATOM     18  N   UNL     1       6.725   5.567  15.920  0.00  0.00    +0.000 NA
ATOM     19  C   UNL     1       7.583   5.468  14.733  0.00  0.00    +0.000 C 
ATOM     20  C   UNL     1       6.796   4.905  13.553  0.00  0.00    +0.000 C 
ATOM     21  C   UNL     1       6.173   3.561  13.901  0.00  0.00    +0.000 C 
ATOM     22  C   UNL     1       5.345   3.685  15.173  0.00  0.00    +0.000 C 
ATOM     23  C   UNL     1       6.164   4.278  16.345  0.00  0.00    +0.000 C 
ENDBRANCH  13  14
ENDBRANCH   1  13
TORSDOF 4
ENDMDL
MODEL 3
REMARK VINA RESULT:      -6.7      3.543      6.106
REMARK  Name = 
REMARK  6 active torsions:
REMARK  status: ('A' for Active; 'I' for Inactive)
REMARK    1  A    between atoms: C_1  and  C_2
REMARK    2  A    between atoms: C_4  and  N_5
REMARK    3  A    between atoms: C_7  and  C_8
REMARK    4  A    between atoms: C_9  and  O_10
REMARK    5  A    between atoms: O_10  and  C_11
REMARK    6  A    between atoms: C_11  and  C_12
REMARK                            x       y       z     vdW  Elec       q    Type
REMARK                         _______ _______ _______ _____ _____    ______ ____
ROOT
ATOM      1  O   UNL     1       2.059   7.884  20.494  0.00  0.00    +0.000 OA
ENDROOT
BRANCH   1   9
ATOM      2  C   UNL     1       2.053   9.086  17.527  0.00  0.00    +0.000 C 
ATOM      3  C   UNL     1       1.184   9.444  18.707  0.00  0.00    +0.000 A 
ATOM      4  C   UNL     1       0.220  10.436  18.436  0.00  0.00    +0.000 A 
ATOM      5  C   UNL     1      -0.686  10.896  19.387  0.00  0.00    +0.000 A 
ATOM      6  C   UNL     1      -0.536  10.435  20.698  0.00  0.00    +0.000 A 
ATOM      7  C   UNL     1       0.398   9.440  21.015  0.00  0.00    +0.000 A 
ATOM      8  C   UNL     1       0.509   8.987  22.450  0.00  0.00    +0.000 C 
ATOM      9  C   UNL     1       1.263   8.913  20.025  0.00  0.00    +0.000 A 
BRANCH   5  10
ATOM     10  N   UNL     1      -1.539  11.953  19.089  0.00  0.00    +0.000 N 
ATOM     11  H   UNL     1      -1.796  12.507  19.900  0.00  0.00    +0.000 HD
ATOM     12  H   UNL     1      -1.205  12.539  18.326  0.00  0.00    +0.000 HD
ENDBRANCH   5  10
ENDBRANCH   1   9
BRANCH   1  13
ATOM     13  C   UNL     1       2.108   6.713  19.695  0.00  0.00    +0.000 C 
BRANCH  13  14
ATOM     14  C   UNL     1       3.353   5.821  19.906  0.00  0.00    +0.000 C 
ATOM     15  C   UNL     1       4.400   5.958  18.799  0.00  0.00    +0.000 C 
ATOM     16  C   UNL     1       3.835   5.561  17.443  0.00  0.00    +0.000 C 
ATOM     17  C   UNL     1       2.932   4.319  17.454  0.00  0.00    +0.000 C 
ATOM     18  N   UNL     1       2.276   3.932  18.703  0.00  0.00    +0.000 NA
ATOM     19  C   UNL     1       1.845   2.529  18.684  0.00  0.00    +0.000 C 
ATOM     20  C   UNL     1       0.841   2.265  19.802  0.00  0.00    +0.000 C 
ATOM     21  C   UNL     1       1.415   2.650  21.157  0.00  0.00    +0.000 C 
ATOM     22  C   UNL     1       1.913   4.088  21.123  0.00  0.00    +0.000 C 
ATOM     23  C   UNL     1       2.913   4.331  19.965  0.00  0.00    +0.000 C 
ENDBRANCH  13  14
ENDBRANCH   1  13
TORSDOF 4
ENDMDL
MODEL 4
REMARK VINA RESULT:      -6.6      1.642      2.007
REMARK  Name = 
REMARK  6 active torsions:
REMARK  status: ('A' for Active; 'I' for Inactive)
REMARK    1  A    between atoms: C_1  and  C_2
REMARK    2  A    between atoms: C_4  and  N_5
REMARK    3  A    between atoms: C_7  and  C_8
REMARK    4  A    between atoms: C_9  and  O_10
REMARK    5  A    between atoms: O_10  and  C_11
REMARK    6  A    between atoms: C_11  and  C_12
REMARK                            x       y       z     vdW  Elec       q    Type
REMARK                         _______ _______ _______ _____ _____    ______ ____
ROOT
ATOM      1  O   UNL     1       4.282   5.386  19.781  0.00  0.00    +0.000 OA
ENDROOT
BRANCH   1   9
ATOM      2  C   UNL     1       4.758   2.282  20.403  0.00  0.00    +0.000 C 
ATOM      3  C   UNL     1       3.582   2.957  19.740  0.00  0.00    +0.000 A 
ATOM      4  C   UNL     1       2.544   2.079  19.372  0.00  0.00    +0.000 A 
ATOM      5  C   UNL     1       1.367   2.506  18.761  0.00  0.00    +0.000 A 
ATOM      6  C   UNL     1       1.285   3.851  18.388  0.00  0.00    +0.000 A 
ATOM      7  C   UNL     1       2.285   4.765  18.743  0.00  0.00    +0.000 A 
ATOM      8  C   UNL     1       2.135   6.203  18.309  0.00  0.00    +0.000 C 
ATOM      9  C   UNL     1       3.443   4.341  19.440  0.00  0.00    +0.000 A 
BRANCH   5  10
ATOM     10  N   UNL     1       0.429   1.579  18.323  0.00  0.00    +0.000 N 
ATOM     11  H   UNL     1       0.537   0.663  18.747  0.00  0.00    +0.000 HD
ATOM     12  H   UNL     1      -0.532   1.912  18.391  0.00  0.00    +0.000 HD
ENDBRANCH   5  10
ENDBRANCH   1   9
BRANCH   1  13
ATOM     13  C   UNL     1       5.164   5.841  18.767  0.00  0.00    +0.000 C 
BRANCH  13  14
ATOM     14  C   UNL     1       6.491   5.057  18.646  0.00  0.00    +0.000 C 
ATOM     15  C   UNL     1       7.713   5.844  19.126  0.00  0.00    +0.000 C 
ATOM     16  C   UNL     1       7.911   7.116  18.315  0.00  0.00    +0.000 C 
ATOM     17  C   UNL     1       7.677   6.968  16.805  0.00  0.00    +0.000 C 
ATOM     18  N   UNL     1       6.831   5.875  16.324  0.00  0.00    +0.000 NA
ATOM     19  C   UNL     1       7.067   5.584  14.905  0.00  0.00    +0.000 C 
ATOM     20  C   UNL     1       5.930   4.738  14.339  0.00  0.00    +0.000 C 
ATOM     21  C   UNL     1       5.744   3.460  15.144  0.00  0.00    +0.000 C 
ATOM     22  C   UNL     1       5.570   3.794  16.619  0.00  0.00    +0.000 C 
ATOM     23  C   UNL     1       6.727   4.670  17.159  0.00  0.00    +0.000 C 
ENDBRANCH  13  14
ENDBRANCH   1  13
TORSDOF 4
ENDMDL
MODEL 5
REMARK VINA RESULT:      -6.6      1.936      2.861
REMARK  Name = 
REMARK  6 active torsions:
REMARK  status: ('A' for Active; 'I' for Inactive)
REMARK    1  A    between atoms: C_1  and  C_2
REMARK    2  A    between atoms: C_4  and  N_5
REMARK    3  A    between atoms: C_7  and  C_8
REMARK    4  A    between atoms: C_9  and  O_10
REMARK    5  A    between atoms: O_10  and  C_11
REMARK    6  A    between atoms: C_11  and  C_12
REMARK                            x       y       z     vdW  Elec       q    Type
REMARK                         _______ _______ _______ _____ _____    ______ ____
ROOT
ATOM      1  O   UNL     1       2.749   6.369  17.855  0.00  0.00    +0.000 OA
ENDROOT
BRANCH   1   9
ATOM      2  C   UNL     1       2.011   4.789  20.540  0.00  0.00    +0.000 C 
ATOM      3  C   UNL     1       1.878   6.259  20.226  0.00  0.00    +0.000 A 
ATOM      4  C   UNL     1       1.378   7.034  21.290  0.00  0.00    +0.000 A 
ATOM      5  C   UNL     1       1.193   8.413  21.207  0.00  0.00    +0.000 A 
ATOM      6  C   UNL     1       1.399   9.017  19.963  0.00  0.00    +0.000 A 
ATOM      7  C   UNL     1       1.908   8.291  18.879  0.00  0.00    +0.000 A 
ATOM      8  C   UNL     1       2.106   9.004  17.563  0.00  0.00    +0.000 C 
ATOM      9  C   UNL     1       2.174   6.905  18.993  0.00  0.00    +0.000 A 
BRANCH   5  10
ATOM     10  N   UNL     1       0.594   9.104  22.253  0.00  0.00    +0.000 N 
ATOM     11  H   UNL     1       0.100   9.940  21.956  0.00  0.00    +0.000 HD
ATOM     12  H   UNL     1       0.009   8.515  22.845  0.00  0.00    +0.000 HD
ENDBRANCH   5  10
ENDBRANCH   1   9
BRANCH   1  13
ATOM     13  C   UNL     1       4.162   6.236  17.869  0.00  0.00    +0.000 C 
BRANCH  13  14
ATOM     14  C   UNL     1       4.688   4.802  18.111  0.00  0.00    +0.000 C 
ATOM     15  C   UNL     1       5.541   4.668  19.374  0.00  0.00    +0.000 C 
ATOM     16  C   UNL     1       6.776   5.554  19.310  0.00  0.00    +0.000 C 
ATOM     17  C   UNL     1       7.481   5.591  17.946  0.00  0.00    +0.000 C 
ATOM     18  N   UNL     1       6.715   5.252  16.746  0.00  0.00    +0.000 NA
ATOM     19  C   UNL     1       7.588   4.886  15.625  0.00  0.00    +0.000 C 
ATOM     20  C   UNL     1       6.812   4.923  14.311  0.00  0.00    +0.000 C 
ATOM     21  C   UNL     1       5.586   4.024  14.374  0.00  0.00    +0.000 C 
ATOM     22  C   UNL     1       4.737   4.386  15.585  0.00  0.00    +0.000 C 
ATOM     23  C   UNL     1       5.557   4.362  16.899  0.00  0.00    +0.000 C 
ENDBRANCH  13  14
ENDBRANCH   1  13
TORSDOF 4
ENDMDL
MODEL 6
REMARK VINA RESULT:      -6.5      3.533      6.047
REMARK  Name = 
REMARK  6 active torsions:
REMARK  status: ('A' for Active; 'I' for Inactive)
REMARK    1  A    between atoms: C_1  and  C_2
REMARK    2  A    between atoms: C_4  and  N_5
REMARK    3  A    between atoms: C_7  and  C_8
REMARK    4  A    between atoms: C_9  and  O_10
REMARK    5  A    between atoms: O_10  and  C_11
REMARK    6  A    between atoms: C_11  and  C_12
REMARK                            x       y       z     vdW  Elec       q    Type
REMARK                         _______ _______ _______ _____ _____    ______ ____
ROOT
ATOM      1  O   UNL     1       2.258   7.897  20.200  0.00  0.00    +0.000 OA
ENDROOT
BRANCH   1   9
ATOM      2  C   UNL     1      -0.158   8.783  22.104  0.00  0.00    +0.000 C 
ATOM      3  C   UNL     1       0.189   9.256  20.714  0.00  0.00    +0.000 A 
ATOM      4  C   UNL     1      -0.673  10.249  20.210  0.00  0.00    +0.000 A 
ATOM      5  C   UNL     1      -0.516  10.826  18.951  0.00  0.00    +0.000 A 
ATOM      6  C   UNL     1       0.470  10.293  18.116  0.00  0.00    +0.000 A 
ATOM      7  C   UNL     1       1.360   9.314  18.577  0.00  0.00    +0.000 A 
ATOM      8  C   UNL     1       2.402   8.781  17.623  0.00  0.00    +0.000 C 
ATOM      9  C   UNL     1       1.249   8.789  19.887  0.00  0.00    +0.000 A 
BRANCH   5  10
ATOM     10  N   UNL     1      -1.463  11.721  18.468  0.00  0.00    +0.000 N 
ATOM     11  H   UNL     1      -2.400  11.332  18.420  0.00  0.00    +0.000 HD
ATOM     12  H   UNL     1      -1.454  12.619  18.948  0.00  0.00    +0.000 HD
ENDBRANCH   5  10
ENDBRANCH   1   9
BRANCH   1  13
ATOM     13  C   UNL     1       2.145   6.599  19.638  0.00  0.00    +0.000 C 
BRANCH  13  14
ATOM     14  C   UNL     1       3.279   5.616  20.013  0.00  0.00    +0.000 C 
ATOM     15  C   UNL     1       4.561   5.824  19.204  0.00  0.00    +0.000 C 
ATOM     16  C   UNL     1       4.320   5.625  17.715  0.00  0.00    +0.000 C 
ATOM     17  C   UNL     1       3.405   4.445  17.355  0.00  0.00    +0.000 C 
ATOM     18  N   UNL     1       2.462   3.951  18.359  0.00  0.00    +0.000 NA
ATOM     19  C   UNL     1       2.008   2.588  18.059  0.00  0.00    +0.000 C 
ATOM     20  C   UNL     1       0.761   2.251  18.872  0.00  0.00    +0.000 C 
ATOM     21  C   UNL     1       1.011   2.437  20.361  0.00  0.00    +0.000 C 
ATOM     22  C   UNL     1       1.543   3.838  20.629  0.00  0.00    +0.000 C 
ATOM     23  C   UNL     1       2.795   4.158  19.775  0.00  0.00    +0.000 C 
ENDBRANCH  13  14
ENDBRANCH   1  13
TORSDOF 4
ENDMDL
MODEL 7
REMARK VINA RESULT:      -6.4      1.682      2.487
REMARK  Name = 
REMARK  6 active torsions:
REMARK  status: ('A' for Active; 'I' for Inactive)
REMARK    1  A    between atoms: C_1  and  C_2
REMARK    2  A    between atoms: C_4  and  N_5
REMARK    3  A    between atoms: C_7  and  C_8
REMARK    4  A    between atoms: C_9  and  O_10
REMARK    5  A    between atoms: O_10  and  C_11
REMARK    6  A    between atoms: C_11  and  C_12
REMARK                            x       y       z     vdW  Elec       q    Type
REMARK                         _______ _______ _______ _____ _____    ______ ____
ROOT
ATOM      1  O   UNL     1       4.676   4.956  19.996  0.00  0.00    +0.000 OA
ENDROOT
BRANCH   1   9
ATOM      2  C   UNL     1       2.081   6.300  18.689  0.00  0.00    +0.000 C 
ATOM      3  C   UNL     1       2.379   4.843  18.946  0.00  0.00    +0.000 A 
ATOM      4  C   UNL     1       1.366   3.962  18.520  0.00  0.00    +0.000 A 
ATOM      5  C   UNL     1       1.455   2.578  18.655  0.00  0.00    +0.000 A 
ATOM      6  C   UNL     1       2.547   2.068  19.362  0.00  0.00    +0.000 A 
ATOM      7  C   UNL     1       3.586   2.902  19.794  0.00  0.00    +0.000 A 
ATOM      8  C   UNL     1       4.736   2.286  20.554  0.00  0.00    +0.000 C 
ATOM      9  C   UNL     1       3.531   4.301  19.581  0.00  0.00    +0.000 A 
BRANCH   5  10
ATOM     10  N   UNL     1       0.376   1.771  18.315  0.00  0.00    +0.000 N 
ATOM     11  H   UNL     1      -0.183   2.141  17.552  0.00  0.00    +0.000 HD
ATOM     12  H   UNL     1       0.633   0.798  18.153  0.00  0.00    +0.000 HD
ENDBRANCH   5  10
ENDBRANCH   1   9
BRANCH   1  13
ATOM     13  C   UNL     1       5.424   5.615  18.987  0.00  0.00    +0.000 C 
BRANCH  13  14
ATOM     14  C   UNL     1       6.802   4.988  18.670  0.00  0.00    +0.000 C 
ATOM     15  C   UNL     1       7.984   5.877  19.062  0.00  0.00    +0.000 C 
ATOM     16  C   UNL     1       7.955   7.204  18.318  0.00  0.00    +0.000 C 
ATOM     17  C   UNL     1       7.563   7.111  16.836  0.00  0.00    +0.000 C 
ATOM     18  N   UNL     1       6.783   5.959  16.383  0.00  0.00    +0.000 NA
ATOM     19  C   UNL     1       6.880   5.771  14.930  0.00  0.00    +0.000 C 
ATOM     20  C   UNL     1       5.777   4.837  14.440  0.00  0.00    +0.000 C 
ATOM     21  C   UNL     1       5.818   3.505  15.176  0.00  0.00    +0.000 C 
ATOM     22  C   UNL     1       5.784   3.740  16.680  0.00  0.00    +0.000 C 
ATOM     23  C   UNL     1       6.900   4.708  17.144  0.00  0.00    +0.000 C 
ENDBRANCH  13  14
ENDBRANCH   1  13
TORSDOF 4
ENDMDL
MODEL 8
REMARK VINA RESULT:      -6.4      1.933      3.084
REMARK  Name = 
REMARK  6 active torsions:
REMARK  status: ('A' for Active; 'I' for Inactive)
REMARK    1  A    between atoms: C_1  and  C_2
REMARK    2  A    between atoms: C_4  and  N_5
REMARK    3  A    between atoms: C_7  and  C_8
REMARK    4  A    between atoms: C_9  and  O_10
REMARK    5  A    between atoms: O_10  and  C_11
REMARK    6  A    between atoms: C_11  and  C_12
REMARK                            x       y       z     vdW  Elec       q    Type
REMARK                         _______ _______ _______ _____ _____    ______ ____
ROOT
ATOM      1  O   UNL     1       2.522   5.758  18.026  0.00  0.00    +0.000 OA
ENDROOT
BRANCH   1   9
ATOM      2  C   UNL     1       2.320   8.900  17.448  0.00  0.00    +0.000 C 
ATOM      3  C   UNL     1       1.971   8.132  18.699  0.00  0.00    +0.000 A 
ATOM      4  C   UNL     1       1.462   8.928  19.744  0.00  0.00    +0.000 A 
ATOM      5  C   UNL     1       1.068   8.408  20.974  0.00  0.00    +0.000 A 
ATOM      6  C   UNL     1       1.316   7.053  21.211  0.00  0.00    +0.000 A 
ATOM      7  C   UNL     1       1.809   6.218  20.200  0.00  0.00    +0.000 A 
ATOM      8  C   UNL     1       2.055   4.764  20.523  0.00  0.00    +0.000 C 
ATOM      9  C   UNL     1       2.130   6.735  18.922  0.00  0.00    +0.000 A 
BRANCH   5  10
ATOM     10  N   UNL     1       0.677   9.259  22.001  0.00  0.00    +0.000 N 
ATOM     11  H   UNL     1       0.991   8.957  22.919  0.00  0.00    +0.000 HD
ATOM     12  H   UNL     1       0.909  10.236  21.829  0.00  0.00    +0.000 HD
ENDBRANCH   5  10
ENDBRANCH   1   9
BRANCH   1  13
ATOM     13  C   UNL     1       3.893   5.755  17.659  0.00  0.00    +0.000 C 
BRANCH  13  14
ATOM     14  C   UNL     1       4.640   4.424  17.905  0.00  0.00    +0.000 C 
ATOM     15  C   UNL     1       5.395   4.383  19.235  0.00  0.00    +0.000 C 
ATOM     16  C   UNL     1       6.457   5.471  19.308  0.00  0.00    +0.000 C 
ATOM     17  C   UNL     1       7.255   5.689  18.014  0.00  0.00    +0.000 C 
ATOM     18  N   UNL     1       6.663   5.276  16.741  0.00  0.00    +0.000 NA
ATOM     19  C   UNL     1       7.677   5.116  15.693  0.00  0.00    +0.000 C 
ATOM     20  C   UNL     1       7.018   5.077  14.316  0.00  0.00    +0.000 C 
ATOM     21  C   UNL     1       5.967   3.978  14.243  0.00  0.00    +0.000 C 
ATOM     22  C   UNL     1       4.971   4.134  15.383  0.00  0.00    +0.000 C 
ATOM     23  C   UNL     1       5.670   4.194  16.764  0.00  0.00    +0.000 C 
ENDBRANCH  13  14
ENDBRANCH   1  13
TORSDOF 4
ENDMDL
MODEL 9
REMARK VINA RESULT:      -6.3      2.305      6.428
REMARK  Name = 
REMARK  6 active torsions:
REMARK  status: ('A' for Active; 'I' for Inactive)
REMARK    1  A    between atoms: C_1  and  C_2
REMARK    2  A    between atoms: C_4  and  N_5
REMARK    3  A    between atoms: C_7  and  C_8
REMARK    4  A    between atoms: C_9  and  O_10
REMARK    5  A    between atoms: O_10  and  C_11
REMARK    6  A    between atoms: C_11  and  C_12
REMARK                            x       y       z     vdW  Elec       q    Type
REMARK                         _______ _______ _______ _____ _____    ______ ____
ROOT
ATOM      1  O   UNL     1       6.458   4.254  18.445  0.00  0.00    +0.000 OA
ENDROOT
BRANCH   1   9
ATOM      2  C   UNL     1       5.574   5.951  15.878  0.00  0.00    +0.000 C 
ATOM      3  C   UNL     1       6.488   6.338  17.015  0.00  0.00    +0.000 A 
ATOM      4  C   UNL     1       6.996   7.650  16.927  0.00  0.00    +0.000 A 
ATOM      5  C   UNL     1       7.846   8.202  17.882  0.00  0.00    +0.000 A 
ATOM      6  C   UNL     1       8.305   7.362  18.900  0.00  0.00    +0.000 A 
ATOM      7  C   UNL     1       7.820   6.055  19.037  0.00  0.00    +0.000 A 
ATOM      8  C   UNL     1       8.359   5.199  20.158  0.00  0.00    +0.000 C 
ATOM      9  C   UNL     1       6.891   5.524  18.110  0.00  0.00    +0.000 A 
BRANCH   5  10
ATOM     10  N   UNL     1       8.399   9.461  17.683  0.00  0.00    +0.000 N 
ATOM     11  H   UNL     1       8.825   9.576  16.768  0.00  0.00    +0.000 HD
ATOM     12  H   UNL     1       7.759  10.224  17.896  0.00  0.00    +0.000 HD
ENDBRANCH   5  10
ENDBRANCH   1   9
BRANCH   1  13
ATOM     13  C   UNL     1       5.109   4.142  18.873  0.00  0.00    +0.000 C 
BRANCH  13  14
ATOM     14  C   UNL     1       4.396   2.830  18.473  0.00  0.00    +0.000 C 
ATOM     15  C   UNL     1       3.933   2.804  17.015  0.00  0.00    +0.000 C 
ATOM     16  C   UNL     1       2.938   3.918  16.726  0.00  0.00    +0.000 C 
ATOM     17  C   UNL     1       1.894   4.160  17.826  0.00  0.00    +0.000 C 
ATOM     18  N   UNL     1       2.198   3.737  19.194  0.00  0.00    +0.000 NA
ATOM     19  C   UNL     1       0.984   3.606  20.008  0.00  0.00    +0.000 C 
ATOM     20  C   UNL     1       1.341   3.554  21.491  0.00  0.00    +0.000 C 
ATOM     21  C   UNL     1       2.325   2.429  21.778  0.00  0.00    +0.000 C 
ATOM     22  C   UNL     1       3.541   2.557  20.871  0.00  0.00    +0.000 C 
ATOM     23  C   UNL     1       3.146   2.630  19.375  0.00  0.00    +0.000 C 
ENDBRANCH  13  14
ENDBRANCH   1  13
TORSDOF 4
ENDMDL
