MODEL 1
REMARK VINA RESULT:      -7.7      0.000      0.000
REMARK  Name = 
REMARK  6 active torsions:
REMARK  status: ('A' for Active; 'I' for Inactive)
REMARK    1  A    between atoms: C_1  and  C_2
REMARK    2  A    between atoms: C_5  and  S_6
REMARK    3  A    between atoms: S_6  and  N_9
REMARK    4  A    between atoms: C_12  and  C_13
REMARK    5  A    between atoms: C_14  and  C_15
REMARK    6  A    between atoms: N_17  and  N_18
REMARK                            x       y       z     vdW  Elec       q    Type
REMARK                         _______ _______ _______ _____ _____    ______ ____
ROOT
ATOM      1  N   UNL     1       4.053   2.598  18.326  0.00  0.00    +0.000 N 
ATOM      2  C   UNL     1       4.910   3.656  17.947  0.00  0.00    +0.000 A 
ATOM      3  N   UNL     1       5.453   3.647  16.760  0.00  0.00    +0.000 NA
ATOM      4  C   UNL     1       6.292   4.751  16.630  0.00  0.00    +0.000 A 
ATOM      5  C   UNL     1       6.898   5.008  15.294  0.00  0.00    +0.000 C 
ATOM      6  C   UNL     1       6.486   5.479  17.799  0.00  0.00    +0.000 A 
ATOM      7  S   UNL     1       5.444   4.859  19.023  0.00  0.00    +0.000 S 
ATOM      8  H   UNL     1       4.245   1.809  17.706  0.00  0.00    +0.000 HD
ENDROOT
BRANCH   6   9
ATOM      9  C   UNL     1       7.400   6.583  18.040  0.00  0.00    +0.000 C 
ATOM     10  O   UNL     1       8.290   6.557  18.890  0.00  0.00    +0.000 OA
ATOM     11  N   UNL     1       7.190   7.724  17.261  0.00  0.00    +0.000 N 
ATOM     12  H   UNL     1       6.503   7.697  16.510  0.00  0.00    +0.000 HD
BRANCH  11  13
ATOM     13  N   UNL     1       8.018   8.861  17.399  0.00  0.00    +0.000 NA
ATOM     14  H   UNL     1       7.635   9.592  16.783  0.00  0.00    +0.000 HD
ATOM     15  H   UNL     1       8.933   8.643  16.994  0.00  0.00    +0.000 HD
ENDBRANCH  11  13
ENDBRANCH   6   9
BRANCH   1  16
ATOM     16  S   UNL     1       2.429   2.974  18.016  0.00  0.00    +0.000 S 
ATOM     17  O   UNL     1       1.653   1.983  18.728  0.00  0.00    +0.000 OA
ATOM     18  O   UNL     1       2.210   3.236  16.608  0.00  0.00    +0.000 OA
BRANCH  16  23
ATOM     19  C   UNL     1       1.540   8.276  20.843  0.00  0.00    +0.000 C 
ATOM     20  C   UNL     1       1.789   6.966  20.152  0.00  0.00    +0.000 A 
ATOM     21  C   UNL     1       2.094   6.928  18.786  0.00  0.00    +0.000 A 
ATOM     22  C   UNL     1       2.315   5.709  18.146  0.00  0.00    +0.000 A 
ATOM     23  C   UNL     1       2.240   4.519  18.876  0.00  0.00    +0.000 A 
ATOM     24  C   UNL     1       1.921   4.538  20.235  0.00  0.00    +0.000 A 
ATOM     25  C   UNL     1       1.702   5.764  20.870  0.00  0.00    +0.000 A 
ENDBRANCH  16  23
ENDBRANCH   1  16
TORSDOF 4
ENDMDL
MODEL 2
REMARK VINA RESULT:      -7.6      3.515      6.083
REMARK  Name = 
REMARK  6 active torsions:
REMARK  status: ('A' for Active; 'I' for Inactive)
REMARK    1  A    between atoms: C_1  and  C_2
REMARK    2  A    between atoms: C_5  and  S_6
REMARK    3  A    between atoms: S_6  and  N_9
REMARK    4  A    between atoms: C_12  and  C_13
REMARK    5  A    between atoms: C_14  and  C_15
REMARK    6  A    between atoms: N_17  and  N_18
REMARK                            x       y       z     vdW  Elec       q    Type
REMARK                         _______ _______ _______ _____ _____    ______ ____
ROOT
ATOM      1  N   UNL     1       3.229   4.627  18.672  0.00  0.00    +0.000 N 
ATOM      2  C   UNL     1       2.822   5.968  18.856  0.00  0.00    +0.000 A 
ATOM      3  N   UNL     1       2.303   6.329  19.998  0.00  0.00    +0.000 NA
ATOM      4  C   UNL     1       1.933   7.669  19.932  0.00  0.00    +0.000 A 
ATOM      5  C   UNL     1       1.452   8.320  21.183  0.00  0.00    +0.000 C 
ATOM      6  C   UNL     1       2.034   8.242  18.669  0.00  0.00    +0.000 A 
ATOM      7  S   UNL     1       2.784   7.115  17.602  0.00  0.00    +0.000 S 
ATOM      8  H   UNL     1       2.752   4.061  19.375  0.00  0.00    +0.000 HD
ENDROOT
BRANCH   6   9
ATOM      9  C   UNL     1       1.597   9.558  18.230  0.00  0.00    +0.000 C 
ATOM     10  O   UNL     1       2.350  10.392  17.728  0.00  0.00    +0.000 OA
ATOM     11  N   UNL     1       0.248   9.851  18.446  0.00  0.00    +0.000 N 
ATOM     12  H   UNL     1      -0.373   9.121  18.788  0.00  0.00    +0.000 HD
BRANCH  11  13
ATOM     13  N   UNL     1      -0.296  11.096  18.057  0.00  0.00    +0.000 NA
ATOM     14  H   UNL     1       0.367  11.824  18.357  0.00  0.00    +0.000 HD
ATOM     15  H   UNL     1      -1.134  11.269  18.619  0.00  0.00    +0.000 HD
ENDBRANCH  11  13
ENDBRANCH   6   9
BRANCH   1  16
ATOM     16  S   UNL     1       4.874   4.423  19.031  0.00  0.00    +0.000 S 
ATOM     17  O   UNL     1       4.998   3.080  19.554  0.00  0.00    +0.000 OA
ATOM     18  O   UNL     1       5.400   5.565  19.750  0.00  0.00    +0.000 OA
BRANCH  16  23
ATOM     19  C   UNL     1       7.250   4.696  13.448  0.00  0.00    +0.000 C 
ATOM     20  C   UNL     1       6.673   4.600  14.831  0.00  0.00    +0.000 A 
ATOM     21  C   UNL     1       5.334   4.234  15.020  0.00  0.00    +0.000 A 
ATOM     22  C   UNL     1       4.799   4.154  16.304  0.00  0.00    +0.000 A 
ATOM     23  C   UNL     1       5.607   4.435  17.411  0.00  0.00    +0.000 A 
ATOM     24  C   UNL     1       6.938   4.818  17.239  0.00  0.00    +0.000 A 
ATOM     25  C   UNL     1       7.469   4.893  15.948  0.00  0.00    +0.000 A 
ENDBRANCH  16  23
ENDBRANCH   1  16
TORSDOF 4
ENDMDL
MODEL 3
REMARK VINA RESULT:      -7.5      0.132      1.065
REMARK  Name = 
REMARK  6 active torsions:
REMARK  status: ('A' for Active; 'I' for Inactive)
REMARK    1  A    between atoms: C_1  and  C_2
REMARK    2  A    between atoms: C_5  and  S_6
REMARK    3  A    between atoms: S_6  and  N_9
REMARK    4  A    between atoms: C_12  and  C_13
REMARK    5  A    between atoms: C_14  and  C_15
REMARK    6  A    between atoms: N_17  and  N_18
REMARK                            x       y       z     vdW  Elec       q    Type
REMARK                         _______ _______ _______ _____ _____    ______ ____
ROOT
ATOM      1  N   UNL     1       3.973   2.645  18.446  0.00  0.00    +0.000 N 
ATOM      2  C   UNL     1       4.869   3.659  18.041  0.00  0.00    +0.000 A 
ATOM      3  N   UNL     1       5.504   3.539  16.906  0.00  0.00    +0.000 NA
ATOM      4  C   UNL     1       6.362   4.622  16.741  0.00  0.00    +0.000 A 
ATOM      5  C   UNL     1       7.074   4.752  15.439  0.00  0.00    +0.000 C 
ATOM      6  C   UNL     1       6.472   5.454  17.850  0.00  0.00    +0.000 A 
ATOM      7  S   UNL     1       5.330   4.955  19.040  0.00  0.00    +0.000 S 
ATOM      8  H   UNL     1       4.203   1.801  17.919  0.00  0.00    +0.000 HD
ENDROOT
BRANCH   6   9
ATOM      9  C   UNL     1       7.378   6.572  18.060  0.00  0.00    +0.000 C 
ATOM     10  O   UNL     1       8.274   6.573  18.903  0.00  0.00    +0.000 OA
ATOM     11  N   UNL     1       7.151   7.694  17.258  0.00  0.00    +0.000 N 
ATOM     12  H   UNL     1       6.459   7.643  16.514  0.00  0.00    +0.000 HD
BRANCH  11  13
ATOM     13  N   UNL     1       7.969   8.841  17.365  0.00  0.00    +0.000 NA
ATOM     14  H   UNL     1       8.377   9.010  16.435  0.00  0.00    +0.000 HD
ATOM     15  H   UNL     1       8.773   8.609  17.955  0.00  0.00    +0.000 HD
ENDBRANCH  11  13
ENDBRANCH   6   9
BRANCH   1  16
ATOM     16  S   UNL     1       2.382   2.998  17.976  0.00  0.00    +0.000 S 
ATOM     17  O   UNL     1       1.552   2.003  18.619  0.00  0.00    +0.000 OA
ATOM     18  O   UNL     1       2.298   3.244  16.551  0.00  0.00    +0.000 OA
BRANCH  16  23
ATOM     19  C   UNL     1       1.632   8.269  20.899  0.00  0.00    +0.000 C 
ATOM     20  C   UNL     1       1.788   6.966  20.168  0.00  0.00    +0.000 A 
ATOM     21  C   UNL     1       1.658   5.749  20.847  0.00  0.00    +0.000 A 
ATOM     22  C   UNL     1       1.813   4.542  20.167  0.00  0.00    +0.000 A 
ATOM     23  C   UNL     1       2.092   4.548  18.797  0.00  0.00    +0.000 A 
ATOM     24  C   UNL     1       2.242   5.753  18.109  0.00  0.00    +0.000 A 
ATOM     25  C   UNL     1       2.083   6.960  18.797  0.00  0.00    +0.000 A 
ENDBRANCH  16  23
ENDBRANCH   1  16
TORSDOF 4
ENDMDL
MODEL 4
REMARK VINA RESULT:      -7.5      2.945      5.032
REMARK  Name = 
REMARK  6 active torsions:
REMARK  status: ('A' for Active; 'I' for Inactive)
REMARK    1  A    between atoms: C_1  and  C_2
REMARK    2  A    between atoms: C_5  and  S_6
REMARK    3  A    between atoms: S_6  and  N_9
REMARK    4  A    between atoms: C_12  and  C_13
REMARK    5  A    between atoms: C_14  and  C_15
REMARK    6  A    between atoms: N_17  and  N_18
REMARK                            x       y       z     vdW  Elec       q    Type
REMARK                         _______ _______ _______ _____ _____    ______ ____
ROOT
ATOM      1  N   UNL     1       5.599   5.945  16.958  0.00  0.00    +0.000 N 
ATOM      2  C   UNL     1       5.901   5.290  15.742  0.00  0.00    +0.000 A 
ATOM      3  N   UNL     1       6.910   5.703  15.025  0.00  0.00    +0.000 NA
ATOM      4  C   UNL     1       6.984   4.949  13.857  0.00  0.00    +0.000 A 
ATOM      5  C   UNL     1       8.158   5.164  12.965  0.00  0.00    +0.000 C 
ATOM      6  C   UNL     1       5.912   4.088  13.649  0.00  0.00    +0.000 A 
ATOM      7  S   UNL     1       4.901   4.106  15.044  0.00  0.00    +0.000 S 
ATOM      8  H   UNL     1       6.042   6.865  16.931  0.00  0.00    +0.000 HD
ENDROOT
BRANCH   6   9
ATOM      9  C   UNL     1       5.610   3.280  12.478  0.00  0.00    +0.000 C 
ATOM     10  O   UNL     1       4.616   3.448  11.772  0.00  0.00    +0.000 OA
ATOM     11  N   UNL     1       6.512   2.248  12.206  0.00  0.00    +0.000 N 
ATOM     12  H   UNL     1       7.368   2.176  12.753  0.00  0.00    +0.000 HD
BRANCH  11  13
ATOM     13  N   UNL     1       6.330   1.398  11.092  0.00  0.00    +0.000 NA
ATOM     14  H   UNL     1       7.141   0.764  11.058  0.00  0.00    +0.000 HD
ATOM     15  H   UNL     1       6.414   1.961  10.242  0.00  0.00    +0.000 HD
ENDBRANCH  11  13
ENDBRANCH   6   9
BRANCH   1  16
ATOM     16  S   UNL     1       6.337   5.175  18.276  0.00  0.00    +0.000 S 
ATOM     17  O   UNL     1       6.929   6.232  19.067  0.00  0.00    +0.000 OA
ATOM     18  O   UNL     1       7.111   4.028  17.849  0.00  0.00    +0.000 OA
BRANCH  16  23
ATOM     19  C   UNL     1       1.388   3.105  21.125  0.00  0.00    +0.000 C 
ATOM     20  C   UNL     1       2.626   3.619  20.447  0.00  0.00    +0.000 A 
ATOM     21  C   UNL     1       2.790   4.988  20.205  0.00  0.00    +0.000 A 
ATOM     22  C   UNL     1       3.937   5.459  19.568  0.00  0.00    +0.000 A 
ATOM     23  C   UNL     1       4.932   4.559  19.175  0.00  0.00    +0.000 A 
ATOM     24  C   UNL     1       4.777   3.189  19.394  0.00  0.00    +0.000 A 
ATOM     25  C   UNL     1       3.625   2.724  20.035  0.00  0.00    +0.000 A 
ENDBRANCH  16  23
ENDBRANCH   1  16
TORSDOF 4
ENDMDL
MODEL 5
REMARK VINA RESULT:      -7.5      3.200      6.010
REMARK  Name = 
REMARK  6 active torsions:
REMARK  status: ('A' for Active; 'I' for Inactive)
REMARK    1  A    between atoms: C_1  and  C_2
REMARK    2  A    between atoms: C_5  and  S_6
REMARK    3  A    between atoms: S_6  and  N_9
REMARK    4  A    between atoms: C_12  and  C_13
REMARK    5  A    between atoms: C_14  and  C_15
REMARK    6  A    between atoms: N_17  and  N_18
REMARK                            x       y       z     vdW  Elec       q    Type
REMARK                         _______ _______ _______ _____ _____    ______ ____
ROOT
ATOM      1  N   UNL     1       3.132   4.747  18.610  0.00  0.00    +0.000 N 
ATOM      2  C   UNL     1       2.735   6.080  18.858  0.00  0.00    +0.000 A 
ATOM      3  N   UNL     1       2.238   6.395  20.023  0.00  0.00    +0.000 NA
ATOM      4  C   UNL     1       1.874   7.738  20.020  0.00  0.00    +0.000 A 
ATOM      5  C   UNL     1       1.418   8.337  21.306  0.00  0.00    +0.000 C 
ATOM      6  C   UNL     1       1.956   8.363  18.781  0.00  0.00    +0.000 A 
ATOM      7  S   UNL     1       2.682   7.279  17.655  0.00  0.00    +0.000 S 
ATOM      8  H   UNL     1       2.665   4.153  19.297  0.00  0.00    +0.000 HD
ENDROOT
BRANCH   6   9
ATOM      9  C   UNL     1       1.519   9.698  18.406  0.00  0.00    +0.000 C 
ATOM     10  O   UNL     1       0.342  10.058  18.418  0.00  0.00    +0.000 OA
ATOM     11  N   UNL     1       2.526  10.569  17.983  0.00  0.00    +0.000 N 
ATOM     12  H   UNL     1       3.500  10.280  18.056  0.00  0.00    +0.000 HD
BRANCH  11  13
ATOM     13  N   UNL     1       2.227  11.896  17.598  0.00  0.00    +0.000 NA
ATOM     14  H   UNL     1       2.354  11.952  16.578  0.00  0.00    +0.000 HD
ATOM     15  H   UNL     1       2.952  12.511  17.978  0.00  0.00    +0.000 HD
ENDBRANCH  11  13
ENDBRANCH   6   9
BRANCH   1  16
ATOM     16  S   UNL     1       4.782   4.520  18.932  0.00  0.00    +0.000 S 
ATOM     17  O   UNL     1       4.911   3.150  19.376  0.00  0.00    +0.000 OA
ATOM     18  O   UNL     1       5.322   5.619  19.705  0.00  0.00    +0.000 OA
BRANCH  16  23
ATOM     19  C   UNL     1       7.325   4.637  13.417  0.00  0.00    +0.000 C 
ATOM     20  C   UNL     1       6.688   4.637  14.777  0.00  0.00    +0.000 A 
ATOM     21  C   UNL     1       7.443   4.937  15.917  0.00  0.00    +0.000 A 
ATOM     22  C   UNL     1       6.849   4.927  17.178  0.00  0.00    +0.000 A 
ATOM     23  C   UNL     1       5.490   4.623  17.304  0.00  0.00    +0.000 A 
ATOM     24  C   UNL     1       4.728   4.305  16.178  0.00  0.00    +0.000 A 
ATOM     25  C   UNL     1       5.329   4.318  14.917  0.00  0.00    +0.000 A 
ENDBRANCH  16  23
ENDBRANCH   1  16
TORSDOF 4
ENDMDL
MODEL 6
REMARK VINA RESULT:      -7.4      2.978      5.070
REMARK  Name = 
REMARK  6 active torsions:
REMARK  status: ('A' for Active; 'I' for Inactive)
REMARK    1  A    between atoms: C_1  and  C_2
REMARK    2  A    between atoms: C_5  and  S_6
REMARK    3  A    between atoms: S_6  and  N_9
REMARK    4  A    between atoms: C_12  and  C_13
REMARK    5  A    between atoms: C_14  and  C_15
REMARK    6  A    between atoms: N_17  and  N_18
REMARK                            x       y       z     vdW  Elec       q    Type
REMARK                         _______ _______ _______ _____ _____    ______ ____
ROOT
ATOM      1  N   UNL     1       5.471   5.938  16.895  0.00  0.00    +0.000 N 
ATOM      2  C   UNL     1       5.822   5.290  15.689  0.00  0.00    +0.000 A 
ATOM      3  N   UNL     1       6.842   5.724  15.000  0.00  0.00    +0.000 NA
ATOM      4  C   UNL     1       6.965   4.971  13.836  0.00  0.00    +0.000 A 
ATOM      5  C   UNL     1       8.158   5.211  12.977  0.00  0.00    +0.000 C 
ATOM      6  C   UNL     1       5.920   4.085  13.600  0.00  0.00    +0.000 A 
ATOM      7  S   UNL     1       4.870   4.081  14.966  0.00  0.00    +0.000 S 
ATOM      8  H   UNL     1       5.893   6.869  16.878  0.00  0.00    +0.000 HD
ENDROOT
BRANCH   6   9
ATOM      9  C   UNL     1       5.670   3.268  12.423  0.00  0.00    +0.000 C 
ATOM     10  O   UNL     1       4.687   3.405  11.695  0.00  0.00    +0.000 OA
ATOM     11  N   UNL     1       6.610   2.264  12.172  0.00  0.00    +0.000 N 
ATOM     12  H   UNL     1       7.455   2.219  12.738  0.00  0.00    +0.000 HD
BRANCH  11  13
ATOM     13  N   UNL     1       6.479   1.409  11.055  0.00  0.00    +0.000 NA
ATOM     14  H   UNL     1       6.972   0.535  11.282  0.00  0.00    +0.000 HD
ATOM     15  H   UNL     1       7.018   1.809  10.281  0.00  0.00    +0.000 HD
ENDBRANCH  11  13
ENDBRANCH   6   9
BRANCH   1  16
ATOM     16  S   UNL     1       6.190   5.189  18.235  0.00  0.00    +0.000 S 
ATOM     17  O   UNL     1       6.731   6.261  19.041  0.00  0.00    +0.000 OA
ATOM     18  O   UNL     1       7.004   4.061  17.832  0.00  0.00    +0.000 OA
BRANCH  16  23
ATOM     19  C   UNL     1       1.512   2.929  21.382  0.00  0.00    +0.000 C 
ATOM     20  C   UNL     1       2.651   3.486  20.578  0.00  0.00    +0.000 A 
ATOM     21  C   UNL     1       3.647   2.640  20.074  0.00  0.00    +0.000 A 
ATOM     22  C   UNL     1       4.709   3.162  19.336  0.00  0.00    +0.000 A 
ATOM     23  C   UNL     1       4.775   4.538  19.093  0.00  0.00    +0.000 A 
ATOM     24  C   UNL     1       3.799   5.396  19.603  0.00  0.00    +0.000 A 
ATOM     25  C   UNL     1       2.737   4.866  20.341  0.00  0.00    +0.000 A 
ENDBRANCH  16  23
ENDBRANCH   1  16
TORSDOF 4
ENDMDL
MODEL 7
REMARK VINA RESULT:      -7.3      2.690      6.844
REMARK  Name = 
REMARK  6 active torsions:
REMARK  status: ('A' for Active; 'I' for Inactive)
REMARK    1  A    between atoms: C_1  and  C_2
REMARK    2  A    between atoms: C_5  and  S_6
REMARK    3  A    between atoms: S_6  and  N_9
REMARK    4  A    between atoms: C_12  and  C_13
REMARK    5  A    between atoms: C_14  and  C_15
REMARK    6  A    between atoms: N_17  and  N_18
REMARK                            x       y       z     vdW  Elec       q    Type
REMARK                         _______ _______ _______ _____ _____    ______ ____
ROOT
ATOM      1  N   UNL     1       5.043   6.247  16.641  0.00  0.00    +0.000 N 
ATOM      2  C   UNL     1       4.283   5.400  17.478  0.00  0.00    +0.000 A 
ATOM      3  N   UNL     1       3.613   4.411  16.952  0.00  0.00    +0.000 NA
ATOM      4  C   UNL     1       2.905   3.751  17.952  0.00  0.00    +0.000 A 
ATOM      5  C   UNL     1       2.187   2.499  17.584  0.00  0.00    +0.000 C 
ATOM      6  C   UNL     1       2.932   4.373  19.195  0.00  0.00    +0.000 A 
ATOM      7  S   UNL     1       4.022   5.706  19.130  0.00  0.00    +0.000 S 
ATOM      8  H   UNL     1       4.690   6.138  15.689  0.00  0.00    +0.000 HD
ENDROOT
BRANCH   6   9
ATOM      9  C   UNL     1       2.190   4.032  20.399  0.00  0.00    +0.000 C 
ATOM     10  O   UNL     1       1.265   4.711  20.844  0.00  0.00    +0.000 OA
ATOM     11  N   UNL     1       2.615   2.880  21.066  0.00  0.00    +0.000 N 
ATOM     12  H   UNL     1       3.327   2.290  20.639  0.00  0.00    +0.000 HD
BRANCH  11  13
ATOM     13  N   UNL     1       1.969   2.442  22.243  0.00  0.00    +0.000 NA
ATOM     14  H   UNL     1       1.588   3.277  22.709  0.00  0.00    +0.000 HD
ATOM     15  H   UNL     1       2.683   2.095  22.891  0.00  0.00    +0.000 HD
ENDBRANCH  11  13
ENDBRANCH   6   9
BRANCH   1  16
ATOM     16  S   UNL     1       6.656   5.733  16.538  0.00  0.00    +0.000 S 
ATOM     17  O   UNL     1       6.790   4.665  17.504  0.00  0.00    +0.000 OA
ATOM     18  O   UNL     1       7.567   6.859  16.527  0.00  0.00    +0.000 OA
BRANCH  16  23
ATOM     19  C   UNL     1       7.049   3.104  11.077  0.00  0.00    +0.000 C 
ATOM     20  C   UNL     1       6.929   3.772  12.417  0.00  0.00    +0.000 A 
ATOM     21  C   UNL     1       7.743   4.864  12.743  0.00  0.00    +0.000 A 
ATOM     22  C   UNL     1       7.635   5.475  13.991  0.00  0.00    +0.000 A 
ATOM     23  C   UNL     1       6.704   4.999  14.920  0.00  0.00    +0.000 A 
ATOM     24  C   UNL     1       5.897   3.901  14.616  0.00  0.00    +0.000 A 
ATOM     25  C   UNL     1       6.009   3.294  13.361  0.00  0.00    +0.000 A 
ENDBRANCH  16  23
ENDBRANCH   1  16
TORSDOF 4
ENDMDL
MODEL 8
REMARK VINA RESULT:      -7.3      2.665      6.227
REMARK  Name = 
REMARK  6 active torsions:
REMARK  status: ('A' for Active; 'I' for Inactive)
REMARK    1  A    between atoms: C_1  and  C_2
REMARK    2  A    between atoms: C_5  and  S_6
REMARK    3  A    between atoms: S_6  and  N_9
REMARK    4  A    between atoms: C_12  and  C_13
REMARK    5  A    between atoms: C_14  and  C_15
REMARK    6  A    between atoms: N_17  and  N_18
REMARK                            x       y       z     vdW  Elec       q    Type
REMARK                         _______ _______ _______ _____ _____    ______ ____
ROOT
ATOM      1  N   UNL     1       5.156   5.630  16.689  0.00  0.00    +0.000 N 
ATOM      2  C   UNL     1       4.321   4.876  17.544  0.00  0.00    +0.000 A 
ATOM      3  N   UNL     1       3.801   3.759  17.112  0.00  0.00    +0.000 NA
ATOM      4  C   UNL     1       2.982   3.220  18.099  0.00  0.00    +0.000 A 
ATOM      5  C   UNL     1       2.405   1.868  17.861  0.00  0.00    +0.000 C 
ATOM      6  C   UNL     1       2.776   4.043  19.201  0.00  0.00    +0.000 A 
ATOM      7  S   UNL     1       3.785   5.433  19.058  0.00  0.00    +0.000 S 
ATOM      8  H   UNL     1       4.964   5.333  15.731  0.00  0.00    +0.000 HD
ENDROOT
BRANCH   6   9
ATOM      9  C   UNL     1       1.873   3.849  20.324  0.00  0.00    +0.000 C 
ATOM     10  O   UNL     1       0.859   4.521  20.507  0.00  0.00    +0.000 OA
ATOM     11  N   UNL     1       2.244   2.854  21.234  0.00  0.00    +0.000 N 
ATOM     12  H   UNL     1       3.040   2.257  21.023  0.00  0.00    +0.000 HD
BRANCH  11  13
ATOM     13  N   UNL     1       1.444   2.567  22.363  0.00  0.00    +0.000 NA
ATOM     14  H   UNL     1       1.529   1.558  22.546  0.00  0.00    +0.000 HD
ATOM     15  H   UNL     1       0.462   2.695  22.101  0.00  0.00    +0.000 HD
ENDBRANCH  11  13
ENDBRANCH   6   9
BRANCH   1  16
ATOM     16  S   UNL     1       6.791   5.244  16.917  0.00  0.00    +0.000 S 
ATOM     17  O   UNL     1       7.353   5.116  15.591  0.00  0.00    +0.000 OA
ATOM     18  O   UNL     1       6.950   4.200  17.909  0.00  0.00    +0.000 OA
BRANCH  16  23
ATOM     19  C   UNL     1       9.210  10.303  19.251  0.00  0.00    +0.000 C 
ATOM     20  C   UNL     1       8.586   9.058  18.689  0.00  0.00    +0.000 A 
ATOM     21  C   UNL     1       8.756   7.824  19.329  0.00  0.00    +0.000 A 
ATOM     22  C   UNL     1       8.183   6.669  18.799  0.00  0.00    +0.000 A 
ATOM     23  C   UNL     1       7.427   6.746  17.625  0.00  0.00    +0.000 A 
ATOM     24  C   UNL     1       7.262   7.965  16.965  0.00  0.00    +0.000 A 
ATOM     25  C   UNL     1       7.838   9.119  17.503  0.00  0.00    +0.000 A 
ENDBRANCH  16  23
ENDBRANCH   1  16
TORSDOF 4
ENDMDL
MODEL 9
REMARK VINA RESULT:      -7.3      2.626      6.820
REMARK  Name = 
REMARK  6 active torsions:
REMARK  status: ('A' for Active; 'I' for Inactive)
REMARK    1  A    between atoms: C_1  and  C_2
REMARK    2  A    between atoms: C_5  and  S_6
REMARK    3  A    between atoms: S_6  and  N_9
REMARK    4  A    between atoms: C_12  and  C_13
REMARK    5  A    between atoms: C_14  and  C_15
REMARK    6  A    between atoms: N_17  and  N_18
REMARK                            x       y       z     vdW  Elec       q    Type
REMARK                         _______ _______ _______ _____ _____    ______ ____
ROOT
ATOM      1  N   UNL     1       5.183   6.343  16.832  0.00  0.00    +0.000 N 
ATOM      2  C   UNL     1       4.370   5.481  17.602  0.00  0.00    +0.000 A 
ATOM      3  N   UNL     1       3.699   4.531  17.009  0.00  0.00    +0.000 NA
ATOM      4  C   UNL     1       2.936   3.849  17.952  0.00  0.00    +0.000 A 
ATOM      5  C   UNL     1       2.205   2.631  17.505  0.00  0.00    +0.000 C 
ATOM      6  C   UNL     1       2.928   4.419  19.221  0.00  0.00    +0.000 A 
ATOM      7  S   UNL     1       4.052   5.726  19.254  0.00  0.00    +0.000 S 
ATOM      8  H   UNL     1       4.866   6.281  15.863  0.00  0.00    +0.000 HD
ENDROOT
BRANCH   6   9
ATOM      9  C   UNL     1       2.131   4.048  20.379  0.00  0.00    +0.000 C 
ATOM     10  O   UNL     1       1.131   4.665  20.743  0.00  0.00    +0.000 OA
ATOM     11  N   UNL     1       2.591   2.944  21.102  0.00  0.00    +0.000 N 
ATOM     12  H   UNL     1       3.372   2.400  20.739  0.00  0.00    +0.000 HD
BRANCH  11  13
ATOM     13  N   UNL     1       1.898   2.482  22.243  0.00  0.00    +0.000 NA
ATOM     14  H   UNL     1       1.024   3.022  22.307  0.00  0.00    +0.000 HD
ATOM     15  H   UNL     1       2.428   2.760  23.074  0.00  0.00    +0.000 HD
ENDBRANCH  11  13
ENDBRANCH   6   9
BRANCH   1  16
ATOM     16  S   UNL     1       6.787   5.793  16.770  0.00  0.00    +0.000 S 
ATOM     17  O   UNL     1       6.891   4.770  17.788  0.00  0.00    +0.000 OA
ATOM     18  O   UNL     1       7.719   6.899  16.714  0.00  0.00    +0.000 OA
BRANCH  16  23
ATOM     19  C   UNL     1       6.712   3.127  11.313  0.00  0.00    +0.000 C 
ATOM     20  C   UNL     1       6.754   3.769  12.670  0.00  0.00    +0.000 A 
ATOM     21  C   UNL     1       5.959   3.280  13.714  0.00  0.00    +0.000 A 
ATOM     22  C   UNL     1       5.995   3.884  14.970  0.00  0.00    +0.000 A 
ATOM     23  C   UNL     1       6.835   4.980  15.189  0.00  0.00    +0.000 A 
ATOM     24  C   UNL     1       7.621   5.490  14.155  0.00  0.00    +0.000 A 
ATOM     25  C   UNL     1       7.582   4.878  12.899  0.00  0.00    +0.000 A 
ENDBRANCH  16  23
ENDBRANCH   1  16
TORSDOF 4
ENDMDL
