MODEL 1
REMARK VINA RESULT:      -7.6      0.000      0.000
REMARK  Name = 
REMARK  10 active torsions:
REMARK  status: ('A' for Active; 'I' for Inactive)
REMARK    1  A    between atoms: C_1  and  O_2
REMARK    2  A    between atoms: O_2  and  C_3
REMARK    3  A    between atoms: C_8  and  O_9
REMARK    4  A    between atoms: O_9  and  C_10
REMARK    5  A    between atoms: C_13  and  C_14
REMARK    6  A    between atoms: C_14  and  C_15
REMARK    7  A    between atoms: N_18  and  C_19
REMARK    8  A    between atoms: C_19  and  C_20
REMARK    9  A    between atoms: C_27  and  C_28
REMARK   10  A    between atoms: C_28  and  C_29
REMARK                            x       y       z     vdW  Elec       q    Type
REMARK                         _______ _______ _______ _____ _____    ______ ____
ROOT
ATOM      1  C   UNL     1       1.428  10.421  18.191  0.00  0.00    +0.000 A 
ATOM      2  C   UNL     1       2.400  11.287  17.661  0.00  0.00    +0.000 A 
ATOM      3  C   UNL     1       2.537  12.571  18.162  0.00  0.00    +0.000 A 
ATOM      4  N   UNL     1       1.706  13.019  19.123  0.00  0.00    +0.000 N 
ATOM      5  C   UNL     1       0.658  12.265  19.539  0.00  0.00    +0.000 A 
ATOM      6  C   UNL     1       0.504  10.943  19.113  0.00  0.00    +0.000 A 
ENDROOT
BRANCH   6   7
ATOM      7  C   UNL     1      -0.652  10.151  19.628  0.00  0.00    +0.000 C 
ATOM      8  C   UNL     1      -0.601   9.508  20.994  0.00  0.00    +0.000 C 
ATOM      9  O   UNL     1      -1.665  10.061  18.942  0.00  0.00    +0.000 OA
ENDBRANCH   6   7
BRANCH   1  10
ATOM     10  C   UNL     1       1.585   8.946  17.850  0.00  0.00    +0.000 C 
BRANCH  10  19
ATOM     11  C   UNL     1       1.737   3.767  19.777  0.00  0.00    +0.000 A 
ATOM     12  C   UNL     1       1.664   5.064  20.307  0.00  0.00    +0.000 A 
ATOM     13  C   UNL     1       2.208   6.112  19.586  0.00  0.00    +0.000 A 
ATOM     14  C   UNL     1       2.890   5.848  18.408  0.00  0.00    +0.000 A 
ATOM     15  C   UNL     1       3.021   4.580  17.867  0.00  0.00    +0.000 A 
ATOM     16  C   UNL     1       2.424   3.521  18.559  0.00  0.00    +0.000 A 
ATOM     17  C   UNL     1       3.342   7.113  17.862  0.00  0.00    +0.000 C 
ATOM     18  O   UNL     1       4.048   7.212  16.867  0.00  0.00    +0.000 OA
ATOM     19  C   UNL     1       2.719   8.266  18.650  0.00  0.00    +0.000 C 
ATOM     20  C   UNL     1       2.182   7.570  19.928  0.00  0.00    +0.000 C 
BRANCH  11  22
ATOM     21  C   UNL     1       1.441   2.504  21.772  0.00  0.00    +0.000 C 
ATOM     22  O   UNL     1       1.181   2.664  20.380  0.00  0.00    +0.000 OA
ENDBRANCH  11  22
BRANCH  16  23
ATOM     23  O   UNL     1       2.390   2.229  18.095  0.00  0.00    +0.000 OA
ATOM     24  C   UNL     1       3.556   1.441  18.280  0.00  0.00    +0.000 C 
ENDBRANCH  16  23
ENDBRANCH  10  19
ENDBRANCH   1  10
BRANCH   4  25
ATOM     25  C   UNL     1       2.022  14.292  19.827  0.00  0.00    +0.000 C 
BRANCH  25  26
ATOM     26  C   UNL     1       1.509  15.455  19.011  0.00  0.00    +0.000 A 
ATOM     27  C   UNL     1       2.398  16.263  18.278  0.00  0.00    +0.000 A 
ATOM     28  C   UNL     1       1.944  17.405  17.618  0.00  0.00    +0.000 A 
ATOM     29  C   UNL     1       0.596  17.744  17.660  0.00  0.00    +0.000 A 
ATOM     30  C   UNL     1      -0.306  16.928  18.343  0.00  0.00    +0.000 A 
ATOM     31  C   UNL     1       0.147  15.788  19.013  0.00  0.00    +0.000 A 
ENDBRANCH  25  26
ENDBRANCH   4  25
TORSDOF 7
ENDMDL
MODEL 2
REMARK VINA RESULT:      -7.5      1.397      1.796
REMARK  Name = 
REMARK  10 active torsions:
REMARK  status: ('A' for Active; 'I' for Inactive)
REMARK    1  A    between atoms: C_1  and  O_2
REMARK    2  A    between atoms: O_2  and  C_3
REMARK    3  A    between atoms: C_8  and  O_9
REMARK    4  A    between atoms: O_9  and  C_10
REMARK    5  A    between atoms: C_13  and  C_14
REMARK    6  A    between atoms: C_14  and  C_15
REMARK    7  A    between atoms: N_18  and  C_19
REMARK    8  A    between atoms: C_19  and  C_20
REMARK    9  A    between atoms: C_27  and  C_28
REMARK   10  A    between atoms: C_28  and  C_29
REMARK                            x       y       z     vdW  Elec       q    Type
REMARK                         _______ _______ _______ _____ _____    ______ ____
ROOT
ATOM      1  C   UNL     1       0.192  11.310  18.979  0.00  0.00    +0.000 A 
ATOM      2  C   UNL     1       1.365  11.998  19.329  0.00  0.00    +0.000 A 
ATOM      3  C   UNL     1       1.335  13.367  19.537  0.00  0.00    +0.000 A 
ATOM      4  N   UNL     1       0.193  14.058  19.353  0.00  0.00    +0.000 N 
ATOM      5  C   UNL     1      -0.913  13.448  18.861  0.00  0.00    +0.000 A 
ATOM      6  C   UNL     1      -0.960  12.063  18.687  0.00  0.00    +0.000 A 
ENDROOT
BRANCH   6   7
ATOM      7  C   UNL     1      -2.215  11.443  18.169  0.00  0.00    +0.000 C 
ATOM      8  C   UNL     1      -2.200  10.598  16.917  0.00  0.00    +0.000 C 
ATOM      9  O   UNL     1      -3.258  11.596  18.797  0.00  0.00    +0.000 OA
ENDBRANCH   6   7
BRANCH   1  10
ATOM     10  C   UNL     1       0.231   9.795  19.127  0.00  0.00    +0.000 C 
BRANCH  10  19
ATOM     11  C   UNL     1       1.787   4.546  19.893  0.00  0.00    +0.000 A 
ATOM     12  C   UNL     1       1.620   5.698  20.677  0.00  0.00    +0.000 A 
ATOM     13  C   UNL     1       1.768   6.938  20.081  0.00  0.00    +0.000 A 
ATOM     14  C   UNL     1       2.166   7.015  18.756  0.00  0.00    +0.000 A 
ATOM     15  C   UNL     1       2.381   5.905  17.955  0.00  0.00    +0.000 A 
ATOM     16  C   UNL     1       2.177   4.648  18.532  0.00  0.00    +0.000 A 
ATOM     17  C   UNL     1       2.232   8.417  18.390  0.00  0.00    +0.000 C 
ATOM     18  O   UNL     1       2.635   8.820  17.307  0.00  0.00    +0.000 OA
ATOM     19  C   UNL     1       1.633   9.269  19.510  0.00  0.00    +0.000 C 
ATOM     20  C   UNL     1       1.569   8.284  20.706  0.00  0.00    +0.000 C 
BRANCH  11  22
ATOM     21  C   UNL     1       2.281   2.943  21.580  0.00  0.00    +0.000 C 
ATOM     22  O   UNL     1       1.608   3.268  20.368  0.00  0.00    +0.000 OA
ENDBRANCH  11  22
BRANCH  16  23
ATOM     23  O   UNL     1       2.258   3.466  17.836  0.00  0.00    +0.000 OA
ATOM     24  C   UNL     1       3.556   2.959  17.565  0.00  0.00    +0.000 C 
ENDBRANCH  16  23
ENDBRANCH  10  19
ENDBRANCH   1  10
BRANCH   4  25
ATOM     25  C   UNL     1       0.109  15.468  19.825  0.00  0.00    +0.000 C 
BRANCH  25  26
ATOM     26  C   UNL     1       0.417  16.398  18.675  0.00  0.00    +0.000 A 
ATOM     27  C   UNL     1       1.743  16.596  18.249  0.00  0.00    +0.000 A 
ATOM     28  C   UNL     1       2.043  17.540  17.266  0.00  0.00    +0.000 A 
ATOM     29  C   UNL     1       1.023  18.281  16.679  0.00  0.00    +0.000 A 
ATOM     30  C   UNL     1      -0.302  18.064  17.057  0.00  0.00    +0.000 A 
ATOM     31  C   UNL     1      -0.605  17.126  18.047  0.00  0.00    +0.000 A 
ENDBRANCH  25  26
ENDBRANCH   4  25
TORSDOF 7
ENDMDL
MODEL 3
REMARK VINA RESULT:      -7.5      2.497      3.645
REMARK  Name = 
REMARK  10 active torsions:
REMARK  status: ('A' for Active; 'I' for Inactive)
REMARK    1  A    between atoms: C_1  and  O_2
REMARK    2  A    between atoms: O_2  and  C_3
REMARK    3  A    between atoms: C_8  and  O_9
REMARK    4  A    between atoms: O_9  and  C_10
REMARK    5  A    between atoms: C_13  and  C_14
REMARK    6  A    between atoms: C_14  and  C_15
REMARK    7  A    between atoms: N_18  and  C_19
REMARK    8  A    between atoms: C_19  and  C_20
REMARK    9  A    between atoms: C_27  and  C_28
REMARK   10  A    between atoms: C_28  and  C_29
REMARK                            x       y       z     vdW  Elec       q    Type
REMARK                         _______ _______ _______ _____ _____    ______ ____
ROOT
ATOM      1  C   UNL     1      -0.150  10.483  18.346  0.00  0.00    +0.000 A 
ATOM      2  C   UNL     1       0.731  11.416  18.920  0.00  0.00    +0.000 A 
ATOM      3  C   UNL     1       0.246  12.600  19.449  0.00  0.00    +0.000 A 
ATOM      4  N   UNL     1      -1.067  12.893  19.370  0.00  0.00    +0.000 N 
ATOM      5  C   UNL     1      -1.916  12.090  18.681  0.00  0.00    +0.000 A 
ATOM      6  C   UNL     1      -1.496  10.856  18.178  0.00  0.00    +0.000 A 
ENDROOT
BRANCH   6   7
ATOM      7  C   UNL     1      -2.482  10.000  17.453  0.00  0.00    +0.000 C 
ATOM      8  C   UNL     1      -2.523   9.978  15.944  0.00  0.00    +0.000 C 
ATOM      9  O   UNL     1      -3.235   9.280  18.101  0.00  0.00    +0.000 OA
ENDBRANCH   6   7
BRANCH   1  10
ATOM     10  C   UNL     1       0.403   9.082  18.128  0.00  0.00    +0.000 C 
BRANCH  10  19
ATOM     11  C   UNL     1       2.577   4.432  20.181  0.00  0.00    +0.000 A 
ATOM     12  C   UNL     1       2.143   5.673  20.671  0.00  0.00    +0.000 A 
ATOM     13  C   UNL     1       2.190   6.776  19.836  0.00  0.00    +0.000 A 
ATOM     14  C   UNL     1       2.748   6.651  18.574  0.00  0.00    +0.000 A 
ATOM     15  C   UNL     1       3.226   5.455  18.062  0.00  0.00    +0.000 A 
ATOM     16  C   UNL     1       3.128   4.323  18.877  0.00  0.00    +0.000 A 
ATOM     17  C   UNL     1       2.662   7.942  17.918  0.00  0.00    +0.000 C 
ATOM     18  O   UNL     1       3.145   8.182  16.820  0.00  0.00    +0.000 OA
ATOM     19  C   UNL     1       1.801   8.887  18.757  0.00  0.00    +0.000 C 
ATOM     20  C   UNL     1       1.719   8.166  20.128  0.00  0.00    +0.000 C 
BRANCH  11  22
ATOM     21  C   UNL     1       1.221   2.792  21.243  0.00  0.00    +0.000 C 
ATOM     22  O   UNL     1       2.521   3.264  20.903  0.00  0.00    +0.000 OA
ENDBRANCH  11  22
BRANCH  16  23
ATOM     23  O   UNL     1       3.471   3.057  18.469  0.00  0.00    +0.000 OA
ATOM     24  C   UNL     1       2.591   2.405  17.566  0.00  0.00    +0.000 C 
ENDBRANCH  16  23
ENDBRANCH  10  19
ENDBRANCH   1  10
BRANCH   4  25
ATOM     25  C   UNL     1      -1.610  14.031  20.161  0.00  0.00    +0.000 C 
BRANCH  25  26
ATOM     26  C   UNL     1      -2.286  13.499  21.402  0.00  0.00    +0.000 A 
ATOM     27  C   UNL     1      -1.576  12.703  22.320  0.00  0.00    +0.000 A 
ATOM     28  C   UNL     1      -2.225  12.115  23.405  0.00  0.00    +0.000 A 
ATOM     29  C   UNL     1      -3.584  12.330  23.604  0.00  0.00    +0.000 A 
ATOM     30  C   UNL     1      -4.293  13.154  22.730  0.00  0.00    +0.000 A 
ATOM     31  C   UNL     1      -3.649  13.738  21.637  0.00  0.00    +0.000 A 
ENDBRANCH  25  26
ENDBRANCH   4  25
TORSDOF 7
ENDMDL
MODEL 4
REMARK VINA RESULT:      -7.5      0.868      1.241
REMARK  Name = 
REMARK  10 active torsions:
REMARK  status: ('A' for Active; 'I' for Inactive)
REMARK    1  A    between atoms: C_1  and  O_2
REMARK    2  A    between atoms: O_2  and  C_3
REMARK    3  A    between atoms: C_8  and  O_9
REMARK    4  A    between atoms: O_9  and  C_10
REMARK    5  A    between atoms: C_13  and  C_14
REMARK    6  A    between atoms: C_14  and  C_15
REMARK    7  A    between atoms: N_18  and  C_19
REMARK    8  A    between atoms: C_19  and  C_20
REMARK    9  A    between atoms: C_27  and  C_28
REMARK   10  A    between atoms: C_28  and  C_29
REMARK                            x       y       z     vdW  Elec       q    Type
REMARK                         _______ _______ _______ _____ _____    ______ ____
ROOT
ATOM      1  C   UNL     1       1.212  10.979  18.653  0.00  0.00    +0.000 A 
ATOM      2  C   UNL     1       2.251  11.556  17.903  0.00  0.00    +0.000 A 
ATOM      3  C   UNL     1       2.683  12.841  18.183  0.00  0.00    +0.000 A 
ATOM      4  N   UNL     1       2.076  13.570  19.141  0.00  0.00    +0.000 N 
ATOM      5  C   UNL     1       0.969  13.101  19.770  0.00  0.00    +0.000 A 
ATOM      6  C   UNL     1       0.523  11.792  19.571  0.00  0.00    +0.000 A 
ENDROOT
BRANCH   6   7
ATOM      7  C   UNL     1      -0.684  11.321  20.313  0.00  0.00    +0.000 C 
ATOM      8  C   UNL     1      -0.562  10.758  21.709  0.00  0.00    +0.000 C 
ATOM      9  O   UNL     1      -1.787  11.434  19.788  0.00  0.00    +0.000 OA
ENDBRANCH   6   7
BRANCH   1  10
ATOM     10  C   UNL     1       1.051   9.470  18.530  0.00  0.00    +0.000 C 
BRANCH  10  19
ATOM     11  C   UNL     1       1.335   4.116  19.880  0.00  0.00    +0.000 A 
ATOM     12  C   UNL     1       1.383   5.352  20.543  0.00  0.00    +0.000 A 
ATOM     13  C   UNL     1       1.843   6.462  19.856  0.00  0.00    +0.000 A 
ATOM     14  C   UNL     1       2.331   6.312  18.567  0.00  0.00    +0.000 A 
ATOM     15  C   UNL     1       2.340   5.105  17.887  0.00  0.00    +0.000 A 
ATOM     16  C   UNL     1       1.823   3.989  18.553  0.00  0.00    +0.000 A 
ATOM     17  C   UNL     1       2.734   7.620  18.087  0.00  0.00    +0.000 C 
ATOM     18  O   UNL     1       3.284   7.811  17.012  0.00  0.00    +0.000 OA
ATOM     19  C   UNL     1       2.272   8.694  19.074  0.00  0.00    +0.000 C 
ATOM     20  C   UNL     1       1.914   7.876  20.342  0.00  0.00    +0.000 C 
BRANCH  11  22
ATOM     21  C   UNL     1       1.521   2.491  21.607  0.00  0.00    +0.000 C 
ATOM     22  O   UNL     1       0.844   2.965  20.447  0.00  0.00    +0.000 OA
ENDBRANCH  11  22
BRANCH  16  23
ATOM     23  O   UNL     1       1.680   2.753  17.972  0.00  0.00    +0.000 OA
ATOM     24  C   UNL     1       2.858   1.986  17.777  0.00  0.00    +0.000 C 
ENDBRANCH  16  23
ENDBRANCH  10  19
ENDBRANCH   1  10
BRANCH   4  25
ATOM     25  C   UNL     1       2.706  14.835  19.606  0.00  0.00    +0.000 C 
BRANCH  25  26
ATOM     26  C   UNL     1       2.289  15.965  18.694  0.00  0.00    +0.000 A 
ATOM     27  C   UNL     1       1.054  16.615  18.878  0.00  0.00    +0.000 A 
ATOM     28  C   UNL     1       0.614  17.578  17.971  0.00  0.00    +0.000 A 
ATOM     29  C   UNL     1       1.407  17.924  16.882  0.00  0.00    +0.000 A 
ATOM     30  C   UNL     1       2.654  17.323  16.711  0.00  0.00    +0.000 A 
ATOM     31  C   UNL     1       3.095  16.351  17.613  0.00  0.00    +0.000 A 
ENDBRANCH  25  26
ENDBRANCH   4  25
TORSDOF 7
ENDMDL
MODEL 5
REMARK VINA RESULT:      -7.4      3.644      9.732
REMARK  Name = 
REMARK  10 active torsions:
REMARK  status: ('A' for Active; 'I' for Inactive)
REMARK    1  A    between atoms: C_1  and  O_2
REMARK    2  A    between atoms: O_2  and  C_3
REMARK    3  A    between atoms: C_8  and  O_9
REMARK    4  A    between atoms: O_9  and  C_10
REMARK    5  A    between atoms: C_13  and  C_14
REMARK    6  A    between atoms: C_14  and  C_15
REMARK    7  A    between atoms: N_18  and  C_19
REMARK    8  A    between atoms: C_19  and  C_20
REMARK    9  A    between atoms: C_27  and  C_28
REMARK   10  A    between atoms: C_28  and  C_29
REMARK                            x       y       z     vdW  Elec       q    Type
REMARK                         _______ _______ _______ _____ _____    ______ ____
ROOT
ATOM      1  C   UNL     1       0.472   9.705  19.527  0.00  0.00    +0.000 A 
ATOM      2  C   UNL     1       0.897   9.544  18.198  0.00  0.00    +0.000 A 
ATOM      3  C   UNL     1       1.789   8.537  17.868  0.00  0.00    +0.000 A 
ATOM      4  N   UNL     1       2.298   7.738  18.826  0.00  0.00    +0.000 N 
ATOM      5  C   UNL     1       2.031   7.970  20.135  0.00  0.00    +0.000 A 
ATOM      6  C   UNL     1       1.095   8.932  20.524  0.00  0.00    +0.000 A 
ENDROOT
BRANCH   6   7
ATOM      7  C   UNL     1       0.821   9.125  21.979  0.00  0.00    +0.000 C 
ATOM      8  C   UNL     1      -0.575   8.955  22.531  0.00  0.00    +0.000 C 
ATOM      9  O   UNL     1       1.754   9.384  22.731  0.00  0.00    +0.000 OA
ENDBRANCH   6   7
BRANCH   1  10
ATOM     10  C   UNL     1      -0.760  10.574  19.739  0.00  0.00    +0.000 C 
BRANCH  10  19
ATOM     11  C   UNL     1      -3.101  14.656  22.641  0.00  0.00    +0.000 A 
ATOM     12  C   UNL     1      -3.059  14.233  21.303  0.00  0.00    +0.000 A 
ATOM     13  C   UNL     1      -1.950  13.535  20.858  0.00  0.00    +0.000 A 
ATOM     14  C   UNL     1      -0.872  13.351  21.711  0.00  0.00    +0.000 A 
ATOM     15  C   UNL     1      -0.854  13.786  23.026  0.00  0.00    +0.000 A 
ATOM     16  C   UNL     1      -1.994  14.441  23.502  0.00  0.00    +0.000 A 
ATOM     17  C   UNL     1       0.136  12.589  20.998  0.00  0.00    +0.000 C 
ATOM     18  O   UNL     1       1.243  12.334  21.451  0.00  0.00    +0.000 OA
ATOM     19  C   UNL     1      -0.441  12.085  19.675  0.00  0.00    +0.000 C 
ATOM     20  C   UNL     1      -1.727  12.936  19.504  0.00  0.00    +0.000 C 
BRANCH  11  22
ATOM     21  C   UNL     1      -5.315  14.504  23.499  0.00  0.00    +0.000 C 
ATOM     22  O   UNL     1      -4.175  15.305  23.202  0.00  0.00    +0.000 OA
ENDBRANCH  11  22
BRANCH  16  23
ATOM     23  O   UNL     1      -2.155  14.841  24.806  0.00  0.00    +0.000 OA
ATOM     24  C   UNL     1      -1.146  15.671  25.361  0.00  0.00    +0.000 C 
ENDBRANCH  16  23
ENDBRANCH  10  19
ENDBRANCH   1  10
BRANCH   4  25
ATOM     25  C   UNL     1       3.043   6.511  18.433  0.00  0.00    +0.000 C 
BRANCH  25  26
ATOM     26  C   UNL     1       2.254   5.292  18.852  0.00  0.00    +0.000 A 
ATOM     27  C   UNL     1       2.041   5.010  20.214  0.00  0.00    +0.000 A 
ATOM     28  C   UNL     1       1.415   3.827  20.607  0.00  0.00    +0.000 A 
ATOM     29  C   UNL     1       0.972   2.922  19.649  0.00  0.00    +0.000 A 
ATOM     30  C   UNL     1       1.133   3.209  18.294  0.00  0.00    +0.000 A 
ATOM     31  C   UNL     1       1.768   4.388  17.896  0.00  0.00    +0.000 A 
ENDBRANCH  25  26
ENDBRANCH   4  25
TORSDOF 7
ENDMDL
MODEL 6
REMARK VINA RESULT:      -7.3      3.462      9.619
REMARK  Name = 
REMARK  10 active torsions:
REMARK  status: ('A' for Active; 'I' for Inactive)
REMARK    1  A    between atoms: C_1  and  O_2
REMARK    2  A    between atoms: O_2  and  C_3
REMARK    3  A    between atoms: C_8  and  O_9
REMARK    4  A    between atoms: O_9  and  C_10
REMARK    5  A    between atoms: C_13  and  C_14
REMARK    6  A    between atoms: C_14  and  C_15
REMARK    7  A    between atoms: N_18  and  C_19
REMARK    8  A    between atoms: C_19  and  C_20
REMARK    9  A    between atoms: C_27  and  C_28
REMARK   10  A    between atoms: C_28  and  C_29
REMARK                            x       y       z     vdW  Elec       q    Type
REMARK                         _______ _______ _______ _____ _____    ______ ____
ROOT
ATOM      1  C   UNL     1       0.634   9.495  19.290  0.00  0.00    +0.000 A 
ATOM      2  C   UNL     1       1.438   9.444  18.139  0.00  0.00    +0.000 A 
ATOM      3  C   UNL     1       2.379   8.439  17.989  0.00  0.00    +0.000 A 
ATOM      4  N   UNL     1       2.570   7.534  18.969  0.00  0.00    +0.000 N 
ATOM      5  C   UNL     1       1.925   7.653  20.156  0.00  0.00    +0.000 A 
ATOM      6  C   UNL     1       0.924   8.609  20.343  0.00  0.00    +0.000 A 
ENDROOT
BRANCH   6   7
ATOM      7  C   UNL     1       0.227   8.674  21.662  0.00  0.00    +0.000 C 
ATOM      8  C   UNL     1       0.860   9.383  22.836  0.00  0.00    +0.000 C 
ATOM      9  O   UNL     1      -0.889   8.178  21.771  0.00  0.00    +0.000 OA
ENDBRANCH   6   7
BRANCH   1  10
ATOM     10  C   UNL     1      -0.597  10.388  19.212  0.00  0.00    +0.000 C 
BRANCH  10  19
ATOM     11  C   UNL     1      -2.931  14.387  22.232  0.00  0.00    +0.000 A 
ATOM     12  C   UNL     1      -2.860  14.023  20.878  0.00  0.00    +0.000 A 
ATOM     13  C   UNL     1      -1.754  13.321  20.432  0.00  0.00    +0.000 A 
ATOM     14  C   UNL     1      -0.705  13.075  21.304  0.00  0.00    +0.000 A 
ATOM     15  C   UNL     1      -0.714  13.449  22.638  0.00  0.00    +0.000 A 
ATOM     16  C   UNL     1      -1.853  14.108  23.112  0.00  0.00    +0.000 A 
ATOM     17  C   UNL     1       0.306  12.323  20.586  0.00  0.00    +0.000 C 
ATOM     18  O   UNL     1       1.394  12.023  21.056  0.00  0.00    +0.000 OA
ATOM     19  C   UNL     1      -0.244  11.893  19.225  0.00  0.00    +0.000 C 
ATOM     20  C   UNL     1      -1.506  12.779  19.058  0.00  0.00    +0.000 C 
BRANCH  11  22
ATOM     21  C   UNL     1      -4.272  16.350  22.317  0.00  0.00    +0.000 C 
ATOM     22  O   UNL     1      -4.006  15.034  22.792  0.00  0.00    +0.000 OA
ENDBRANCH  11  22
BRANCH  16  23
ATOM     23  O   UNL     1      -2.043  14.452  24.429  0.00  0.00    +0.000 OA
ATOM     24  C   UNL     1      -1.206  15.467  24.962  0.00  0.00    +0.000 C 
ENDBRANCH  16  23
ENDBRANCH  10  19
ENDBRANCH   1  10
BRANCH   4  25
ATOM     25  C   UNL     1       3.389   6.322  18.694  0.00  0.00    +0.000 C 
BRANCH  25  26
ATOM     26  C   UNL     1       2.595   5.090  19.061  0.00  0.00    +0.000 A 
ATOM     27  C   UNL     1       1.841   4.408  18.089  0.00  0.00    +0.000 A 
ATOM     28  C   UNL     1       1.016   3.341  18.446  0.00  0.00    +0.000 A 
ATOM     29  C   UNL     1       0.950   2.925  19.771  0.00  0.00    +0.000 A 
ATOM     30  C   UNL     1       1.727   3.561  20.739  0.00  0.00    +0.000 A 
ATOM     31  C   UNL     1       2.547   4.635  20.387  0.00  0.00    +0.000 A 
ENDBRANCH  25  26
ENDBRANCH   4  25
TORSDOF 7
ENDMDL
MODEL 7
REMARK VINA RESULT:      -7.3      3.908      6.712
REMARK  Name = 
REMARK  10 active torsions:
REMARK  status: ('A' for Active; 'I' for Inactive)
REMARK    1  A    between atoms: C_1  and  O_2
REMARK    2  A    between atoms: O_2  and  C_3
REMARK    3  A    between atoms: C_8  and  O_9
REMARK    4  A    between atoms: O_9  and  C_10
REMARK    5  A    between atoms: C_13  and  C_14
REMARK    6  A    between atoms: C_14  and  C_15
REMARK    7  A    between atoms: N_18  and  C_19
REMARK    8  A    between atoms: C_19  and  C_20
REMARK    9  A    between atoms: C_27  and  C_28
REMARK   10  A    between atoms: C_28  and  C_29
REMARK                            x       y       z     vdW  Elec       q    Type
REMARK                         _______ _______ _______ _____ _____    ______ ____
ROOT
ATOM      1  C   UNL     1       1.871   4.718  18.524  0.00  0.00    +0.000 A 
ATOM      2  C   UNL     1       2.171   6.017  18.081  0.00  0.00    +0.000 A 
ATOM      3  C   UNL     1       2.200   7.071  18.978  0.00  0.00    +0.000 A 
ATOM      4  N   UNL     1       1.889   6.871  20.274  0.00  0.00    +0.000 N 
ATOM      5  C   UNL     1       1.441   5.663  20.699  0.00  0.00    +0.000 A 
ATOM      6  C   UNL     1       1.445   4.550  19.854  0.00  0.00    +0.000 A 
ENDROOT
BRANCH   6   7
ATOM      7  C   UNL     1       0.967   3.240  20.386  0.00  0.00    +0.000 C 
ATOM      8  C   UNL     1       1.554   2.659  21.651  0.00  0.00    +0.000 C 
ATOM      9  O   UNL     1       0.059   2.656  19.803  0.00  0.00    +0.000 OA
ENDBRANCH   6   7
BRANCH   1  10
ATOM     10  C   UNL     1       2.213   3.584  17.567  0.00  0.00    +0.000 C 
BRANCH  10  19
ATOM     11  C   UNL     1       7.028   5.185  15.374  0.00  0.00    +0.000 A 
ATOM     12  C   UNL     1       6.183   4.068  15.303  0.00  0.00    +0.000 A 
ATOM     13  C   UNL     1       5.376   3.770  16.388  0.00  0.00    +0.000 A 
ATOM     14  C   UNL     1       5.489   4.521  17.547  0.00  0.00    +0.000 A 
ATOM     15  C   UNL     1       6.338   5.608  17.676  0.00  0.00    +0.000 A 
ATOM     16  C   UNL     1       7.114   5.952  16.565  0.00  0.00    +0.000 A 
ATOM     17  C   UNL     1       4.534   4.004  18.508  0.00  0.00    +0.000 C 
ATOM     18  O   UNL     1       4.446   4.401  19.662  0.00  0.00    +0.000 OA
ATOM     19  C   UNL     1       3.616   2.989  17.826  0.00  0.00    +0.000 C 
ATOM     20  C   UNL     1       4.360   2.677  16.501  0.00  0.00    +0.000 C 
BRANCH  11  22
ATOM     21  C   UNL     1       7.535   5.060  13.052  0.00  0.00    +0.000 C 
ATOM     22  O   UNL     1       7.827   5.604  14.336  0.00  0.00    +0.000 OA
ENDBRANCH  11  22
BRANCH  16  23
ATOM     23  O   UNL     1       7.927   7.059  16.515  0.00  0.00    +0.000 OA
ATOM     24  C   UNL     1       7.851   7.971  17.600  0.00  0.00    +0.000 C 
ENDBRANCH  16  23
ENDBRANCH  10  19
ENDBRANCH   1  10
BRANCH   4  25
ATOM     25  C   UNL     1       2.173   7.942  21.267  0.00  0.00    +0.000 C 
BRANCH  25  26
ATOM     26  C   UNL     1       1.001   8.894  21.322  0.00  0.00    +0.000 A 
ATOM     27  C   UNL     1       0.576   9.575  20.166  0.00  0.00    +0.000 A 
ATOM     28  C   UNL     1      -0.428  10.540  20.236  0.00  0.00    +0.000 A 
ATOM     29  C   UNL     1      -1.038  10.824  21.453  0.00  0.00    +0.000 A 
ATOM     30  C   UNL     1      -0.661  10.125  22.600  0.00  0.00    +0.000 A 
ATOM     31  C   UNL     1       0.351   9.164  22.536  0.00  0.00    +0.000 A 
ENDBRANCH  25  26
ENDBRANCH   4  25
TORSDOF 7
ENDMDL
MODEL 8
REMARK VINA RESULT:      -7.3      2.718      9.767
REMARK  Name = 
REMARK  10 active torsions:
REMARK  status: ('A' for Active; 'I' for Inactive)
REMARK    1  A    between atoms: C_1  and  O_2
REMARK    2  A    between atoms: O_2  and  C_3
REMARK    3  A    between atoms: C_8  and  O_9
REMARK    4  A    between atoms: O_9  and  C_10
REMARK    5  A    between atoms: C_13  and  C_14
REMARK    6  A    between atoms: C_14  and  C_15
REMARK    7  A    between atoms: N_18  and  C_19
REMARK    8  A    between atoms: C_19  and  C_20
REMARK    9  A    between atoms: C_27  and  C_28
REMARK   10  A    between atoms: C_28  and  C_29
REMARK                            x       y       z     vdW  Elec       q    Type
REMARK                         _______ _______ _______ _____ _____    ______ ____
ROOT
ATOM      1  C   UNL     1       0.837   9.575  19.257  0.00  0.00    +0.000 A 
ATOM      2  C   UNL     1       1.633   9.536  18.099  0.00  0.00    +0.000 A 
ATOM      3  C   UNL     1       2.496   8.476  17.881  0.00  0.00    +0.000 A 
ATOM      4  N   UNL     1       2.620   7.499  18.801  0.00  0.00    +0.000 N 
ATOM      5  C   UNL     1       1.988   7.590  19.997  0.00  0.00    +0.000 A 
ATOM      6  C   UNL     1       1.061   8.605  20.251  0.00  0.00    +0.000 A 
ENDROOT
BRANCH   6   7
ATOM      7  C   UNL     1       0.373   8.639  21.575  0.00  0.00    +0.000 C 
ATOM      8  C   UNL     1       1.020   9.309  22.765  0.00  0.00    +0.000 C 
ATOM      9  O   UNL     1      -0.746   8.149  21.678  0.00  0.00    +0.000 OA
ENDBRANCH   6   7
BRANCH   1  10
ATOM     10  C   UNL     1      -0.324  10.560  19.243  0.00  0.00    +0.000 C 
BRANCH  10  19
ATOM     11  C   UNL     1       1.668  15.702  18.855  0.00  0.00    +0.000 A 
ATOM     12  C   UNL     1       2.031  14.499  19.479  0.00  0.00    +0.000 A 
ATOM     13  C   UNL     1       1.037  13.600  19.825  0.00  0.00    +0.000 A 
ATOM     14  C   UNL     1      -0.292  13.945  19.633  0.00  0.00    +0.000 A 
ATOM     15  C   UNL     1      -0.698  15.137  19.056  0.00  0.00    +0.000 A 
ATOM     16  C   UNL     1       0.301  16.027  18.650  0.00  0.00    +0.000 A 
ATOM     17  C   UNL     1      -1.110  12.829  20.068  0.00  0.00    +0.000 C 
ATOM     18  O   UNL     1      -2.332  12.854  20.104  0.00  0.00    +0.000 OA
ATOM     19  C   UNL     1      -0.218  11.622  20.361  0.00  0.00    +0.000 C 
ATOM     20  C   UNL     1       1.202  12.241  20.432  0.00  0.00    +0.000 C 
BRANCH  11  22
ATOM     21  C   UNL     1       3.446  16.235  17.366  0.00  0.00    +0.000 C 
ATOM     22  O   UNL     1       2.575  16.639  18.419  0.00  0.00    +0.000 OA
ENDBRANCH  11  22
BRANCH  16  23
ATOM     23  O   UNL     1       0.052  17.200  17.979  0.00  0.00    +0.000 OA
ATOM     24  C   UNL     1      -1.167  17.867  18.267  0.00  0.00    +0.000 C 
ENDBRANCH  16  23
ENDBRANCH  10  19
ENDBRANCH   1  10
BRANCH   4  25
ATOM     25  C   UNL     1       3.345   6.248  18.445  0.00  0.00    +0.000 C 
BRANCH  25  26
ATOM     26  C   UNL     1       2.564   5.058  18.951  0.00  0.00    +0.000 A 
ATOM     27  C   UNL     1       1.679   4.369  18.101  0.00  0.00    +0.000 A 
ATOM     28  C   UNL     1       0.871   3.344  18.594  0.00  0.00    +0.000 A 
ATOM     29  C   UNL     1       0.951   2.976  19.933  0.00  0.00    +0.000 A 
ATOM     30  C   UNL     1       1.858   3.618  20.777  0.00  0.00    +0.000 A 
ATOM     31  C   UNL     1       2.662   4.651  20.290  0.00  0.00    +0.000 A 
ENDBRANCH  25  26
ENDBRANCH   4  25
TORSDOF 7
ENDMDL
MODEL 9
REMARK VINA RESULT:      -7.3      2.877      9.844
REMARK  Name = 
REMARK  10 active torsions:
REMARK  status: ('A' for Active; 'I' for Inactive)
REMARK    1  A    between atoms: C_1  and  O_2
REMARK    2  A    between atoms: O_2  and  C_3
REMARK    3  A    between atoms: C_8  and  O_9
REMARK    4  A    between atoms: O_9  and  C_10
REMARK    5  A    between atoms: C_13  and  C_14
REMARK    6  A    between atoms: C_14  and  C_15
REMARK    7  A    between atoms: N_18  and  C_19
REMARK    8  A    between atoms: C_19  and  C_20
REMARK    9  A    between atoms: C_27  and  C_28
REMARK   10  A    between atoms: C_28  and  C_29
REMARK                            x       y       z     vdW  Elec       q    Type
REMARK                         _______ _______ _______ _____ _____    ______ ____
ROOT
ATOM      1  C   UNL     1       0.918   9.710  19.229  0.00  0.00    +0.000 A 
ATOM      2  C   UNL     1       1.501   9.510  17.966  0.00  0.00    +0.000 A 
ATOM      3  C   UNL     1       2.250   8.373  17.715  0.00  0.00    +0.000 A 
ATOM      4  N   UNL     1       2.473   7.475  18.695  0.00  0.00    +0.000 N 
ATOM      5  C   UNL     1       2.060   7.719  19.964  0.00  0.00    +0.000 A 
ATOM      6  C   UNL     1       1.252   8.818  20.264  0.00  0.00    +0.000 A 
ENDROOT
BRANCH   6   7
ATOM      7  C   UNL     1       0.804   9.020  21.674  0.00  0.00    +0.000 C 
ATOM      8  C   UNL     1      -0.574   8.588  22.116  0.00  0.00    +0.000 C 
ATOM      9  O   UNL     1       1.587   9.506  22.483  0.00  0.00    +0.000 OA
ENDBRANCH   6   7
BRANCH   1  10
ATOM     10  C   UNL     1      -0.168  10.773  19.308  0.00  0.00    +0.000 C 
BRANCH  10  19
ATOM     11  C   UNL     1       2.044  15.788  18.585  0.00  0.00    +0.000 A 
ATOM     12  C   UNL     1       2.410  14.576  19.190  0.00  0.00    +0.000 A 
ATOM     13  C   UNL     1       1.415  13.739  19.666  0.00  0.00    +0.000 A 
ATOM     14  C   UNL     1       0.094  14.157  19.619  0.00  0.00    +0.000 A 
ATOM     15  C   UNL     1      -0.310  15.361  19.067  0.00  0.00    +0.000 A 
ATOM     16  C   UNL     1       0.683  16.186  18.531  0.00  0.00    +0.000 A 
ATOM     17  C   UNL     1      -0.729  13.096  20.168  0.00  0.00    +0.000 C 
ATOM     18  O   UNL     1      -1.936  13.191  20.343  0.00  0.00    +0.000 OA
ATOM     19  C   UNL     1       0.123  11.844  20.384  0.00  0.00    +0.000 C 
ATOM     20  C   UNL     1       1.574  12.383  20.279  0.00  0.00    +0.000 C 
BRANCH  11  22
ATOM     21  C   UNL     1       4.286  16.581  18.503  0.00  0.00    +0.000 C 
ATOM     22  O   UNL     1       2.945  16.664  18.029  0.00  0.00    +0.000 OA
ENDBRANCH  11  22
BRANCH  16  23
ATOM     23  O   UNL     1       0.423  17.361  17.868  0.00  0.00    +0.000 OA
ATOM     24  C   UNL     1      -0.109  18.434  18.630  0.00  0.00    +0.000 C 
ENDBRANCH  16  23
ENDBRANCH  10  19
ENDBRANCH   1  10
BRANCH   4  25
ATOM     25  C   UNL     1       3.051   6.147  18.351  0.00  0.00    +0.000 C 
BRANCH  25  26
ATOM     26  C   UNL     1       2.325   5.071  19.123  0.00  0.00    +0.000 A 
ATOM     27  C   UNL     1       2.533   4.916  20.506  0.00  0.00    +0.000 A 
ATOM     28  C   UNL     1       1.954   3.854  21.199  0.00  0.00    +0.000 A 
ATOM     29  C   UNL     1       1.142   2.944  20.530  0.00  0.00    +0.000 A 
ATOM     30  C   UNL     1       0.888   3.110  19.168  0.00  0.00    +0.000 A 
ATOM     31  C   UNL     1       1.473   4.168  18.468  0.00  0.00    +0.000 A 
ENDBRANCH  25  26
ENDBRANCH   4  25
TORSDOF 7
ENDMDL
