MODEL 1
REMARK VINA RESULT:      -8.2      0.000      0.000
REMARK  Name = 
REMARK  9 active torsions:
REMARK  status: ('A' for Active; 'I' for Inactive)
REMARK    1  A    between atoms: C_1  and  C_2
REMARK    2  A    between atoms: C_7  and  N_8
REMARK    3  A    between atoms: N_8  and  S_9
REMARK    4  A    between atoms: S_9  and  C_12
REMARK    5  A    between atoms: C_23  and  C_24
REMARK    6  A    between atoms: C_24  and  O_26
REMARK    7  A    between atoms: O_26  and  C_27
REMARK    8  A    between atoms: C_27  and  C_28
REMARK    9  A    between atoms: C_27  and  C_29
REMARK                            x       y       z     vdW  Elec       q    Type
REMARK                         _______ _______ _______ _____ _____    ______ ____
ROOT
ATOM      1  C   UNL     1       7.876   5.507  12.204  0.00  0.00    +0.000 C 
ATOM      2  C   UNL     1       7.138   5.016  13.389  0.00  0.00    +0.000 A 
ATOM      3  O   UNL     1       7.524   5.555  14.571  0.00  0.00    +0.000 OA
ATOM      4  C   UNL     1       6.763   4.999  15.547  0.00  0.00    +0.000 A 
ATOM      5  C   UNL     1       5.862   4.090  15.004  0.00  0.00    +0.000 A 
ATOM      6  C   UNL     1       4.987   3.429  15.895  0.00  0.00    +0.000 A 
ATOM      7  C   UNL     1       5.059   3.701  17.279  0.00  0.00    +0.000 A 
ATOM      8  C   UNL     1       6.016   4.600  17.808  0.00  0.00    +0.000 A 
ATOM      9  C   UNL     1       6.180   4.868  19.186  0.00  0.00    +0.000 A 
ATOM     10  C   UNL     1       7.129   5.791  19.643  0.00  0.00    +0.000 A 
ATOM     11  C   UNL     1       7.943   6.468  18.739  0.00  0.00    +0.000 A 
ATOM     12  C   UNL     1       7.824   6.217  17.377  0.00  0.00    +0.000 A 
ATOM     13  C   UNL     1       6.873   5.285  16.921  0.00  0.00    +0.000 A 
ATOM     14  C   UNL     1       6.113   4.096  13.584  0.00  0.00    +0.000 A 
ENDROOT
BRANCH   7  15
ATOM     15  N   UNL     1       4.190   3.013  18.190  0.00  0.00    +0.000 N 
ATOM     16  H   UNL     1       4.245   1.996  18.146  0.00  0.00    +0.000 HD
BRANCH  15  17
ATOM     17  S   UNL     1       2.571   3.494  18.293  0.00  0.00    +0.000 S 
ATOM     18  O   UNL     1       1.919   3.324  17.014  0.00  0.00    +0.000 OA
ATOM     19  O   UNL     1       2.056   2.832  19.477  0.00  0.00    +0.000 OA
BRANCH  17  20
ATOM     20  C   UNL     1       2.470   5.228  18.695  0.00  0.00    +0.000 A 
ATOM     21  C   UNL     1       2.673   6.361  17.927  0.00  0.00    +0.000 A 
ATOM     22  C   UNL     1       2.486   7.564  18.666  0.00  0.00    +0.000 A 
ATOM     23  C   UNL     1       2.147   7.312  19.975  0.00  0.00    +0.000 A 
ATOM     24  S   UNL     1       2.092   5.634  20.312  0.00  0.00    +0.000 S 
ENDBRANCH  17  20
ENDBRANCH  15  17
ENDBRANCH   7  15
BRANCH  14  25
ATOM     25  C   UNL     1       5.493   3.337  12.507  0.00  0.00    +0.000 C 
ATOM     26  O   UNL     1       4.714   3.833  11.700  0.00  0.00    +0.000 OA
BRANCH  25  27
ATOM     27  O   UNL     1       5.881   2.031  12.488  0.00  0.00    +0.000 OA
BRANCH  27  28
ATOM     28  C   UNL     1       6.196   1.477  11.196  0.00  0.00    +0.000 C 
ATOM     29  C   UNL     1       7.582   1.937  10.754  0.00  0.00    +0.000 C 
ATOM     30  C   UNL     1       6.162  -0.041  11.336  0.00  0.00    +0.000 C 
ENDBRANCH  27  28
ENDBRANCH  25  27
ENDBRANCH  14  25
TORSDOF 6
ENDMDL
MODEL 2
REMARK VINA RESULT:      -7.8      3.430      7.265
REMARK  Name = 
REMARK  9 active torsions:
REMARK  status: ('A' for Active; 'I' for Inactive)
REMARK    1  A    between atoms: C_1  and  C_2
REMARK    2  A    between atoms: C_7  and  N_8
REMARK    3  A    between atoms: N_8  and  S_9
REMARK    4  A    between atoms: S_9  and  C_12
REMARK    5  A    between atoms: C_23  and  C_24
REMARK    6  A    between atoms: C_24  and  O_26
REMARK    7  A    between atoms: O_26  and  C_27
REMARK    8  A    between atoms: C_27  and  C_28
REMARK    9  A    between atoms: C_27  and  C_29
REMARK                            x       y       z     vdW  Elec       q    Type
REMARK                         _______ _______ _______ _____ _____    ______ ____
ROOT
ATOM      1  C   UNL     1       1.493   9.405  17.934  0.00  0.00    +0.000 C 
ATOM      2  C   UNL     1       2.281   8.193  18.253  0.00  0.00    +0.000 A 
ATOM      3  O   UNL     1       3.114   7.773  17.269  0.00  0.00    +0.000 OA
ATOM      4  C   UNL     1       3.749   6.659  17.713  0.00  0.00    +0.000 A 
ATOM      5  C   UNL     1       3.337   6.345  19.004  0.00  0.00    +0.000 A 
ATOM      6  C   UNL     1       3.916   5.210  19.614  0.00  0.00    +0.000 A 
ATOM      7  C   UNL     1       4.868   4.443  18.907  0.00  0.00    +0.000 A 
ATOM      8  C   UNL     1       5.238   4.763  17.579  0.00  0.00    +0.000 A 
ATOM      9  C   UNL     1       6.136   4.002  16.797  0.00  0.00    +0.000 A 
ATOM     10  C   UNL     1       6.482   4.388  15.496  0.00  0.00    +0.000 A 
ATOM     11  C   UNL     1       5.936   5.541  14.937  0.00  0.00    +0.000 A 
ATOM     12  C   UNL     1       5.033   6.305  15.669  0.00  0.00    +0.000 A 
ATOM     13  C   UNL     1       4.684   5.911  16.973  0.00  0.00    +0.000 A 
ATOM     14  C   UNL     1       2.365   7.351  19.356  0.00  0.00    +0.000 A 
ENDROOT
BRANCH   7  15
ATOM     15  N   UNL     1       5.440   3.275  19.514  0.00  0.00    +0.000 N 
ATOM     16  H   UNL     1       6.267   2.912  19.043  0.00  0.00    +0.000 HD
BRANCH  15  17
ATOM     17  S   UNL     1       4.418   1.996  19.942  0.00  0.00    +0.000 S 
ATOM     18  O   UNL     1       4.710   0.834  19.133  0.00  0.00    +0.000 OA
ATOM     19  O   UNL     1       4.490   1.924  21.389  0.00  0.00    +0.000 OA
BRANCH  17  20
ATOM     20  C   UNL     1       2.720   2.434  19.619  0.00  0.00    +0.000 A 
ATOM     21  C   UNL     1       1.992   2.483  18.443  0.00  0.00    +0.000 A 
ATOM     22  C   UNL     1       0.645   2.895  18.650  0.00  0.00    +0.000 A 
ATOM     23  C   UNL     1       0.386   3.148  19.978  0.00  0.00    +0.000 A 
ATOM     24  S   UNL     1       1.772   2.922  20.956  0.00  0.00    +0.000 S 
ENDBRANCH  17  20
ENDBRANCH  15  17
ENDBRANCH   7  15
BRANCH  14  25
ATOM     25  C   UNL     1       1.581   7.529  20.570  0.00  0.00    +0.000 C 
ATOM     26  O   UNL     1       0.923   6.629  21.081  0.00  0.00    +0.000 OA
BRANCH  25  27
ATOM     27  O   UNL     1       1.671   8.790  21.079  0.00  0.00    +0.000 OA
BRANCH  27  28
ATOM     28  C   UNL     1       0.431   9.412  21.466  0.00  0.00    +0.000 C 
ATOM     29  C   UNL     1       0.280   9.376  22.984  0.00  0.00    +0.000 C 
ATOM     30  C   UNL     1       0.477  10.854  20.974  0.00  0.00    +0.000 C 
ENDBRANCH  27  28
ENDBRANCH  25  27
ENDBRANCH  14  25
TORSDOF 6
ENDMDL
MODEL 3
REMARK VINA RESULT:      -7.8      1.221      1.804
REMARK  Name = 
REMARK  9 active torsions:
REMARK  status: ('A' for Active; 'I' for Inactive)
REMARK    1  A    between atoms: C_1  and  C_2
REMARK    2  A    between atoms: C_7  and  N_8
REMARK    3  A    between atoms: N_8  and  S_9
REMARK    4  A    between atoms: S_9  and  C_12
REMARK    5  A    between atoms: C_23  and  C_24
REMARK    6  A    between atoms: C_24  and  O_26
REMARK    7  A    between atoms: O_26  and  C_27
REMARK    8  A    between atoms: C_27  and  C_28
REMARK    9  A    between atoms: C_27  and  C_29
REMARK                            x       y       z     vdW  Elec       q    Type
REMARK                         _______ _______ _______ _____ _____    ______ ____
ROOT
ATOM      1  C   UNL     1       7.903   5.527  12.131  0.00  0.00    +0.000 C 
ATOM      2  C   UNL     1       7.144   4.985  13.281  0.00  0.00    +0.000 A 
ATOM      3  O   UNL     1       7.478   5.506  14.487  0.00  0.00    +0.000 OA
ATOM      4  C   UNL     1       6.705   4.904  15.425  0.00  0.00    +0.000 A 
ATOM      5  C   UNL     1       5.848   3.983  14.833  0.00  0.00    +0.000 A 
ATOM      6  C   UNL     1       4.967   3.275  15.681  0.00  0.00    +0.000 A 
ATOM      7  C   UNL     1       4.989   3.514  17.072  0.00  0.00    +0.000 A 
ATOM      8  C   UNL     1       5.902   4.426  17.652  0.00  0.00    +0.000 A 
ATOM      9  C   UNL     1       6.016   4.664  19.040  0.00  0.00    +0.000 A 
ATOM     10  C   UNL     1       6.923   5.603  19.549  0.00  0.00    +0.000 A 
ATOM     11  C   UNL     1       7.744   6.325  18.687  0.00  0.00    +0.000 A 
ATOM     12  C   UNL     1       7.674   6.105  17.316  0.00  0.00    +0.000 A 
ATOM     13  C   UNL     1       6.765   5.158  16.809  0.00  0.00    +0.000 A 
ATOM     14  C   UNL     1       6.142   4.032  13.422  0.00  0.00    +0.000 A 
ENDROOT
BRANCH   7  15
ATOM     15  N   UNL     1       4.113   2.778  17.939  0.00  0.00    +0.000 N 
ATOM     16  H   UNL     1       4.196   1.765  17.868  0.00  0.00    +0.000 HD
BRANCH  15  17
ATOM     17  S   UNL     1       2.479   3.215  18.009  0.00  0.00    +0.000 S 
ATOM     18  O   UNL     1       1.986   3.511  16.683  0.00  0.00    +0.000 OA
ATOM     19  O   UNL     1       1.850   2.189  18.818  0.00  0.00    +0.000 OA
BRANCH  17  20
ATOM     20  C   UNL     1       2.283   4.701  18.974  0.00  0.00    +0.000 A 
ATOM     21  C   UNL     1       1.873   4.899  20.281  0.00  0.00    +0.000 A 
ATOM     22  C   UNL     1       1.860   6.275  20.648  0.00  0.00    +0.000 A 
ATOM     23  C   UNL     1       2.260   7.084  19.610  0.00  0.00    +0.000 A 
ATOM     24  S   UNL     1       2.612   6.187  18.195  0.00  0.00    +0.000 S 
ENDBRANCH  17  20
ENDBRANCH  15  17
ENDBRANCH   7  15
BRANCH  14  25
ATOM     25  C   UNL     1       5.577   3.282  12.308  0.00  0.00    +0.000 C 
ATOM     26  O   UNL     1       6.138   2.321  11.795  0.00  0.00    +0.000 OA
BRANCH  25  27
ATOM     27  O   UNL     1       4.361   3.754  11.914  0.00  0.00    +0.000 OA
BRANCH  27  28
ATOM     28  C   UNL     1       3.816   3.187  10.708  0.00  0.00    +0.000 C 
ATOM     29  C   UNL     1       2.714   2.189  11.052  0.00  0.00    +0.000 C 
ATOM     30  C   UNL     1       3.248   4.337   9.884  0.00  0.00    +0.000 C 
ENDBRANCH  27  28
ENDBRANCH  25  27
ENDBRANCH  14  25
TORSDOF 6
ENDMDL
MODEL 4
REMARK VINA RESULT:      -7.8      3.857      7.933
REMARK  Name = 
REMARK  9 active torsions:
REMARK  status: ('A' for Active; 'I' for Inactive)
REMARK    1  A    between atoms: C_1  and  C_2
REMARK    2  A    between atoms: C_7  and  N_8
REMARK    3  A    between atoms: N_8  and  S_9
REMARK    4  A    between atoms: S_9  and  C_12
REMARK    5  A    between atoms: C_23  and  C_24
REMARK    6  A    between atoms: C_24  and  O_26
REMARK    7  A    between atoms: O_26  and  C_27
REMARK    8  A    between atoms: C_27  and  C_28
REMARK    9  A    between atoms: C_27  and  C_29
REMARK                            x       y       z     vdW  Elec       q    Type
REMARK                         _______ _______ _______ _____ _____    ______ ____
ROOT
ATOM      1  C   UNL     1       0.788   8.675  21.473  0.00  0.00    +0.000 C 
ATOM      2  C   UNL     1       1.488   7.873  20.444  0.00  0.00    +0.000 A 
ATOM      3  O   UNL     1       1.782   6.601  20.807  0.00  0.00    +0.000 OA
ATOM      4  C   UNL     1       2.422   6.012  19.767  0.00  0.00    +0.000 A 
ATOM      5  C   UNL     1       2.546   6.900  18.704  0.00  0.00    +0.000 A 
ATOM      6  C   UNL     1       3.187   6.432  17.535  0.00  0.00    +0.000 A 
ATOM      7  C   UNL     1       3.676   5.108  17.486  0.00  0.00    +0.000 A 
ATOM      8  C   UNL     1       3.573   4.239  18.598  0.00  0.00    +0.000 A 
ATOM      9  C   UNL     1       4.097   2.928  18.635  0.00  0.00    +0.000 A 
ATOM     10  C   UNL     1       3.937   2.107  19.759  0.00  0.00    +0.000 A 
ATOM     11  C   UNL     1       3.256   2.575  20.879  0.00  0.00    +0.000 A 
ATOM     12  C   UNL     1       2.743   3.868  20.888  0.00  0.00    +0.000 A 
ATOM     13  C   UNL     1       2.910   4.691  19.759  0.00  0.00    +0.000 A 
ATOM     14  C   UNL     1       1.937   8.128  19.152  0.00  0.00    +0.000 A 
ENDROOT
BRANCH   7  15
ATOM     15  N   UNL     1       4.350   4.637  16.310  0.00  0.00    +0.000 N 
ATOM     16  H   UNL     1       4.490   3.628  16.274  0.00  0.00    +0.000 HD
BRANCH  15  17
ATOM     17  S   UNL     1       5.758   5.428  15.805  0.00  0.00    +0.000 S 
ATOM     18  O   UNL     1       6.542   4.557  14.958  0.00  0.00    +0.000 OA
ATOM     19  O   UNL     1       5.311   6.721  15.321  0.00  0.00    +0.000 OA
BRANCH  17  20
ATOM     20  C   UNL     1       6.775   5.828  17.213  0.00  0.00    +0.000 A 
ATOM     21  C   UNL     1       7.197   5.063  18.287  0.00  0.00    +0.000 A 
ATOM     22  C   UNL     1       8.009   5.799  19.197  0.00  0.00    +0.000 A 
ATOM     23  C   UNL     1       8.181   7.102  18.790  0.00  0.00    +0.000 A 
ATOM     24  S   UNL     1       7.338   7.438  17.339  0.00  0.00    +0.000 S 
ENDBRANCH  17  20
ENDBRANCH  15  17
ENDBRANCH   7  15
BRANCH  14  25
ATOM     25  C   UNL     1       1.783   9.412  18.482  0.00  0.00    +0.000 C 
ATOM     26  O   UNL     1       2.073   9.591  17.304  0.00  0.00    +0.000 OA
BRANCH  25  27
ATOM     27  O   UNL     1       1.273  10.377  19.297  0.00  0.00    +0.000 OA
BRANCH  27  28
ATOM     28  C   UNL     1       0.335  11.290  18.696  0.00  0.00    +0.000 C 
ATOM     29  C   UNL     1      -1.061  11.053  19.265  0.00  0.00    +0.000 C 
ATOM     30  C   UNL     1       0.806  12.702  19.024  0.00  0.00    +0.000 C 
ENDBRANCH  27  28
ENDBRANCH  25  27
ENDBRANCH  14  25
TORSDOF 6
ENDMDL
MODEL 5
REMARK VINA RESULT:      -7.5      3.312      7.205
REMARK  Name = 
REMARK  9 active torsions:
REMARK  status: ('A' for Active; 'I' for Inactive)
REMARK    1  A    between atoms: C_1  and  C_2
REMARK    2  A    between atoms: C_7  and  N_8
REMARK    3  A    between atoms: N_8  and  S_9
REMARK    4  A    between atoms: S_9  and  C_12
REMARK    5  A    between atoms: C_23  and  C_24
REMARK    6  A    between atoms: C_24  and  O_26
REMARK    7  A    between atoms: O_26  and  C_27
REMARK    8  A    between atoms: C_27  and  C_28
REMARK    9  A    between atoms: C_27  and  C_29
REMARK                            x       y       z     vdW  Elec       q    Type
REMARK                         _______ _______ _______ _____ _____    ______ ____
ROOT
ATOM      1  C   UNL     1       1.567   9.474  17.708  0.00  0.00    +0.000 C 
ATOM      2  C   UNL     1       2.351   8.266  18.051  0.00  0.00    +0.000 A 
ATOM      3  O   UNL     1       3.170   7.814  17.069  0.00  0.00    +0.000 OA
ATOM      4  C   UNL     1       3.804   6.709  17.536  0.00  0.00    +0.000 A 
ATOM      5  C   UNL     1       3.405   6.432  18.839  0.00  0.00    +0.000 A 
ATOM      6  C   UNL     1       3.984   5.310  19.473  0.00  0.00    +0.000 A 
ATOM      7  C   UNL     1       4.924   4.519  18.776  0.00  0.00    +0.000 A 
ATOM      8  C   UNL     1       5.279   4.800  17.435  0.00  0.00    +0.000 A 
ATOM      9  C   UNL     1       6.164   4.013  16.664  0.00  0.00    +0.000 A 
ATOM     10  C   UNL     1       6.497   4.362  15.349  0.00  0.00    +0.000 A 
ATOM     11  C   UNL     1       5.951   5.503  14.766  0.00  0.00    +0.000 A 
ATOM     12  C   UNL     1       5.062   6.292  15.487  0.00  0.00    +0.000 A 
ATOM     13  C   UNL     1       4.726   5.936  16.806  0.00  0.00    +0.000 A 
ATOM     14  C   UNL     1       2.444   7.453  19.176  0.00  0.00    +0.000 A 
ENDROOT
BRANCH   7  15
ATOM     15  N   UNL     1       5.496   3.364  19.407  0.00  0.00    +0.000 N 
ATOM     16  H   UNL     1       6.359   3.030  18.982  0.00  0.00    +0.000 HD
BRANCH  15  17
ATOM     17  S   UNL     1       4.491   2.051  19.769  0.00  0.00    +0.000 S 
ATOM     18  O   UNL     1       4.489   1.109  18.672  0.00  0.00    +0.000 OA
ATOM     19  O   UNL     1       4.883   1.632  21.101  0.00  0.00    +0.000 OA
BRANCH  17  20
ATOM     20  C   UNL     1       2.809   2.605  19.973  0.00  0.00    +0.000 A 
ATOM     21  C   UNL     1       2.148   3.154  21.058  0.00  0.00    +0.000 A 
ATOM     22  C   UNL     1       0.785   3.454  20.776  0.00  0.00    +0.000 A 
ATOM     23  C   UNL     1       0.447   3.123  19.484  0.00  0.00    +0.000 A 
ATOM     24  S   UNL     1       1.759   2.425  18.635  0.00  0.00    +0.000 S 
ENDBRANCH  17  20
ENDBRANCH  15  17
ENDBRANCH   7  15
BRANCH  14  25
ATOM     25  C   UNL     1       1.675   7.669  20.394  0.00  0.00    +0.000 C 
ATOM     26  O   UNL     1       1.735   6.922  21.364  0.00  0.00    +0.000 OA
BRANCH  25  27
ATOM     27  O   UNL     1       0.901   8.788  20.340  0.00  0.00    +0.000 OA
BRANCH  27  28
ATOM     28  C   UNL     1       0.926   9.639  21.502  0.00  0.00    +0.000 C 
ATOM     29  C   UNL     1       0.895  11.104  21.077  0.00  0.00    +0.000 C 
ATOM     30  C   UNL     1      -0.306   9.304  22.334  0.00  0.00    +0.000 C 
ENDBRANCH  27  28
ENDBRANCH  25  27
ENDBRANCH  14  25
TORSDOF 6
ENDMDL
MODEL 6
REMARK VINA RESULT:      -7.3      3.935      7.976
REMARK  Name = 
REMARK  9 active torsions:
REMARK  status: ('A' for Active; 'I' for Inactive)
REMARK    1  A    between atoms: C_1  and  C_2
REMARK    2  A    between atoms: C_7  and  N_8
REMARK    3  A    between atoms: N_8  and  S_9
REMARK    4  A    between atoms: S_9  and  C_12
REMARK    5  A    between atoms: C_23  and  C_24
REMARK    6  A    between atoms: C_24  and  O_26
REMARK    7  A    between atoms: O_26  and  C_27
REMARK    8  A    between atoms: C_27  and  C_28
REMARK    9  A    between atoms: C_27  and  C_29
REMARK                            x       y       z     vdW  Elec       q    Type
REMARK                         _______ _______ _______ _____ _____    ______ ____
ROOT
ATOM      1  C   UNL     1       0.620   9.257  21.369  0.00  0.00    +0.000 C 
ATOM      2  C   UNL     1       1.316   8.376  20.403  0.00  0.00    +0.000 A 
ATOM      3  O   UNL     1       1.562   7.119  20.846  0.00  0.00    +0.000 OA
ATOM      4  C   UNL     1       2.205   6.451  19.856  0.00  0.00    +0.000 A 
ATOM      5  C   UNL     1       2.379   7.272  18.747  0.00  0.00    +0.000 A 
ATOM      6  C   UNL     1       3.030   6.718  17.622  0.00  0.00    +0.000 A 
ATOM      7  C   UNL     1       3.478   5.379  17.660  0.00  0.00    +0.000 A 
ATOM      8  C   UNL     1       3.325   4.580  18.818  0.00  0.00    +0.000 A 
ATOM      9  C   UNL     1       3.806   3.257  18.942  0.00  0.00    +0.000 A 
ATOM     10  C   UNL     1       3.597   2.509  20.107  0.00  0.00    +0.000 A 
ATOM     11  C   UNL     1       2.907   3.062  21.183  0.00  0.00    +0.000 A 
ATOM     12  C   UNL     1       2.435   4.368  21.106  0.00  0.00    +0.000 A 
ATOM     13  C   UNL     1       2.652   5.118  19.936  0.00  0.00    +0.000 A 
ATOM     14  C   UNL     1       1.800   8.542  19.110  0.00  0.00    +0.000 A 
ENDROOT
BRANCH   7  15
ATOM     15  N   UNL     1       4.162   4.820  16.529  0.00  0.00    +0.000 N 
ATOM     16  H   UNL     1       4.398   3.834  16.619  0.00  0.00    +0.000 HD
BRANCH  15  17
ATOM     17  S   UNL     1       5.472   5.665  15.869  0.00  0.00    +0.000 S 
ATOM     18  O   UNL     1       6.190   4.821  14.941  0.00  0.00    +0.000 OA
ATOM     19  O   UNL     1       4.922   6.936  15.438  0.00  0.00    +0.000 OA
BRANCH  17  20
ATOM     20  C   UNL     1       6.623   6.111  17.155  0.00  0.00    +0.000 A 
ATOM     21  C   UNL     1       7.267   7.303  17.438  0.00  0.00    +0.000 A 
ATOM     22  C   UNL     1       8.116   7.210  18.578  0.00  0.00    +0.000 A 
ATOM     23  C   UNL     1       8.094   5.949  19.130  0.00  0.00    +0.000 A 
ATOM     24  S   UNL     1       7.083   4.882  18.253  0.00  0.00    +0.000 S 
ENDBRANCH  17  20
ENDBRANCH  15  17
ENDBRANCH   7  15
BRANCH  14  25
ATOM     25  C   UNL     1       1.701   9.788  18.364  0.00  0.00    +0.000 C 
ATOM     26  O   UNL     1       2.679  10.435  18.007  0.00  0.00    +0.000 OA
BRANCH  25  27
ATOM     27  O   UNL     1       0.413  10.144  18.096  0.00  0.00    +0.000 OA
BRANCH  27  28
ATOM     28  C   UNL     1      -0.122  11.236  18.869  0.00  0.00    +0.000 C 
ATOM     29  C   UNL     1       0.184  12.562  18.180  0.00  0.00    +0.000 C 
ATOM     30  C   UNL     1      -1.629  11.025  18.964  0.00  0.00    +0.000 C 
ENDBRANCH  27  28
ENDBRANCH  25  27
ENDBRANCH  14  25
TORSDOF 6
ENDMDL
MODEL 7
REMARK VINA RESULT:      -7.0      3.349      8.177
REMARK  Name = 
REMARK  9 active torsions:
REMARK  status: ('A' for Active; 'I' for Inactive)
REMARK    1  A    between atoms: C_1  and  C_2
REMARK    2  A    between atoms: C_7  and  N_8
REMARK    3  A    between atoms: N_8  and  S_9
REMARK    4  A    between atoms: S_9  and  C_12
REMARK    5  A    between atoms: C_23  and  C_24
REMARK    6  A    between atoms: C_24  and  O_26
REMARK    7  A    between atoms: O_26  and  C_27
REMARK    8  A    between atoms: C_27  and  C_28
REMARK    9  A    between atoms: C_27  and  C_29
REMARK                            x       y       z     vdW  Elec       q    Type
REMARK                         _______ _______ _______ _____ _____    ______ ____
ROOT
ATOM      1  C   UNL     1       0.394   9.166  21.478  0.00  0.00    +0.000 C 
ATOM      2  C   UNL     1       1.145   8.326  20.518  0.00  0.00    +0.000 A 
ATOM      3  O   UNL     1       1.423   7.071  20.948  0.00  0.00    +0.000 OA
ATOM      4  C   UNL     1       2.115   6.442  19.965  0.00  0.00    +0.000 A 
ATOM      5  C   UNL     1       2.288   7.286  18.874  0.00  0.00    +0.000 A 
ATOM      6  C   UNL     1       2.986   6.772  17.758  0.00  0.00    +0.000 A 
ATOM      7  C   UNL     1       3.479   5.450  17.787  0.00  0.00    +0.000 A 
ATOM      8  C   UNL     1       3.325   4.627  18.929  0.00  0.00    +0.000 A 
ATOM      9  C   UNL     1       3.849   3.320  19.045  0.00  0.00    +0.000 A 
ATOM     10  C   UNL     1       3.636   2.546  20.193  0.00  0.00    +0.000 A 
ATOM     11  C   UNL     1       2.900   3.058  21.258  0.00  0.00    +0.000 A 
ATOM     12  C   UNL     1       2.385   4.348  21.189  0.00  0.00    +0.000 A 
ATOM     13  C   UNL     1       2.605   5.124  20.036  0.00  0.00    +0.000 A 
ATOM     14  C   UNL     1       1.655   8.529  19.241  0.00  0.00    +0.000 A 
ENDROOT
BRANCH   7  15
ATOM     15  N   UNL     1       4.211   4.933  16.666  0.00  0.00    +0.000 N 
ATOM     16  H   UNL     1       4.166   3.921  16.558  0.00  0.00    +0.000 HD
BRANCH  15  17
ATOM     17  S   UNL     1       5.797   5.465  16.411  0.00  0.00    +0.000 S 
ATOM     18  O   UNL     1       5.845   6.910  16.427  0.00  0.00    +0.000 OA
ATOM     19  O   UNL     1       6.607   4.689  17.331  0.00  0.00    +0.000 OA
BRANCH  17  20
ATOM     20  C   UNL     1       6.365   4.949  14.802  0.00  0.00    +0.000 A 
ATOM     21  C   UNL     1       7.457   5.339  14.046  0.00  0.00    +0.000 A 
ATOM     22  C   UNL     1       7.529   4.659  12.797  0.00  0.00    +0.000 A 
ATOM     23  C   UNL     1       6.490   3.770  12.638  0.00  0.00    +0.000 A 
ATOM     24  S   UNL     1       5.420   3.789  13.974  0.00  0.00    +0.000 S 
ENDBRANCH  17  20
ENDBRANCH  15  17
ENDBRANCH   7  15
BRANCH  14  25
ATOM     25  C   UNL     1       1.532   9.783  18.511  0.00  0.00    +0.000 C 
ATOM     26  O   UNL     1       2.328  10.708  18.629  0.00  0.00    +0.000 OA
BRANCH  25  27
ATOM     27  O   UNL     1       0.453   9.807  17.679  0.00  0.00    +0.000 OA
BRANCH  27  28
ATOM     28  C   UNL     1      -0.784  10.276  18.251  0.00  0.00    +0.000 C 
ATOM     29  C   UNL     1      -0.727  11.787  18.452  0.00  0.00    +0.000 C 
ATOM     30  C   UNL     1      -1.898   9.914  17.276  0.00  0.00    +0.000 C 
ENDBRANCH  27  28
ENDBRANCH  25  27
ENDBRANCH  14  25
TORSDOF 6
ENDMDL
MODEL 8
REMARK VINA RESULT:      -7.0      3.460      8.361
REMARK  Name = 
REMARK  9 active torsions:
REMARK  status: ('A' for Active; 'I' for Inactive)
REMARK    1  A    between atoms: C_1  and  C_2
REMARK    2  A    between atoms: C_7  and  N_8
REMARK    3  A    between atoms: N_8  and  S_9
REMARK    4  A    between atoms: S_9  and  C_12
REMARK    5  A    between atoms: C_23  and  C_24
REMARK    6  A    between atoms: C_24  and  O_26
REMARK    7  A    between atoms: O_26  and  C_27
REMARK    8  A    between atoms: C_27  and  C_28
REMARK    9  A    between atoms: C_27  and  C_29
REMARK                            x       y       z     vdW  Elec       q    Type
REMARK                         _______ _______ _______ _____ _____    ______ ____
ROOT
ATOM      1  C   UNL     1       0.684   9.104  21.612  0.00  0.00    +0.000 C 
ATOM      2  C   UNL     1       1.328   8.227  20.608  0.00  0.00    +0.000 A 
ATOM      3  O   UNL     1       1.556   6.955  21.018  0.00  0.00    +0.000 OA
ATOM      4  C   UNL     1       2.152   6.292  19.996  0.00  0.00    +0.000 A 
ATOM      5  C   UNL     1       2.312   7.131  18.898  0.00  0.00    +0.000 A 
ATOM      6  C   UNL     1       2.914   6.584  17.743  0.00  0.00    +0.000 A 
ATOM      7  C   UNL     1       3.329   5.235  17.741  0.00  0.00    +0.000 A 
ATOM      8  C   UNL     1       3.192   4.416  18.887  0.00  0.00    +0.000 A 
ATOM      9  C   UNL     1       3.643   3.080  18.970  0.00  0.00    +0.000 A 
ATOM     10  C   UNL     1       3.451   2.313  20.126  0.00  0.00    +0.000 A 
ATOM     11  C   UNL     1       2.808   2.860  21.233  0.00  0.00    +0.000 A 
ATOM     12  C   UNL     1       2.367   4.179  21.196  0.00  0.00    +0.000 A 
ATOM     13  C   UNL     1       2.566   4.947  20.035  0.00  0.00    +0.000 A 
ATOM     14  C   UNL     1       1.776   8.407  19.304  0.00  0.00    +0.000 A 
ENDROOT
BRANCH   7  15
ATOM     15  N   UNL     1       3.964   4.682  16.578  0.00  0.00    +0.000 N 
ATOM     16  H   UNL     1       3.894   3.669  16.496  0.00  0.00    +0.000 HD
BRANCH  15  17
ATOM     17  S   UNL     1       5.534   5.181  16.191  0.00  0.00    +0.000 S 
ATOM     18  O   UNL     1       5.596   6.624  16.130  0.00  0.00    +0.000 OA
ATOM     19  O   UNL     1       6.397   4.443  17.094  0.00  0.00    +0.000 OA
BRANCH  17  20
ATOM     20  C   UNL     1       5.989   4.578  14.577  0.00  0.00    +0.000 A 
ATOM     21  C   UNL     1       5.353   3.706  13.710  0.00  0.00    +0.000 A 
ATOM     22  C   UNL     1       6.086   3.499  12.507  0.00  0.00    +0.000 A 
ATOM     23  C   UNL     1       7.258   4.220  12.491  0.00  0.00    +0.000 A 
ATOM     24  S   UNL     1       7.483   5.109  13.937  0.00  0.00    +0.000 S 
ENDBRANCH  17  20
ENDBRANCH  15  17
ENDBRANCH   7  15
BRANCH  14  25
ATOM     25  C   UNL     1       1.685   9.671  18.586  0.00  0.00    +0.000 C 
ATOM     26  O   UNL     1       2.109   9.825  17.445  0.00  0.00    +0.000 OA
BRANCH  25  27
ATOM     27  O   UNL     1       1.070  10.648  19.309  0.00  0.00    +0.000 OA
BRANCH  27  28
ATOM     28  C   UNL     1       0.028  11.381  18.636  0.00  0.00    +0.000 C 
ATOM     29  C   UNL     1      -1.310  11.140  19.329  0.00  0.00    +0.000 C 
ATOM     30  C   UNL     1       0.400  12.857  18.702  0.00  0.00    +0.000 C 
ENDBRANCH  27  28
ENDBRANCH  25  27
ENDBRANCH  14  25
TORSDOF 6
ENDMDL
MODEL 9
REMARK VINA RESULT:      -6.8      3.226      5.837
REMARK  Name = 
REMARK  9 active torsions:
REMARK  status: ('A' for Active; 'I' for Inactive)
REMARK    1  A    between atoms: C_1  and  C_2
REMARK    2  A    between atoms: C_7  and  N_8
REMARK    3  A    between atoms: N_8  and  S_9
REMARK    4  A    between atoms: S_9  and  C_12
REMARK    5  A    between atoms: C_23  and  C_24
REMARK    6  A    between atoms: C_24  and  O_26
REMARK    7  A    between atoms: O_26  and  C_27
REMARK    8  A    between atoms: C_27  and  C_28
REMARK    9  A    between atoms: C_27  and  C_29
REMARK                            x       y       z     vdW  Elec       q    Type
REMARK                         _______ _______ _______ _____ _____    ______ ____
ROOT
ATOM      1  C   UNL     1       6.016   3.311  15.479  0.00  0.00    +0.000 C 
ATOM      2  C   UNL     1       5.198   4.158  16.376  0.00  0.00    +0.000 A 
ATOM      3  O   UNL     1       4.387   3.481  17.226  0.00  0.00    +0.000 OA
ATOM      4  C   UNL     1       3.708   4.394  17.964  0.00  0.00    +0.000 A 
ATOM      5  C   UNL     1       4.078   5.685  17.604  0.00  0.00    +0.000 A 
ATOM      6  C   UNL     1       3.462   6.755  18.291  0.00  0.00    +0.000 A 
ATOM      7  C   UNL     1       2.507   6.485  19.295  0.00  0.00    +0.000 A 
ATOM      8  C   UNL     1       2.118   5.162  19.611  0.00  0.00    +0.000 A 
ATOM      9  C   UNL     1       1.125   4.828  20.559  0.00  0.00    +0.000 A 
ATOM     10  C   UNL     1       0.806   3.495  20.847  0.00  0.00    +0.000 A 
ATOM     11  C   UNL     1       1.465   2.458  20.191  0.00  0.00    +0.000 A 
ATOM     12  C   UNL     1       2.435   2.747  19.238  0.00  0.00    +0.000 A 
ATOM     13  C   UNL     1       2.749   4.088  18.948  0.00  0.00    +0.000 A 
ATOM     14  C   UNL     1       5.055   5.530  16.554  0.00  0.00    +0.000 A 
ENDROOT
BRANCH   7  15
ATOM     15  N   UNL     1       1.860   7.569  19.978  0.00  0.00    +0.000 N 
ATOM     16  H   UNL     1       1.099   7.290  20.595  0.00  0.00    +0.000 HD
BRANCH  15  17
ATOM     17  S   UNL     1       1.405   8.937  19.091  0.00  0.00    +0.000 S 
ATOM     18  O   UNL     1       2.575   9.705  18.728  0.00  0.00    +0.000 OA
ATOM     19  O   UNL     1       0.503   8.440  18.070  0.00  0.00    +0.000 OA
BRANCH  17  20
ATOM     20  C   UNL     1       0.379  10.001  20.087  0.00  0.00    +0.000 A 
ATOM     21  C   UNL     1      -0.447  11.058  19.749  0.00  0.00    +0.000 A 
ATOM     22  C   UNL     1      -1.088  11.636  20.882  0.00  0.00    +0.000 A 
ATOM     23  C   UNL     1      -0.731  11.002  22.050  0.00  0.00    +0.000 A 
ATOM     24  S   UNL     1       0.397   9.743  21.778  0.00  0.00    +0.000 S 
ENDBRANCH  17  20
ENDBRANCH  15  17
ENDBRANCH   7  15
BRANCH  14  25
ATOM     25  C   UNL     1       5.781   6.526  15.778  0.00  0.00    +0.000 C 
ATOM     26  O   UNL     1       5.305   7.092  14.801  0.00  0.00    +0.000 OA
BRANCH  25  27
ATOM     27  O   UNL     1       7.031   6.766  16.265  0.00  0.00    +0.000 OA
BRANCH  27  28
ATOM     28  C   UNL     1       7.108   7.243  17.622  0.00  0.00    +0.000 C 
ATOM     29  C   UNL     1       7.810   6.210  18.499  0.00  0.00    +0.000 C 
ATOM     30  C   UNL     1       7.901   8.544  17.599  0.00  0.00    +0.000 C 
ENDBRANCH  27  28
ENDBRANCH  25  27
ENDBRANCH  14  25
TORSDOF 6
ENDMDL
