MODEL 1
REMARK VINA RESULT:      -6.4      0.000      0.000
REMARK  Name = 
REMARK  20 active torsions:
REMARK  status: ('A' for Active; 'I' for Inactive)
REMARK    1  A    between atoms: C_1  and  C_2
REMARK    2  A    between atoms: C_2  and  C_3
REMARK    3  A    between atoms: C_3  and  N_4
REMARK    4  A    between atoms: N_4  and  C_5
REMARK    5  A    between atoms: N_4  and  C_7
REMARK    6  A    between atoms: C_5  and  C_6
REMARK    7  A    between atoms: C_7  and  C_8
REMARK    8  A    between atoms: C_7  and  C_14
REMARK    9  A    between atoms: C_14  and  C_15
REMARK   10  A    between atoms: C_14  and  N_23
REMARK   11  A    between atoms: C_19  and  C_20
REMARK   12  A    between atoms: N_23  and  C_24
REMARK   13  A    between atoms: N_23  and  C_28
REMARK   14  A    between atoms: C_24  and  C_25
REMARK   15  A    between atoms: C_25  and  O_26
REMARK   16  A    between atoms: O_26  and  C_27
REMARK   17  A    between atoms: C_28  and  C_29
REMARK   18  A    between atoms: C_29  and  C_30
REMARK   19  A    between atoms: C_29  and  C_31
REMARK   20  A    between atoms: C_31  and  O_32
REMARK                            x       y       z     vdW  Elec       q    Type
REMARK                         _______ _______ _______ _____ _____    ______ ____
ROOT
ATOM      1  C   UNL     1       2.903   6.037  18.443  0.00  0.00    +0.000 C 
ENDROOT
BRANCH   1   2
ATOM      2  C   UNL     1       2.640   4.850  19.418  0.00  0.00    +0.000 A 
ATOM      3  C   UNL     1       1.383   4.621  20.013  0.00  0.00    +0.000 A 
ATOM      4  C   UNL     1       1.169   3.615  20.955  0.00  0.00    +0.000 A 
ATOM      5  C   UNL     1       2.202   2.767  21.295  0.00  0.00    +0.000 A 
ATOM      6  C   UNL     1       3.457   2.938  20.706  0.00  0.00    +0.000 A 
ATOM      7  C   UNL     1       3.670   3.971  19.777  0.00  0.00    +0.000 A 
BRANCH   6   8
ATOM      8  C   UNL     1       4.526   2.060  21.055  0.00  0.00    +0.000 C 
ATOM      9  N   UNL     1       5.396   1.336  21.342  0.00  0.00    +0.000 NA
ENDBRANCH   6   8
ENDBRANCH   1   2
BRANCH   1  10
ATOM     10  C   UNL     1       4.134   5.656  17.345  0.00  0.00    +0.000 C 
BRANCH  10  11
ATOM     11  C   UNL     1       5.554   6.146  17.836  0.00  0.00    +0.000 A 
ATOM     12  C   UNL     1       6.313   5.562  18.865  0.00  0.00    +0.000 A 
ATOM     13  C   UNL     1       7.627   5.972  19.127  0.00  0.00    +0.000 A 
ATOM     14  C   UNL     1       8.124   7.086  18.488  0.00  0.00    +0.000 A 
ATOM     15  C   UNL     1       7.288   7.710  17.590  0.00  0.00    +0.000 A 
ATOM     16  N   UNL     1       6.075   7.224  17.215  0.00  0.00    +0.000 NA
ENDBRANCH  10  11
BRANCH  10  17
ATOM     17  N   UNL     1       4.104   4.184  16.889  0.00  0.00    +0.000 NA
BRANCH  17  18
ATOM     18  C   UNL     1       2.795   3.577  16.594  0.00  0.00    +0.000 C 
ATOM     19  C   UNL     1       2.625   2.189  17.214  0.00  0.00    +0.000 C 
ENDBRANCH  17  18
BRANCH  17  20
ATOM     20  C   UNL     1       5.130   3.748  15.916  0.00  0.00    +0.000 C 
BRANCH  20  22
ATOM     21  C   UNL     1       6.030   3.756  13.555  0.00  0.00    +0.000 C 
ATOM     22  C   UNL     1       5.563   4.604  14.723  0.00  0.00    +0.000 C 
ENDBRANCH  20  22
ENDBRANCH  17  20
ENDBRANCH  10  17
ENDBRANCH   1  10
BRANCH   1  23
ATOM     23  N   UNL     1       2.563   7.376  19.094  0.00  0.00    +0.000 NA
BRANCH  23  24
ATOM     24  C   UNL     1       1.731   8.254  18.227  0.00  0.00    +0.000 C 
BRANCH  24  25
ATOM     25  C   UNL     1       2.322   9.646  17.896  0.00  0.00    +0.000 C 
BRANCH  25  26
ATOM     26  O   UNL     1       1.541  10.679  18.515  0.00  0.00    +0.000 OA
ATOM     27  C   UNL     1       0.150  10.436  18.330  0.00  0.00    +0.000 C 
ENDBRANCH  25  26
ENDBRANCH  24  25
ENDBRANCH  23  24
BRANCH  23  28
ATOM     28  C   UNL     1       1.956   7.313  20.444  0.00  0.00    +0.000 C 
BRANCH  28  29
ATOM     29  C   UNL     1       1.029   8.412  21.030  0.00  0.00    +0.000 C 
ATOM     30  C   UNL     1       1.743   8.994  22.279  0.00  0.00    +0.000 C 
BRANCH  29  31
ATOM     31  C   UNL     1      -0.378   7.950  21.450  0.00  0.00    +0.000 C 
BRANCH  31  32
ATOM     32  O   UNL     1      -0.807   8.527  22.680  0.00  0.00    +0.000 OA
ATOM     33  H   UNL     1      -0.013   8.809  23.164  0.00  0.00    +0.000 HD
ENDBRANCH  31  32
ENDBRANCH  29  31
ENDBRANCH  28  29
ENDBRANCH  23  28
ENDBRANCH   1  23
TORSDOF 16
ENDMDL
MODEL 2
REMARK VINA RESULT:      -6.3      6.072     10.365
REMARK  Name = 
REMARK  20 active torsions:
REMARK  status: ('A' for Active; 'I' for Inactive)
REMARK    1  A    between atoms: C_1  and  C_2
REMARK    2  A    between atoms: C_2  and  C_3
REMARK    3  A    between atoms: C_3  and  N_4
REMARK    4  A    between atoms: N_4  and  C_5
REMARK    5  A    between atoms: N_4  and  C_7
REMARK    6  A    between atoms: C_5  and  C_6
REMARK    7  A    between atoms: C_7  and  C_8
REMARK    8  A    between atoms: C_7  and  C_14
REMARK    9  A    between atoms: C_14  and  C_15
REMARK   10  A    between atoms: C_14  and  N_23
REMARK   11  A    between atoms: C_19  and  C_20
REMARK   12  A    between atoms: N_23  and  C_24
REMARK   13  A    between atoms: N_23  and  C_28
REMARK   14  A    between atoms: C_24  and  C_25
REMARK   15  A    between atoms: C_25  and  O_26
REMARK   16  A    between atoms: O_26  and  C_27
REMARK   17  A    between atoms: C_28  and  C_29
REMARK   18  A    between atoms: C_29  and  C_30
REMARK   19  A    between atoms: C_29  and  C_31
REMARK   20  A    between atoms: C_31  and  O_32
REMARK                            x       y       z     vdW  Elec       q    Type
REMARK                         _______ _______ _______ _____ _____    ______ ____
ROOT
ATOM      1  C   UNL     1      -1.714  12.120  19.917  0.00  0.00    +0.000 C 
ENDROOT
BRANCH   1   2
ATOM      2  C   UNL     1      -2.795  11.854  18.827  0.00  0.00    +0.000 A 
ATOM      3  C   UNL     1      -4.170  12.068  19.053  0.00  0.00    +0.000 A 
ATOM      4  C   UNL     1      -5.146  11.746  18.111  0.00  0.00    +0.000 A 
ATOM      5  C   UNL     1      -4.770  11.244  16.883  0.00  0.00    +0.000 A 
ATOM      6  C   UNL     1      -3.416  11.046  16.604  0.00  0.00    +0.000 A 
ATOM      7  C   UNL     1      -2.440  11.349  17.570  0.00  0.00    +0.000 A 
BRANCH   6   8
ATOM      8  C   UNL     1      -3.025  10.528  15.333  0.00  0.00    +0.000 C 
ATOM      9  N   UNL     1      -2.700  10.110  14.292  0.00  0.00    +0.000 NA
ENDBRANCH   6   8
ENDBRANCH   1   2
BRANCH   1  10
ATOM     10  C   UNL     1      -1.920  13.648  20.615  0.00  0.00    +0.000 C 
BRANCH  10  11
ATOM     11  C   UNL     1      -2.639  13.578  22.021  0.00  0.00    +0.000 A 
ATOM     12  C   UNL     1      -3.186  14.669  22.717  0.00  0.00    +0.000 A 
ATOM     13  C   UNL     1      -3.937  14.489  23.886  0.00  0.00    +0.000 A 
ATOM     14  C   UNL     1      -3.992  13.240  24.464  0.00  0.00    +0.000 A 
ATOM     15  C   UNL     1      -3.320  12.228  23.817  0.00  0.00    +0.000 A 
ATOM     16  N   UNL     1      -2.725  12.364  22.602  0.00  0.00    +0.000 NA
ENDBRANCH  10  11
BRANCH  10  17
ATOM     17  N   UNL     1      -0.631  14.493  20.613  0.00  0.00    +0.000 NA
BRANCH  17  18
ATOM     18  C   UNL     1      -0.722  15.894  20.168  0.00  0.00    +0.000 C 
ATOM     19  C   UNL     1      -0.431  16.070  18.678  0.00  0.00    +0.000 C 
ENDBRANCH  17  18
BRANCH  17  20
ATOM     20  C   UNL     1       0.280  14.355  21.771  0.00  0.00    +0.000 C 
BRANCH  20  22
ATOM     21  C   UNL     1       2.395  15.691  22.124  0.00  0.00    +0.000 C 
ATOM     22  C   UNL     1       1.805  14.380  21.639  0.00  0.00    +0.000 C 
ENDBRANCH  20  22
ENDBRANCH  17  20
ENDBRANCH  10  17
ENDBRANCH   1  10
BRANCH   1  23
ATOM     23  N   UNL     1      -0.426  11.355  19.619  0.00  0.00    +0.000 NA
BRANCH  23  24
ATOM     24  C   UNL     1       0.539  12.132  18.794  0.00  0.00    +0.000 C 
BRANCH  24  25
ATOM     25  C   UNL     1       1.847  11.404  18.403  0.00  0.00    +0.000 C 
BRANCH  25  26
ATOM     26  O   UNL     1       2.838  12.351  17.979  0.00  0.00    +0.000 OA
ATOM     27  C   UNL     1       2.381  13.684  18.191  0.00  0.00    +0.000 C 
ENDBRANCH  25  26
ENDBRANCH  24  25
ENDBRANCH  23  24
BRANCH  23  28
ATOM     28  C   UNL     1       0.284  10.785  20.788  0.00  0.00    +0.000 C 
BRANCH  28  29
ATOM     29  C   UNL     1      -0.056   9.411  21.423  0.00  0.00    +0.000 C 
ATOM     30  C   UNL     1      -0.324   9.659  22.932  0.00  0.00    +0.000 C 
BRANCH  29  31
ATOM     31  C   UNL     1       1.029   8.326  21.298  0.00  0.00    +0.000 C 
BRANCH  31  32
ATOM     32  O   UNL     1       1.660   8.317  20.021  0.00  0.00    +0.000 OA
ATOM     33  H   UNL     1       1.331   9.086  19.527  0.00  0.00    +0.000 HD
ENDBRANCH  31  32
ENDBRANCH  29  31
ENDBRANCH  28  29
ENDBRANCH  23  28
ENDBRANCH   1  23
TORSDOF 16
ENDMDL
MODEL 3
REMARK VINA RESULT:      -6.3      5.356     10.372
REMARK  Name = 
REMARK  20 active torsions:
REMARK  status: ('A' for Active; 'I' for Inactive)
REMARK    1  A    between atoms: C_1  and  C_2
REMARK    2  A    between atoms: C_2  and  C_3
REMARK    3  A    between atoms: C_3  and  N_4
REMARK    4  A    between atoms: N_4  and  C_5
REMARK    5  A    between atoms: N_4  and  C_7
REMARK    6  A    between atoms: C_5  and  C_6
REMARK    7  A    between atoms: C_7  and  C_8
REMARK    8  A    between atoms: C_7  and  C_14
REMARK    9  A    between atoms: C_14  and  C_15
REMARK   10  A    between atoms: C_14  and  N_23
REMARK   11  A    between atoms: C_19  and  C_20
REMARK   12  A    between atoms: N_23  and  C_24
REMARK   13  A    between atoms: N_23  and  C_28
REMARK   14  A    between atoms: C_24  and  C_25
REMARK   15  A    between atoms: C_25  and  O_26
REMARK   16  A    between atoms: O_26  and  C_27
REMARK   17  A    between atoms: C_28  and  C_29
REMARK   18  A    between atoms: C_29  and  C_30
REMARK   19  A    between atoms: C_29  and  C_31
REMARK   20  A    between atoms: C_31  and  O_32
REMARK                            x       y       z     vdW  Elec       q    Type
REMARK                         _______ _______ _______ _____ _____    ______ ____
ROOT
ATOM      1  C   UNL     1      -1.861  12.094  19.879  0.00  0.00    +0.000 C 
ENDROOT
BRANCH   1   2
ATOM      2  C   UNL     1      -2.908  11.822  18.758  0.00  0.00    +0.000 A 
ATOM      3  C   UNL     1      -4.289  12.035  18.941  0.00  0.00    +0.000 A 
ATOM      4  C   UNL     1      -5.236  11.707  17.971  0.00  0.00    +0.000 A 
ATOM      5  C   UNL     1      -4.822  11.199  16.758  0.00  0.00    +0.000 A 
ATOM      6  C   UNL     1      -3.460  11.001  16.521  0.00  0.00    +0.000 A 
ATOM      7  C   UNL     1      -2.515  11.311  17.515  0.00  0.00    +0.000 A 
BRANCH   6   8
ATOM      8  C   UNL     1      -3.031  10.477  15.266  0.00  0.00    +0.000 C 
ATOM      9  N   UNL     1      -2.674  10.055  14.237  0.00  0.00    +0.000 NA
ENDBRANCH   6   8
ENDBRANCH   1   2
BRANCH   1  10
ATOM     10  C   UNL     1      -1.967  13.690  20.432  0.00  0.00    +0.000 C 
BRANCH  10  11
ATOM     11  C   UNL     1      -2.663  13.795  21.847  0.00  0.00    +0.000 A 
ATOM     12  C   UNL     1      -2.843  12.736  22.753  0.00  0.00    +0.000 A 
ATOM     13  C   UNL     1      -3.335  12.955  24.046  0.00  0.00    +0.000 A 
ATOM     14  C   UNL     1      -3.820  14.201  24.379  0.00  0.00    +0.000 A 
ATOM     15  C   UNL     1      -3.752  15.172  23.406  0.00  0.00    +0.000 A 
ATOM     16  N   UNL     1      -3.131  15.007  22.208  0.00  0.00    +0.000 NA
ENDBRANCH  10  11
BRANCH  10  17
ATOM     17  N   UNL     1      -0.631  14.454  20.335  0.00  0.00    +0.000 NA
BRANCH  17  18
ATOM     18  C   UNL     1      -0.640  15.787  19.710  0.00  0.00    +0.000 C 
ATOM     19  C   UNL     1      -0.537  16.926  20.726  0.00  0.00    +0.000 C 
ENDBRANCH  17  18
BRANCH  17  20
ATOM     20  C   UNL     1       0.265  14.418  21.512  0.00  0.00    +0.000 C 
BRANCH  20  22
ATOM     21  C   UNL     1       2.621  15.250  21.886  0.00  0.00    +0.000 C 
ATOM     22  C   UNL     1       1.758  14.095  21.413  0.00  0.00    +0.000 C 
ENDBRANCH  20  22
ENDBRANCH  17  20
ENDBRANCH  10  17
ENDBRANCH   1  10
BRANCH   1  23
ATOM     23  N   UNL     1      -0.631  11.202  19.718  0.00  0.00    +0.000 NA
BRANCH  23  24
ATOM     24  C   UNL     1       0.371  11.754  18.767  0.00  0.00    +0.000 C 
BRANCH  24  25
ATOM     25  C   UNL     1       1.566  10.832  18.420  0.00  0.00    +0.000 C 
BRANCH  25  26
ATOM     26  O   UNL     1       1.095   9.555  17.966  0.00  0.00    +0.000 OA
ATOM     27  C   UNL     1       2.185   8.659  17.771  0.00  0.00    +0.000 C 
ENDBRANCH  25  26
ENDBRANCH  24  25
ENDBRANCH  23  24
BRANCH  23  28
ATOM     28  C   UNL     1       0.055  10.800  20.968  0.00  0.00    +0.000 C 
BRANCH  28  29
ATOM     29  C   UNL     1       0.068   9.350  21.522  0.00  0.00    +0.000 C 
ATOM     30  C   UNL     1      -0.557   9.399  22.942  0.00  0.00    +0.000 C 
BRANCH  29  31
ATOM     31  C   UNL     1       1.451   8.683  21.626  0.00  0.00    +0.000 C 
BRANCH  31  32
ATOM     32  O   UNL     1       1.474   7.366  21.083  0.00  0.00    +0.000 OA
ATOM     33  H   UNL     1       1.217   6.753  21.791  0.00  0.00    +0.000 HD
ENDBRANCH  31  32
ENDBRANCH  29  31
ENDBRANCH  28  29
ENDBRANCH  23  28
ENDBRANCH   1  23
TORSDOF 16
ENDMDL
MODEL 4
REMARK VINA RESULT:      -6.1      5.626      9.341
REMARK  Name = 
REMARK  20 active torsions:
REMARK  status: ('A' for Active; 'I' for Inactive)
REMARK    1  A    between atoms: C_1  and  C_2
REMARK    2  A    between atoms: C_2  and  C_3
REMARK    3  A    between atoms: C_3  and  N_4
REMARK    4  A    between atoms: N_4  and  C_5
REMARK    5  A    between atoms: N_4  and  C_7
REMARK    6  A    between atoms: C_5  and  C_6
REMARK    7  A    between atoms: C_7  and  C_8
REMARK    8  A    between atoms: C_7  and  C_14
REMARK    9  A    between atoms: C_14  and  C_15
REMARK   10  A    between atoms: C_14  and  N_23
REMARK   11  A    between atoms: C_19  and  C_20
REMARK   12  A    between atoms: N_23  and  C_24
REMARK   13  A    between atoms: N_23  and  C_28
REMARK   14  A    between atoms: C_24  and  C_25
REMARK   15  A    between atoms: C_25  and  O_26
REMARK   16  A    between atoms: O_26  and  C_27
REMARK   17  A    between atoms: C_28  and  C_29
REMARK   18  A    between atoms: C_29  and  C_30
REMARK   19  A    between atoms: C_29  and  C_31
REMARK   20  A    between atoms: C_31  and  O_32
REMARK                            x       y       z     vdW  Elec       q    Type
REMARK                         _______ _______ _______ _____ _____    ______ ____
ROOT
ATOM      1  C   UNL     1      -0.827  12.792  20.106  0.00  0.00    +0.000 C 
ENDROOT
BRANCH   1   2
ATOM      2  C   UNL     1      -0.619  11.557  21.034  0.00  0.00    +0.000 A 
ATOM      3  C   UNL     1      -1.136  11.496  22.343  0.00  0.00    +0.000 A 
ATOM      4  C   UNL     1      -0.875  10.432  23.205  0.00  0.00    +0.000 A 
ATOM      5  C   UNL     1      -0.125   9.363  22.763  0.00  0.00    +0.000 A 
ATOM      6  C   UNL     1       0.381   9.367  21.461  0.00  0.00    +0.000 A 
ATOM      7  C   UNL     1       0.134  10.456  20.607  0.00  0.00    +0.000 A 
BRANCH   6   8
ATOM      8  C   UNL     1       1.155   8.260  21.001  0.00  0.00    +0.000 C 
ATOM      9  N   UNL     1       1.786   7.355  20.617  0.00  0.00    +0.000 NA
ENDBRANCH   6   8
ENDBRANCH   1   2
BRANCH   1  10
ATOM     10  C   UNL     1      -0.233  14.201  20.830  0.00  0.00    +0.000 C 
BRANCH  10  11
ATOM     11  C   UNL     1       1.347  14.271  20.810  0.00  0.00    +0.000 A 
ATOM     12  C   UNL     1       2.166  13.976  19.708  0.00  0.00    +0.000 A 
ATOM     13  C   UNL     1       3.547  14.213  19.739  0.00  0.00    +0.000 A 
ATOM     14  C   UNL     1       4.140  14.572  20.929  0.00  0.00    +0.000 A 
ATOM     15  C   UNL     1       3.311  14.712  22.018  0.00  0.00    +0.000 A 
ATOM     16  N   UNL     1       1.955  14.639  21.957  0.00  0.00    +0.000 NA
ENDBRANCH  10  11
BRANCH  10  17
ATOM     17  N   UNL     1      -0.922  15.482  20.319  0.00  0.00    +0.000 NA
BRANCH  17  18
ATOM     18  C   UNL     1      -1.145  16.578  21.277  0.00  0.00    +0.000 C 
ATOM     19  C   UNL     1      -1.294  16.091  22.719  0.00  0.00    +0.000 C 
ENDBRANCH  17  18
BRANCH  17  20
ATOM     20  C   UNL     1      -0.507  16.000  18.996  0.00  0.00    +0.000 C 
BRANCH  20  22
ATOM     21  C   UNL     1       0.049  17.945  17.482  0.00  0.00    +0.000 C 
ATOM     22  C   UNL     1      -0.956  17.360  18.457  0.00  0.00    +0.000 C 
ENDBRANCH  20  22
ENDBRANCH  17  20
ENDBRANCH  10  17
ENDBRANCH   1  10
BRANCH   1  23
ATOM     23  N   UNL     1      -2.041  12.605  19.198  0.00  0.00    +0.000 NA
BRANCH  23  24
ATOM     24  C   UNL     1      -1.753  11.771  17.999  0.00  0.00    +0.000 C 
BRANCH  24  25
ATOM     25  C   UNL     1      -2.790  10.671  17.665  0.00  0.00    +0.000 C 
BRANCH  25  26
ATOM     26  O   UNL     1      -3.587  11.063  16.538  0.00  0.00    +0.000 OA
ATOM     27  C   UNL     1      -2.921  10.749  15.319  0.00  0.00    +0.000 C 
ENDBRANCH  25  26
ENDBRANCH  24  25
ENDBRANCH  23  24
BRANCH  23  28
ATOM     28  C   UNL     1      -3.276  12.108  19.848  0.00  0.00    +0.000 C 
BRANCH  28  29
ATOM     29  C   UNL     1      -4.469  13.015  20.251  0.00  0.00    +0.000 C 
ATOM     30  C   UNL     1      -4.124  13.639  21.630  0.00  0.00    +0.000 C 
BRANCH  29  31
ATOM     31  C   UNL     1      -5.836  12.316  20.366  0.00  0.00    +0.000 C 
BRANCH  31  32
ATOM     32  O   UNL     1      -6.133  11.895  21.694  0.00  0.00    +0.000 OA
ATOM     33  H   UNL     1      -7.099  11.851  21.778  0.00  0.00    +0.000 HD
ENDBRANCH  31  32
ENDBRANCH  29  31
ENDBRANCH  28  29
ENDBRANCH  23  28
ENDBRANCH   1  23
TORSDOF 16
ENDMDL
MODEL 5
REMARK VINA RESULT:      -6.1      6.914     10.461
REMARK  Name = 
REMARK  20 active torsions:
REMARK  status: ('A' for Active; 'I' for Inactive)
REMARK    1  A    between atoms: C_1  and  C_2
REMARK    2  A    between atoms: C_2  and  C_3
REMARK    3  A    between atoms: C_3  and  N_4
REMARK    4  A    between atoms: N_4  and  C_5
REMARK    5  A    between atoms: N_4  and  C_7
REMARK    6  A    between atoms: C_5  and  C_6
REMARK    7  A    between atoms: C_7  and  C_8
REMARK    8  A    between atoms: C_7  and  C_14
REMARK    9  A    between atoms: C_14  and  C_15
REMARK   10  A    between atoms: C_14  and  N_23
REMARK   11  A    between atoms: C_19  and  C_20
REMARK   12  A    between atoms: N_23  and  C_24
REMARK   13  A    between atoms: N_23  and  C_28
REMARK   14  A    between atoms: C_24  and  C_25
REMARK   15  A    between atoms: C_25  and  O_26
REMARK   16  A    between atoms: O_26  and  C_27
REMARK   17  A    between atoms: C_28  and  C_29
REMARK   18  A    between atoms: C_29  and  C_30
REMARK   19  A    between atoms: C_29  and  C_31
REMARK   20  A    between atoms: C_31  and  O_32
REMARK                            x       y       z     vdW  Elec       q    Type
REMARK                         _______ _______ _______ _____ _____    ______ ____
ROOT
ATOM      1  C   UNL     1      -1.782  13.291  20.492  0.00  0.00    +0.000 C 
ENDROOT
BRANCH   1   2
ATOM      2  C   UNL     1      -2.688  13.201  21.757  0.00  0.00    +0.000 A 
ATOM      3  C   UNL     1      -2.475  12.253  22.778  0.00  0.00    +0.000 A 
ATOM      4  C   UNL     1      -3.338  12.112  23.865  0.00  0.00    +0.000 A 
ATOM      5  C   UNL     1      -4.420  12.956  23.991  0.00  0.00    +0.000 A 
ATOM      6  C   UNL     1      -4.652  13.932  23.019  0.00  0.00    +0.000 A 
ATOM      7  C   UNL     1      -3.792  14.050  21.913  0.00  0.00    +0.000 A 
BRANCH   6   8
ATOM      8  C   UNL     1      -5.770  14.808  23.150  0.00  0.00    +0.000 C 
ATOM      9  N   UNL     1      -6.682  15.531  23.254  0.00  0.00    +0.000 NA
ENDBRANCH   6   8
ENDBRANCH   1   2
BRANCH   1  10
ATOM     10  C   UNL     1      -1.301  11.751  19.982  0.00  0.00    +0.000 C 
BRANCH  10  11
ATOM     11  C   UNL     1      -2.089  11.265  18.701  0.00  0.00    +0.000 A 
ATOM     12  C   UNL     1      -1.697  10.223  17.843  0.00  0.00    +0.000 A 
ATOM     13  C   UNL     1      -2.536   9.763  16.820  0.00  0.00    +0.000 A 
ATOM     14  C   UNL     1      -3.688  10.459  16.532  0.00  0.00    +0.000 A 
ATOM     15  C   UNL     1      -3.958  11.561  17.312  0.00  0.00    +0.000 A 
ATOM     16  N   UNL     1      -3.232  11.916  18.405  0.00  0.00    +0.000 NA
ENDBRANCH  10  11
BRANCH  10  17
ATOM     17  N   UNL     1       0.230  11.601  19.869  0.00  0.00    +0.000 NA
BRANCH  17  18
ATOM     18  C   UNL     1       0.858  10.422  20.487  0.00  0.00    +0.000 C 
ATOM     19  C   UNL     1      -0.096   9.641  21.393  0.00  0.00    +0.000 C 
ENDBRANCH  17  18
BRANCH  17  20
ATOM     20  C   UNL     1       0.854  11.922  18.566  0.00  0.00    +0.000 C 
BRANCH  20  22
ATOM     21  C   UNL     1       2.750  13.585  18.410  0.00  0.00    +0.000 C 
ATOM     22  C   UNL     1       2.362  12.118  18.391  0.00  0.00    +0.000 C 
ENDBRANCH  20  22
ENDBRANCH  17  20
ENDBRANCH  10  17
ENDBRANCH   1  10
BRANCH   1  23
ATOM     23  N   UNL     1      -1.014  14.611  20.453  0.00  0.00    +0.000 NA
BRANCH  23  24
ATOM     24  C   UNL     1       0.086  14.678  21.453  0.00  0.00    +0.000 C 
BRANCH  24  25
ATOM     25  C   UNL     1      -0.122  15.654  22.636  0.00  0.00    +0.000 C 
BRANCH  25  26
ATOM     26  O   UNL     1      -0.392  14.926  23.842  0.00  0.00    +0.000 OA
ATOM     27  C   UNL     1      -1.506  15.489  24.529  0.00  0.00    +0.000 C 
ENDBRANCH  25  26
ENDBRANCH  24  25
ENDBRANCH  23  24
BRANCH  23  28
ATOM     28  C   UNL     1      -0.493  15.027  19.130  0.00  0.00    +0.000 C 
BRANCH  28  29
ATOM     29  C   UNL     1      -0.546  16.483  18.597  0.00  0.00    +0.000 C 
ATOM     30  C   UNL     1       0.894  17.054  18.683  0.00  0.00    +0.000 C 
BRANCH  29  31
ATOM     31  C   UNL     1      -1.490  17.440  19.348  0.00  0.00    +0.000 C 
BRANCH  31  32
ATOM     32  O   UNL     1      -2.787  16.889  19.557  0.00  0.00    +0.000 OA
ATOM     33  H   UNL     1      -3.189  16.749  18.685  0.00  0.00    +0.000 HD
ENDBRANCH  31  32
ENDBRANCH  29  31
ENDBRANCH  28  29
ENDBRANCH  23  28
ENDBRANCH   1  23
TORSDOF 16
ENDMDL
MODEL 6
REMARK VINA RESULT:      -6.0      5.017      9.673
REMARK  Name = 
REMARK  20 active torsions:
REMARK  status: ('A' for Active; 'I' for Inactive)
REMARK    1  A    between atoms: C_1  and  C_2
REMARK    2  A    between atoms: C_2  and  C_3
REMARK    3  A    between atoms: C_3  and  N_4
REMARK    4  A    between atoms: N_4  and  C_5
REMARK    5  A    between atoms: N_4  and  C_7
REMARK    6  A    between atoms: C_5  and  C_6
REMARK    7  A    between atoms: C_7  and  C_8
REMARK    8  A    between atoms: C_7  and  C_14
REMARK    9  A    between atoms: C_14  and  C_15
REMARK   10  A    between atoms: C_14  and  N_23
REMARK   11  A    between atoms: C_19  and  C_20
REMARK   12  A    between atoms: N_23  and  C_24
REMARK   13  A    between atoms: N_23  and  C_28
REMARK   14  A    between atoms: C_24  and  C_25
REMARK   15  A    between atoms: C_25  and  O_26
REMARK   16  A    between atoms: O_26  and  C_27
REMARK   17  A    between atoms: C_28  and  C_29
REMARK   18  A    between atoms: C_29  and  C_30
REMARK   19  A    between atoms: C_29  and  C_31
REMARK   20  A    between atoms: C_31  and  O_32
REMARK                            x       y       z     vdW  Elec       q    Type
REMARK                         _______ _______ _______ _____ _____    ______ ____
ROOT
ATOM      1  C   UNL     1      -0.740  12.239  20.417  0.00  0.00    +0.000 C 
ENDROOT
BRANCH   1   2
ATOM      2  C   UNL     1      -0.027  10.854  20.466  0.00  0.00    +0.000 A 
ATOM      3  C   UNL     1      -0.011  10.049  21.623  0.00  0.00    +0.000 A 
ATOM      4  C   UNL     1       0.703   8.853  21.696  0.00  0.00    +0.000 A 
ATOM      5  C   UNL     1       1.385   8.396  20.590  0.00  0.00    +0.000 A 
ATOM      6  C   UNL     1       1.369   9.146  19.411  0.00  0.00    +0.000 A 
ATOM      7  C   UNL     1       0.669  10.364  19.354  0.00  0.00    +0.000 A 
BRANCH   6   8
ATOM      8  C   UNL     1       2.074   8.673  18.264  0.00  0.00    +0.000 C 
ATOM      9  N   UNL     1       2.649   8.293  17.321  0.00  0.00    +0.000 NA
ENDBRANCH   6   8
ENDBRANCH   1   2
BRANCH   1  10
ATOM     10  C   UNL     1      -2.418  12.061  20.554  0.00  0.00    +0.000 C 
BRANCH  10  11
ATOM     11  C   UNL     1      -3.023  12.924  21.732  0.00  0.00    +0.000 A 
ATOM     12  C   UNL     1      -3.024  14.328  21.803  0.00  0.00    +0.000 A 
ATOM     13  C   UNL     1      -3.718  15.008  22.812  0.00  0.00    +0.000 A 
ATOM     14  C   UNL     1      -4.260  14.291  23.856  0.00  0.00    +0.000 A 
ATOM     15  C   UNL     1      -4.110  12.924  23.812  0.00  0.00    +0.000 A 
ATOM     16  N   UNL     1      -3.578  12.249  22.759  0.00  0.00    +0.000 NA
ENDBRANCH  10  11
BRANCH  10  17
ATOM     17  N   UNL     1      -3.156  12.231  19.211  0.00  0.00    +0.000 NA
BRANCH  17  18
ATOM     18  C   UNL     1      -2.625  11.522  18.035  0.00  0.00    +0.000 C 
ATOM     19  C   UNL     1      -2.788  10.004  18.125  0.00  0.00    +0.000 C 
ENDBRANCH  17  18
BRANCH  17  20
ATOM     20  C   UNL     1      -4.636  12.200  19.235  0.00  0.00    +0.000 C 
BRANCH  20  22
ATOM     21  C   UNL     1      -6.717  11.376  18.064  0.00  0.00    +0.000 C 
ATOM     22  C   UNL     1      -5.491  12.264  17.967  0.00  0.00    +0.000 C 
ENDBRANCH  20  22
ENDBRANCH  17  20
ENDBRANCH  10  17
ENDBRANCH   1  10
BRANCH   1  23
ATOM     23  N   UNL     1       0.066  13.249  19.602  0.00  0.00    +0.000 NA
BRANCH  23  24
ATOM     24  C   UNL     1      -0.764  14.362  19.065  0.00  0.00    +0.000 C 
BRANCH  24  25
ATOM     25  C   UNL     1      -0.114  15.767  19.077  0.00  0.00    +0.000 C 
BRANCH  25  26
ATOM     26  O   UNL     1      -0.870  16.659  19.909  0.00  0.00    +0.000 OA
ATOM     27  C   UNL     1      -0.106  17.819  20.226  0.00  0.00    +0.000 C 
ENDBRANCH  25  26
ENDBRANCH  24  25
ENDBRANCH  23  24
BRANCH  23  28
ATOM     28  C   UNL     1       1.267  13.814  20.261  0.00  0.00    +0.000 C 
BRANCH  28  29
ATOM     29  C   UNL     1       2.722  13.516  19.811  0.00  0.00    +0.000 C 
ATOM     30  C   UNL     1       3.655  14.437  20.642  0.00  0.00    +0.000 C 
BRANCH  29  31
ATOM     31  C   UNL     1       3.024  13.744  18.319  0.00  0.00    +0.000 C 
BRANCH  31  32
ATOM     32  O   UNL     1       2.290  12.872  17.465  0.00  0.00    +0.000 OA
ATOM     33  H   UNL     1       1.914  13.410  16.749  0.00  0.00    +0.000 HD
ENDBRANCH  31  32
ENDBRANCH  29  31
ENDBRANCH  28  29
ENDBRANCH  23  28
ENDBRANCH   1  23
TORSDOF 16
ENDMDL
MODEL 7
REMARK VINA RESULT:      -6.0      7.535     10.511
REMARK  Name = 
REMARK  20 active torsions:
REMARK  status: ('A' for Active; 'I' for Inactive)
REMARK    1  A    between atoms: C_1  and  C_2
REMARK    2  A    between atoms: C_2  and  C_3
REMARK    3  A    between atoms: C_3  and  N_4
REMARK    4  A    between atoms: N_4  and  C_5
REMARK    5  A    between atoms: N_4  and  C_7
REMARK    6  A    between atoms: C_5  and  C_6
REMARK    7  A    between atoms: C_7  and  C_8
REMARK    8  A    between atoms: C_7  and  C_14
REMARK    9  A    between atoms: C_14  and  C_15
REMARK   10  A    between atoms: C_14  and  N_23
REMARK   11  A    between atoms: C_19  and  C_20
REMARK   12  A    between atoms: N_23  and  C_24
REMARK   13  A    between atoms: N_23  and  C_28
REMARK   14  A    between atoms: C_24  and  C_25
REMARK   15  A    between atoms: C_25  and  O_26
REMARK   16  A    between atoms: O_26  and  C_27
REMARK   17  A    between atoms: C_28  and  C_29
REMARK   18  A    between atoms: C_29  and  C_30
REMARK   19  A    between atoms: C_29  and  C_31
REMARK   20  A    between atoms: C_31  and  O_32
REMARK                            x       y       z     vdW  Elec       q    Type
REMARK                         _______ _______ _______ _____ _____    ______ ____
ROOT
ATOM      1  C   UNL     1      -2.475  12.434  19.777  0.00  0.00    +0.000 C 
ENDROOT
BRANCH   1   2
ATOM      2  C   UNL     1      -3.455  13.101  20.789  0.00  0.00    +0.000 A 
ATOM      3  C   UNL     1      -4.221  14.239  20.467  0.00  0.00    +0.000 A 
ATOM      4  C   UNL     1      -5.029  14.890  21.398  0.00  0.00    +0.000 A 
ATOM      5  C   UNL     1      -5.137  14.388  22.677  0.00  0.00    +0.000 A 
ATOM      6  C   UNL     1      -4.421  13.242  23.031  0.00  0.00    +0.000 A 
ATOM      7  C   UNL     1      -3.588  12.607  22.093  0.00  0.00    +0.000 A 
BRANCH   6   8
ATOM      8  C   UNL     1      -4.534  12.720  24.354  0.00  0.00    +0.000 C 
ATOM      9  N   UNL     1      -4.618  12.294  25.439  0.00  0.00    +0.000 NA
ENDBRANCH   6   8
ENDBRANCH   1   2
BRANCH   1  10
ATOM     10  C   UNL     1      -0.903  13.031  19.974  0.00  0.00    +0.000 C 
BRANCH  10  11
ATOM     11  C   UNL     1      -0.883  14.491  20.578  0.00  0.00    +0.000 A 
ATOM     12  C   UNL     1      -0.746  14.814  21.939  0.00  0.00    +0.000 A 
ATOM     13  C   UNL     1      -0.585  16.139  22.363  0.00  0.00    +0.000 A 
ATOM     14  C   UNL     1      -0.743  17.161  21.453  0.00  0.00    +0.000 A 
ATOM     15  C   UNL     1      -1.017  16.796  20.154  0.00  0.00    +0.000 A 
ATOM     16  N   UNL     1      -1.016  15.513  19.707  0.00  0.00    +0.000 NA
ENDBRANCH  10  11
BRANCH  10  17
ATOM     17  N   UNL     1       0.033  12.042  20.697  0.00  0.00    +0.000 NA
BRANCH  17  18
ATOM     18  C   UNL     1      -0.527  10.751  21.134  0.00  0.00    +0.000 C 
ATOM     19  C   UNL     1      -0.552  10.593  22.654  0.00  0.00    +0.000 C 
ENDBRANCH  17  18
BRANCH  17  20
ATOM     20  C   UNL     1       1.403  11.880  20.161  0.00  0.00    +0.000 C 
BRANCH  20  22
ATOM     21  C   UNL     1       2.488  13.330  18.399  0.00  0.00    +0.000 C 
ATOM     22  C   UNL     1       1.741  12.039  18.677  0.00  0.00    +0.000 C 
ENDBRANCH  20  22
ENDBRANCH  17  20
ENDBRANCH  10  17
ENDBRANCH   1  10
BRANCH   1  23
ATOM     23  N   UNL     1      -3.199  12.010  18.501  0.00  0.00    +0.000 NA
BRANCH  23  24
ATOM     24  C   UNL     1      -2.284  11.464  17.462  0.00  0.00    +0.000 C 
BRANCH  24  25
ATOM     25  C   UNL     1      -2.890  10.417  16.496  0.00  0.00    +0.000 C 
BRANCH  25  26
ATOM     26  O   UNL     1      -3.386  11.060  15.313  0.00  0.00    +0.000 OA
ATOM     27  C   UNL     1      -3.446  10.137  14.229  0.00  0.00    +0.000 C 
ENDBRANCH  25  26
ENDBRANCH  24  25
ENDBRANCH  23  24
BRANCH  23  28
ATOM     28  C   UNL     1      -4.343  11.084  18.674  0.00  0.00    +0.000 C 
BRANCH  28  29
ATOM     29  C   UNL     1      -5.828  11.533  18.681  0.00  0.00    +0.000 C 
ATOM     30  C   UNL     1      -6.686  10.273  18.973  0.00  0.00    +0.000 C 
BRANCH  29  31
ATOM     31  C   UNL     1      -6.342  12.175  17.380  0.00  0.00    +0.000 C 
BRANCH  31  32
ATOM     32  O   UNL     1      -5.350  12.948  16.712  0.00  0.00    +0.000 OA
ATOM     33  H   UNL     1      -4.844  12.346  16.142  0.00  0.00    +0.000 HD
ENDBRANCH  31  32
ENDBRANCH  29  31
ENDBRANCH  28  29
ENDBRANCH  23  28
ENDBRANCH   1  23
TORSDOF 16
ENDMDL
MODEL 8
REMARK VINA RESULT:      -6.0      5.953      9.120
REMARK  Name = 
REMARK  20 active torsions:
REMARK  status: ('A' for Active; 'I' for Inactive)
REMARK    1  A    between atoms: C_1  and  C_2
REMARK    2  A    between atoms: C_2  and  C_3
REMARK    3  A    between atoms: C_3  and  N_4
REMARK    4  A    between atoms: N_4  and  C_5
REMARK    5  A    between atoms: N_4  and  C_7
REMARK    6  A    between atoms: C_5  and  C_6
REMARK    7  A    between atoms: C_7  and  C_8
REMARK    8  A    between atoms: C_7  and  C_14
REMARK    9  A    between atoms: C_14  and  C_15
REMARK   10  A    between atoms: C_14  and  N_23
REMARK   11  A    between atoms: C_19  and  C_20
REMARK   12  A    between atoms: N_23  and  C_24
REMARK   13  A    between atoms: N_23  and  C_28
REMARK   14  A    between atoms: C_24  and  C_25
REMARK   15  A    between atoms: C_25  and  O_26
REMARK   16  A    between atoms: O_26  and  C_27
REMARK   17  A    between atoms: C_28  and  C_29
REMARK   18  A    between atoms: C_29  and  C_30
REMARK   19  A    between atoms: C_29  and  C_31
REMARK   20  A    between atoms: C_31  and  O_32
REMARK                            x       y       z     vdW  Elec       q    Type
REMARK                         _______ _______ _______ _____ _____    ______ ____
ROOT
ATOM      1  C   UNL     1      -1.364  12.786  19.506  0.00  0.00    +0.000 C 
ENDROOT
BRANCH   1   2
ATOM      2  C   UNL     1      -2.498  12.150  18.648  0.00  0.00    +0.000 A 
ATOM      3  C   UNL     1      -3.823  12.026  19.112  0.00  0.00    +0.000 A 
ATOM      4  C   UNL     1      -4.818  11.376  18.382  0.00  0.00    +0.000 A 
ATOM      5  C   UNL     1      -4.529  10.872  17.133  0.00  0.00    +0.000 A 
ATOM      6  C   UNL     1      -3.236  11.001  16.619  0.00  0.00    +0.000 A 
ATOM      7  C   UNL     1      -2.233  11.634  17.372  0.00  0.00    +0.000 A 
BRANCH   6   8
ATOM      8  C   UNL     1      -2.936  10.481  15.324  0.00  0.00    +0.000 C 
ATOM      9  N   UNL     1      -2.696  10.060  14.262  0.00  0.00    +0.000 NA
ENDBRANCH   6   8
ENDBRANCH   1   2
BRANCH   1  10
ATOM     10  C   UNL     1       0.118  12.024  19.210  0.00  0.00    +0.000 C 
BRANCH  10  11
ATOM     11  C   UNL     1       1.352  12.959  19.530  0.00  0.00    +0.000 A 
ATOM     12  C   UNL     1       1.706  13.444  20.800  0.00  0.00    +0.000 A 
ATOM     13  C   UNL     1       2.903  14.141  21.010  0.00  0.00    +0.000 A 
ATOM     14  C   UNL     1       3.662  14.515  19.923  0.00  0.00    +0.000 A 
ATOM     15  C   UNL     1       3.198  14.137  18.683  0.00  0.00    +0.000 A 
ATOM     16  N   UNL     1       2.125  13.326  18.487  0.00  0.00    +0.000 NA
ENDBRANCH  10  11
BRANCH  10  17
ATOM     17  N   UNL     1       0.215  10.622  19.843  0.00  0.00    +0.000 NA
BRANCH  17  18
ATOM     18  C   UNL     1       0.386   9.467  18.946  0.00  0.00    +0.000 C 
ATOM     19  C   UNL     1       1.610   9.590  18.037  0.00  0.00    +0.000 C 
ENDBRANCH  17  18
BRANCH  17  20
ATOM     20  C   UNL     1       1.038  10.479  21.066  0.00  0.00    +0.000 C 
BRANCH  20  22
ATOM     21  C   UNL     1      -0.195   9.310  22.936  0.00  0.00    +0.000 C 
ATOM     22  C   UNL     1       0.975   9.247  21.972  0.00  0.00    +0.000 C 
ENDBRANCH  20  22
ENDBRANCH  17  20
ENDBRANCH  10  17
ENDBRANCH   1  10
BRANCH   1  23
ATOM     23  N   UNL     1      -1.913  13.370  20.806  0.00  0.00    +0.000 NA
BRANCH  23  24
ATOM     24  C   UNL     1      -1.748  12.459  21.972  0.00  0.00    +0.000 C 
BRANCH  24  25
ATOM     25  C   UNL     1      -2.762  12.636  23.128  0.00  0.00    +0.000 C 
BRANCH  25  26
ATOM     26  O   UNL     1      -4.090  12.330  22.679  0.00  0.00    +0.000 OA
ATOM     27  C   UNL     1      -5.059  12.961  23.510  0.00  0.00    +0.000 C 
ENDBRANCH  25  26
ENDBRANCH  24  25
ENDBRANCH  23  24
BRANCH  23  28
ATOM     28  C   UNL     1      -1.429  14.721  21.175  0.00  0.00    +0.000 C 
BRANCH  28  29
ATOM     29  C   UNL     1      -2.355  15.950  21.367  0.00  0.00    +0.000 C 
ATOM     30  C   UNL     1      -1.995  16.584  22.738  0.00  0.00    +0.000 C 
BRANCH  29  31
ATOM     31  C   UNL     1      -3.867  15.661  21.352  0.00  0.00    +0.000 C 
BRANCH  31  32
ATOM     32  O   UNL     1      -4.327  15.176  20.094  0.00  0.00    +0.000 OA
ATOM     33  H   UNL     1      -3.594  14.690  19.682  0.00  0.00    +0.000 HD
ENDBRANCH  31  32
ENDBRANCH  29  31
ENDBRANCH  28  29
ENDBRANCH  23  28
ENDBRANCH   1  23
TORSDOF 16
ENDMDL
MODEL 9
REMARK VINA RESULT:      -6.0      4.550      9.760
REMARK  Name = 
REMARK  20 active torsions:
REMARK  status: ('A' for Active; 'I' for Inactive)
REMARK    1  A    between atoms: C_1  and  C_2
REMARK    2  A    between atoms: C_2  and  C_3
REMARK    3  A    between atoms: C_3  and  N_4
REMARK    4  A    between atoms: N_4  and  C_5
REMARK    5  A    between atoms: N_4  and  C_7
REMARK    6  A    between atoms: C_5  and  C_6
REMARK    7  A    between atoms: C_7  and  C_8
REMARK    8  A    between atoms: C_7  and  C_14
REMARK    9  A    between atoms: C_14  and  C_15
REMARK   10  A    between atoms: C_14  and  N_23
REMARK   11  A    between atoms: C_19  and  C_20
REMARK   12  A    between atoms: N_23  and  C_24
REMARK   13  A    between atoms: N_23  and  C_28
REMARK   14  A    between atoms: C_24  and  C_25
REMARK   15  A    between atoms: C_25  and  O_26
REMARK   16  A    between atoms: O_26  and  C_27
REMARK   17  A    between atoms: C_28  and  C_29
REMARK   18  A    between atoms: C_29  and  C_30
REMARK   19  A    between atoms: C_29  and  C_31
REMARK   20  A    between atoms: C_31  and  O_32
REMARK                            x       y       z     vdW  Elec       q    Type
REMARK                         _______ _______ _______ _____ _____    ______ ____
ROOT
ATOM      1  C   UNL     1      -0.463  11.579  19.366  0.00  0.00    +0.000 C 
ENDROOT
BRANCH   1   2
ATOM      2  C   UNL     1       0.304  12.929  19.490  0.00  0.00    +0.000 A 
ATOM      3  C   UNL     1       0.187  13.959  18.536  0.00  0.00    +0.000 A 
ATOM      4  C   UNL     1       0.942  15.131  18.598  0.00  0.00    +0.000 A 
ATOM      5  C   UNL     1       1.805  15.331  19.653  0.00  0.00    +0.000 A 
ATOM      6  C   UNL     1       1.929  14.350  20.640  0.00  0.00    +0.000 A 
ATOM      7  C   UNL     1       1.184  13.161  20.555  0.00  0.00    +0.000 A 
BRANCH   6   8
ATOM      8  C   UNL     1       2.821  14.558  21.734  0.00  0.00    +0.000 C 
ATOM      9  N   UNL     1       3.556  14.723  22.626  0.00  0.00    +0.000 NA
ENDBRANCH   6   8
ENDBRANCH   1   2
BRANCH   1  10
ATOM     10  C   UNL     1      -2.067  11.744  19.881  0.00  0.00    +0.000 C 
BRANCH  10  11
ATOM     11  C   UNL     1      -2.217  12.778  21.067  0.00  0.00    +0.000 A 
ATOM     12  C   UNL     1      -2.639  14.112  20.943  0.00  0.00    +0.000 A 
ATOM     13  C   UNL     1      -2.888  14.908  22.069  0.00  0.00    +0.000 A 
ATOM     14  C   UNL     1      -2.542  14.436  23.316  0.00  0.00    +0.000 A 
ATOM     15  C   UNL     1      -1.999  13.172  23.371  0.00  0.00    +0.000 A 
ATOM     16  N   UNL     1      -1.904  12.337  22.303  0.00  0.00    +0.000 NA
ENDBRANCH  10  11
BRANCH  10  17
ATOM     17  N   UNL     1      -3.055  11.977  18.720  0.00  0.00    +0.000 NA
BRANCH  17  18
ATOM     18  C   UNL     1      -2.758  11.347  17.422  0.00  0.00    +0.000 C 
ATOM     19  C   UNL     1      -2.965   9.832  17.430  0.00  0.00    +0.000 C 
ENDBRANCH  17  18
BRANCH  17  20
ATOM     20  C   UNL     1      -4.501  11.917  19.029  0.00  0.00    +0.000 C 
BRANCH  20  22
ATOM     21  C   UNL     1      -6.799  11.380  18.129  0.00  0.00    +0.000 C 
ATOM     22  C   UNL     1      -5.585  12.283  18.013  0.00  0.00    +0.000 C 
ENDBRANCH  20  22
ENDBRANCH  17  20
ENDBRANCH  10  17
ENDBRANCH   1  10
BRANCH   1  23
ATOM     23  N   UNL     1       0.483  10.388  19.506  0.00  0.00    +0.000 NA
BRANCH  23  24
ATOM     24  C   UNL     1       1.496  10.314  18.418  0.00  0.00    +0.000 C 
BRANCH  24  25
ATOM     25  C   UNL     1       1.687   8.930  17.752  0.00  0.00    +0.000 C 
BRANCH  25  26
ATOM     26  O   UNL     1       3.009   8.432  18.004  0.00  0.00    +0.000 OA
ATOM     27  C   UNL     1       3.025   7.009  17.967  0.00  0.00    +0.000 C 
ENDBRANCH  25  26
ENDBRANCH  24  25
ENDBRANCH  23  24
BRANCH  23  28
ATOM     28  C   UNL     1       1.165  10.242  20.813  0.00  0.00    +0.000 C 
BRANCH  28  29
ATOM     29  C   UNL     1       0.873   9.097  21.820  0.00  0.00    +0.000 C 
ATOM     30  C   UNL     1       1.290   7.769  21.133  0.00  0.00    +0.000 C 
BRANCH  29  31
ATOM     31  C   UNL     1      -0.589   8.964  22.280  0.00  0.00    +0.000 C 
BRANCH  31  32
ATOM     32  O   UNL     1      -0.877   9.734  23.444  0.00  0.00    +0.000 OA
ATOM     33  H   UNL     1      -0.972   9.116  24.187  0.00  0.00    +0.000 HD
ENDBRANCH  31  32
ENDBRANCH  29  31
ENDBRANCH  28  29
ENDBRANCH  23  28
ENDBRANCH   1  23
TORSDOF 16
ENDMDL
