MODEL 1
REMARK VINA RESULT:      -7.5      0.000      0.000
REMARK  Name = 
REMARK  7 active torsions:
REMARK  status: ('A' for Active; 'I' for Inactive)
REMARK    1  A    between atoms: C_1  and  O_2
REMARK    2  A    between atoms: O_2  and  C_3
REMARK    3  A    between atoms: C_6  and  C_7
REMARK    4  A    between atoms: C_8  and  C_9
REMARK    5  A    between atoms: C_14  and  C_15
REMARK    6  A    between atoms: C_21  and  O_22
REMARK    7  A    between atoms: O_22  and  C_23
REMARK                            x       y       z     vdW  Elec       q    Type
REMARK                         _______ _______ _______ _____ _____    ______ ____
ROOT
ATOM      1  C   UNL     1       3.184   6.341  18.707  0.00  0.00    +0.000 A 
ATOM      2  C   UNL     1       2.583   5.873  19.927  0.00  0.00    +0.000 A 
ATOM      3  C   UNL     1       2.778   4.594  20.662  0.00  0.00    +0.000 C 
ATOM      4  N   UNL     1       1.741   6.777  20.453  0.00  0.00    +0.000 NA
ATOM      5  N   UNL     1       1.812   7.820  19.596  0.00  0.00    +0.000 N 
ATOM      6  C   UNL     1       1.082   8.974  19.824  0.00  0.00    +0.000 A 
ATOM      7  N   UNL     1       0.286   9.149  20.835  0.00  0.00    +0.000 NA
ATOM      8  C   UNL     1       1.340   9.977  18.760  0.00  0.00    +0.000 A 
ATOM      9  N   UNL     1       2.125   9.794  17.732  0.00  0.00    +0.000 NA
ATOM     10  N   UNL     1       2.766   8.594  17.629  0.00  0.00    +0.000 N 
ATOM     11  C   UNL     1       2.650   7.603  18.541  0.00  0.00    +0.000 A 
ATOM     12  H   UNL     1       0.312   8.280  21.402  0.00  0.00    +0.000 HD
ATOM     13  H   UNL     1       3.319   8.458  16.778  0.00  0.00    +0.000 HD
ENDROOT
BRANCH   1  17
ATOM     14  C   UNL     1       5.995   4.675  15.933  0.00  0.00    +0.000 A 
ATOM     15  C   UNL     1       4.784   4.021  16.200  0.00  0.00    +0.000 A 
ATOM     16  C   UNL     1       3.857   4.559  17.097  0.00  0.00    +0.000 A 
ATOM     17  C   UNL     1       4.160   5.711  17.824  0.00  0.00    +0.000 A 
ATOM     18  C   UNL     1       5.425   6.283  17.647  0.00  0.00    +0.000 A 
ATOM     19  C   UNL     1       6.337   5.800  16.694  0.00  0.00    +0.000 A 
BRANCH  14  21
ATOM     20  C   UNL     1       6.228   3.913  13.706  0.00  0.00    +0.000 C 
ATOM     21  O   UNL     1       6.842   4.226  14.957  0.00  0.00    +0.000 OA
ENDBRANCH  14  21
BRANCH  19  22
ATOM     22  O   UNL     1       7.458   6.584  16.630  0.00  0.00    +0.000 OA
ATOM     23  C   UNL     1       7.594   7.676  17.523  0.00  0.00    +0.000 C 
ENDBRANCH  19  22
ENDBRANCH   1  17
BRANCH   8  24
ATOM     24  C   UNL     1       0.732  11.285  18.758  0.00  0.00    +0.000 C 
ATOM     25  N   UNL     1       0.232  12.338  18.747  0.00  0.00    +0.000 NA
ENDBRANCH   8  24
TORSDOF 4
ENDMDL
MODEL 2
REMARK VINA RESULT:      -7.3      3.901      6.988
REMARK  Name = 
REMARK  7 active torsions:
REMARK  status: ('A' for Active; 'I' for Inactive)
REMARK    1  A    between atoms: C_1  and  O_2
REMARK    2  A    between atoms: O_2  and  C_3
REMARK    3  A    between atoms: C_6  and  C_7
REMARK    4  A    between atoms: C_8  and  C_9
REMARK    5  A    between atoms: C_14  and  C_15
REMARK    6  A    between atoms: C_21  and  O_22
REMARK    7  A    between atoms: O_22  and  C_23
REMARK                            x       y       z     vdW  Elec       q    Type
REMARK                         _______ _______ _______ _____ _____    ______ ____
ROOT
ATOM      1  C   UNL     1       2.734   6.579  18.635  0.00  0.00    +0.000 A 
ATOM      2  C   UNL     1       2.489   5.239  19.096  0.00  0.00    +0.000 A 
ATOM      3  C   UNL     1       1.483   4.728  20.068  0.00  0.00    +0.000 C 
ATOM      4  N   UNL     1       3.307   4.347  18.514  0.00  0.00    +0.000 NA
ATOM      5  N   UNL     1       4.055   5.098  17.674  0.00  0.00    +0.000 N 
ATOM      6  C   UNL     1       5.016   4.512  16.868  0.00  0.00    +0.000 A 
ATOM      7  N   UNL     1       5.285   3.242  16.853  0.00  0.00    +0.000 NA
ATOM      8  C   UNL     1       5.689   5.534  16.027  0.00  0.00    +0.000 A 
ATOM      9  N   UNL     1       5.434   6.814  16.055  0.00  0.00    +0.000 NA
ATOM     10  N   UNL     1       4.470   7.250  16.918  0.00  0.00    +0.000 N 
ATOM     11  C   UNL     1       3.755   6.429  17.718  0.00  0.00    +0.000 A 
ATOM     12  H   UNL     1       4.657   2.786  17.544  0.00  0.00    +0.000 HD
ATOM     13  H   UNL     1       4.343   8.265  16.964  0.00  0.00    +0.000 HD
ENDROOT
BRANCH   1  17
ATOM     14  C   UNL     1       0.586  10.141  19.663  0.00  0.00    +0.000 A 
ATOM     15  C   UNL     1       0.975   9.901  18.339  0.00  0.00    +0.000 A 
ATOM     16  C   UNL     1       1.669   8.740  17.991  0.00  0.00    +0.000 A 
ATOM     17  C   UNL     1       2.078   7.837  18.973  0.00  0.00    +0.000 A 
ATOM     18  C   UNL     1       1.798   8.152  20.308  0.00  0.00    +0.000 A 
ATOM     19  C   UNL     1       1.035   9.274  20.667  0.00  0.00    +0.000 A 
BRANCH  14  21
ATOM     20  C   UNL     1      -1.448  11.286  19.277  0.00  0.00    +0.000 C 
ATOM     21  O   UNL     1      -0.211  11.206  19.986  0.00  0.00    +0.000 OA
ENDBRANCH  14  21
BRANCH  19  22
ATOM     22  O   UNL     1       0.805   9.313  22.016  0.00  0.00    +0.000 OA
ATOM     23  C   UNL     1      -0.469   8.946  22.514  0.00  0.00    +0.000 C 
ENDBRANCH  19  22
ENDBRANCH   1  17
BRANCH   8  24
ATOM     24  C   UNL     1       6.717   5.202  15.071  0.00  0.00    +0.000 C 
ATOM     25  N   UNL     1       7.546   4.947  14.292  0.00  0.00    +0.000 NA
ENDBRANCH   8  24
TORSDOF 4
ENDMDL
MODEL 3
REMARK VINA RESULT:      -7.0      3.619      6.818
REMARK  Name = 
REMARK  7 active torsions:
REMARK  status: ('A' for Active; 'I' for Inactive)
REMARK    1  A    between atoms: C_1  and  O_2
REMARK    2  A    between atoms: O_2  and  C_3
REMARK    3  A    between atoms: C_6  and  C_7
REMARK    4  A    between atoms: C_8  and  C_9
REMARK    5  A    between atoms: C_14  and  C_15
REMARK    6  A    between atoms: C_21  and  O_22
REMARK    7  A    between atoms: O_22  and  C_23
REMARK                            x       y       z     vdW  Elec       q    Type
REMARK                         _______ _______ _______ _____ _____    ______ ____
ROOT
ATOM      1  C   UNL     1       2.506   6.300  19.204  0.00  0.00    +0.000 A 
ATOM      2  C   UNL     1       2.228   4.915  19.471  0.00  0.00    +0.000 A 
ATOM      3  C   UNL     1       1.192   4.297  20.344  0.00  0.00    +0.000 C 
ATOM      4  N   UNL     1       3.042   4.095  18.788  0.00  0.00    +0.000 NA
ATOM      5  N   UNL     1       3.822   4.938  18.074  0.00  0.00    +0.000 N 
ATOM      6  C   UNL     1       4.790   4.448  17.214  0.00  0.00    +0.000 A 
ATOM      7  N   UNL     1       5.036   3.186  17.030  0.00  0.00    +0.000 NA
ATOM      8  C   UNL     1       5.499   5.561  16.535  0.00  0.00    +0.000 A 
ATOM      9  N   UNL     1       5.267   6.831  16.734  0.00  0.00    +0.000 NA
ATOM     10  N   UNL     1       4.292   7.164  17.629  0.00  0.00    +0.000 N 
ATOM     11  C   UNL     1       3.545   6.256  18.295  0.00  0.00    +0.000 A 
ATOM     12  H   UNL     1       4.385   2.654  17.639  0.00  0.00    +0.000 HD
ATOM     13  H   UNL     1       4.182   8.166  17.812  0.00  0.00    +0.000 HD
ENDROOT
BRANCH   1  17
ATOM     14  C   UNL     1       0.864   9.977  20.668  0.00  0.00    +0.000 A 
ATOM     15  C   UNL     1       0.949   8.853  21.501  0.00  0.00    +0.000 A 
ATOM     16  C   UNL     1       1.489   7.652  21.036  0.00  0.00    +0.000 A 
ATOM     17  C   UNL     1       1.867   7.513  19.699  0.00  0.00    +0.000 A 
ATOM     18  C   UNL     1       1.655   8.601  18.845  0.00  0.00    +0.000 A 
ATOM     19  C   UNL     1       1.186   9.839  19.311  0.00  0.00    +0.000 A 
BRANCH  14  21
ATOM     20  C   UNL     1      -0.500  11.145  22.209  0.00  0.00    +0.000 C 
ATOM     21  O   UNL     1       0.464  11.192  21.156  0.00  0.00    +0.000 OA
ENDBRANCH  14  21
BRANCH  19  22
ATOM     22  O   UNL     1       1.162  10.776  18.313  0.00  0.00    +0.000 OA
ATOM     23  C   UNL     1       2.275  11.637  18.142  0.00  0.00    +0.000 C 
ENDBRANCH  19  22
ENDBRANCH   1  17
BRANCH   8  24
ATOM     24  C   UNL     1       6.542   5.343  15.562  0.00  0.00    +0.000 C 
ATOM     25  N   UNL     1       7.393   5.171  14.785  0.00  0.00    +0.000 NA
ENDBRANCH   8  24
TORSDOF 4
ENDMDL
MODEL 4
REMARK VINA RESULT:      -6.9      1.300      2.250
REMARK  Name = 
REMARK  7 active torsions:
REMARK  status: ('A' for Active; 'I' for Inactive)
REMARK    1  A    between atoms: C_1  and  O_2
REMARK    2  A    between atoms: O_2  and  C_3
REMARK    3  A    between atoms: C_6  and  C_7
REMARK    4  A    between atoms: C_8  and  C_9
REMARK    5  A    between atoms: C_14  and  C_15
REMARK    6  A    between atoms: C_21  and  O_22
REMARK    7  A    between atoms: O_22  and  C_23
REMARK                            x       y       z     vdW  Elec       q    Type
REMARK                         _______ _______ _______ _____ _____    ______ ____
ROOT
ATOM      1  C   UNL     1       2.622   6.630  18.914  0.00  0.00    +0.000 A 
ATOM      2  C   UNL     1       2.103   6.273  20.206  0.00  0.00    +0.000 A 
ATOM      3  C   UNL     1       2.237   5.006  20.976  0.00  0.00    +0.000 C 
ATOM      4  N   UNL     1       1.418   7.281  20.771  0.00  0.00    +0.000 NA
ATOM      5  N   UNL     1       1.511   8.280  19.865  0.00  0.00    +0.000 N 
ATOM      6  C   UNL     1       0.934   9.514  20.111  0.00  0.00    +0.000 A 
ATOM      7  N   UNL     1       0.267   9.809  21.186  0.00  0.00    +0.000 NA
ATOM      8  C   UNL     1       1.185  10.445  18.983  0.00  0.00    +0.000 A 
ATOM      9  N   UNL     1       1.838  10.143  17.893  0.00  0.00    +0.000 NA
ATOM     10  N   UNL     1       2.335   8.877  17.782  0.00  0.00    +0.000 N 
ATOM     11  C   UNL     1       2.210   7.937  18.744  0.00  0.00    +0.000 A 
ATOM     12  H   UNL     1       0.260   8.962  21.786  0.00  0.00    +0.000 HD
ATOM     13  H   UNL     1       2.781   8.653  16.887  0.00  0.00    +0.000 HD
ENDROOT
BRANCH   1  17
ATOM     14  C   UNL     1       5.146   4.312  16.340  0.00  0.00    +0.000 A 
ATOM     15  C   UNL     1       5.224   5.712  16.343  0.00  0.00    +0.000 A 
ATOM     16  C   UNL     1       4.411   6.477  17.182  0.00  0.00    +0.000 A 
ATOM     17  C   UNL     1       3.431   5.868  17.969  0.00  0.00    +0.000 A 
ATOM     18  C   UNL     1       3.274   4.482  17.860  0.00  0.00    +0.000 A 
ATOM     19  C   UNL     1       4.132   3.691  17.080  0.00  0.00    +0.000 A 
BRANCH  14  21
ATOM     20  C   UNL     1       6.225   3.955  14.265  0.00  0.00    +0.000 C 
ATOM     21  O   UNL     1       6.032   3.555  15.622  0.00  0.00    +0.000 OA
ENDBRANCH  14  21
BRANCH  19  22
ATOM     22  O   UNL     1       3.848   2.358  17.215  0.00  0.00    +0.000 OA
ATOM     23  C   UNL     1       3.415   1.864  18.471  0.00  0.00    +0.000 C 
ENDBRANCH  19  22
ENDBRANCH   1  17
BRANCH   8  24
ATOM     24  C   UNL     1       0.721  11.811  18.982  0.00  0.00    +0.000 C 
ATOM     25  N   UNL     1       0.340  12.913  18.969  0.00  0.00    +0.000 NA
ENDBRANCH   8  24
TORSDOF 4
ENDMDL
MODEL 5
REMARK VINA RESULT:      -6.7      1.999      2.947
REMARK  Name = 
REMARK  7 active torsions:
REMARK  status: ('A' for Active; 'I' for Inactive)
REMARK    1  A    between atoms: C_1  and  O_2
REMARK    2  A    between atoms: O_2  and  C_3
REMARK    3  A    between atoms: C_6  and  C_7
REMARK    4  A    between atoms: C_8  and  C_9
REMARK    5  A    between atoms: C_14  and  C_15
REMARK    6  A    between atoms: C_21  and  O_22
REMARK    7  A    between atoms: O_22  and  C_23
REMARK                            x       y       z     vdW  Elec       q    Type
REMARK                         _______ _______ _______ _____ _____    ______ ____
ROOT
ATOM      1  C   UNL     1       4.097   4.219  17.707  0.00  0.00    +0.000 A 
ATOM      2  C   UNL     1       3.519   3.010  18.229  0.00  0.00    +0.000 A 
ATOM      3  C   UNL     1       3.822   1.587  17.910  0.00  0.00    +0.000 C 
ATOM      4  N   UNL     1       2.581   3.258  19.157  0.00  0.00    +0.000 NA
ATOM      5  N   UNL     1       2.569   4.607  19.248  0.00  0.00    +0.000 N 
ATOM      6  C   UNL     1       1.725   5.248  20.140  0.00  0.00    +0.000 A 
ATOM      7  N   UNL     1       0.894   4.637  20.929  0.00  0.00    +0.000 NA
ATOM      8  C   UNL     1       1.906   6.719  20.068  0.00  0.00    +0.000 A 
ATOM      9  N   UNL     1       2.727   7.335  19.260  0.00  0.00    +0.000 NA
ATOM     10  N   UNL     1       3.484   6.570  18.420  0.00  0.00    +0.000 N 
ATOM     11  C   UNL     1       3.446   5.219  18.401  0.00  0.00    +0.000 A 
ATOM     12  H   UNL     1       0.993   3.619  20.753  0.00  0.00    +0.000 HD
ATOM     13  H   UNL     1       4.065   7.086  17.754  0.00  0.00    +0.000 HD
ENDROOT
BRANCH   1  17
ATOM     14  C   UNL     1       7.058   5.031  14.718  0.00  0.00    +0.000 A 
ATOM     15  C   UNL     1       6.147   3.979  14.551  0.00  0.00    +0.000 A 
ATOM     16  C   UNL     1       5.173   3.710  15.516  0.00  0.00    +0.000 A 
ATOM     17  C   UNL     1       5.148   4.421  16.716  0.00  0.00    +0.000 A 
ATOM     18  C   UNL     1       6.144   5.381  16.928  0.00  0.00    +0.000 A 
ATOM     19  C   UNL     1       7.082   5.717  15.938  0.00  0.00    +0.000 A 
BRANCH  14  21
ATOM     20  C   UNL     1       7.560   4.946  12.407  0.00  0.00    +0.000 C 
ATOM     21  O   UNL     1       7.923   5.385  13.717  0.00  0.00    +0.000 OA
ENDBRANCH  14  21
BRANCH  19  22
ATOM     22  O   UNL     1       7.883   6.753  16.337  0.00  0.00    +0.000 OA
ATOM     23  C   UNL     1       7.548   7.480  17.506  0.00  0.00    +0.000 C 
ENDBRANCH  19  22
ENDBRANCH   1  17
BRANCH   8  24
ATOM     24  C   UNL     1       1.174   7.636  20.906  0.00  0.00    +0.000 C 
ATOM     25  N   UNL     1       0.574   8.382  21.573  0.00  0.00    +0.000 NA
ENDBRANCH   8  24
TORSDOF 4
ENDMDL
MODEL 6
REMARK VINA RESULT:      -6.7      4.704      7.410
REMARK  Name = 
REMARK  7 active torsions:
REMARK  status: ('A' for Active; 'I' for Inactive)
REMARK    1  A    between atoms: C_1  and  O_2
REMARK    2  A    between atoms: O_2  and  C_3
REMARK    3  A    between atoms: C_6  and  C_7
REMARK    4  A    between atoms: C_8  and  C_9
REMARK    5  A    between atoms: C_14  and  C_15
REMARK    6  A    between atoms: C_21  and  O_22
REMARK    7  A    between atoms: O_22  and  C_23
REMARK                            x       y       z     vdW  Elec       q    Type
REMARK                         _______ _______ _______ _____ _____    ______ ____
ROOT
ATOM      1  C   UNL     1       5.891   5.547  17.159  0.00  0.00    +0.000 A 
ATOM      2  C   UNL     1       7.042   6.408  17.117  0.00  0.00    +0.000 A 
ATOM      3  C   UNL     1       7.593   7.323  18.154  0.00  0.00    +0.000 C 
ATOM      4  N   UNL     1       7.697   6.318  15.948  0.00  0.00    +0.000 NA
ATOM      5  N   UNL     1       6.990   5.398  15.254  0.00  0.00    +0.000 N 
ATOM      6  C   UNL     1       7.383   5.017  13.982  0.00  0.00    +0.000 A 
ATOM      7  N   UNL     1       8.417   5.497  13.360  0.00  0.00    +0.000 NA
ATOM      8  C   UNL     1       6.463   3.988  13.435  0.00  0.00    +0.000 A 
ATOM      9  N   UNL     1       5.411   3.519  14.051  0.00  0.00    +0.000 NA
ATOM     10  N   UNL     1       5.137   4.005  15.297  0.00  0.00    +0.000 N 
ATOM     11  C   UNL     1       5.906   4.919  15.930  0.00  0.00    +0.000 A 
ATOM     12  H   UNL     1       8.859   6.194  13.990  0.00  0.00    +0.000 HD
ATOM     13  H   UNL     1       4.269   3.668  15.723  0.00  0.00    +0.000 HD
ENDROOT
BRANCH   1  17
ATOM     14  C   UNL     1       2.891   4.711  20.103  0.00  0.00    +0.000 A 
ATOM     15  C   UNL     1       3.026   6.000  19.570  0.00  0.00    +0.000 A 
ATOM     16  C   UNL     1       3.996   6.282  18.605  0.00  0.00    +0.000 A 
ATOM     17  C   UNL     1       4.919   5.308  18.220  0.00  0.00    +0.000 A 
ATOM     18  C   UNL     1       4.858   4.063  18.856  0.00  0.00    +0.000 A 
ATOM     19  C   UNL     1       3.843   3.738  19.770  0.00  0.00    +0.000 A 
BRANCH  14  21
ATOM     20  C   UNL     1       0.765   3.702  20.343  0.00  0.00    +0.000 C 
ATOM     21  O   UNL     1       1.858   4.397  20.944  0.00  0.00    +0.000 OA
ENDBRANCH  14  21
BRANCH  19  22
ATOM     22  O   UNL     1       3.930   2.434  20.175  0.00  0.00    +0.000 OA
ATOM     23  C   UNL     1       3.724   1.398  19.230  0.00  0.00    +0.000 C 
ENDBRANCH  19  22
ENDBRANCH   1  17
BRANCH   8  24
ATOM     24  C   UNL     1       6.648   3.389  12.136  0.00  0.00    +0.000 C 
ATOM     25  N   UNL     1       6.788   2.895  11.089  0.00  0.00    +0.000 NA
ENDBRANCH   8  24
TORSDOF 4
ENDMDL
MODEL 7
REMARK VINA RESULT:      -6.7      4.536      7.340
REMARK  Name = 
REMARK  7 active torsions:
REMARK  status: ('A' for Active; 'I' for Inactive)
REMARK    1  A    between atoms: C_1  and  O_2
REMARK    2  A    between atoms: O_2  and  C_3
REMARK    3  A    between atoms: C_6  and  C_7
REMARK    4  A    between atoms: C_8  and  C_9
REMARK    5  A    between atoms: C_14  and  C_15
REMARK    6  A    between atoms: C_21  and  O_22
REMARK    7  A    between atoms: O_22  and  C_23
REMARK                            x       y       z     vdW  Elec       q    Type
REMARK                         _______ _______ _______ _____ _____    ______ ____
ROOT
ATOM      1  C   UNL     1       5.793   5.407  17.117  0.00  0.00    +0.000 A 
ATOM      2  C   UNL     1       6.947   6.263  17.161  0.00  0.00    +0.000 A 
ATOM      3  C   UNL     1       7.454   7.133  18.258  0.00  0.00    +0.000 C 
ATOM      4  N   UNL     1       7.653   6.218  16.019  0.00  0.00    +0.000 NA
ATOM      5  N   UNL     1       6.975   5.330  15.258  0.00  0.00    +0.000 N 
ATOM      6  C   UNL     1       7.422   5.000  13.990  0.00  0.00    +0.000 A 
ATOM      7  N   UNL     1       8.484   5.500  13.435  0.00  0.00    +0.000 NA
ATOM      8  C   UNL     1       6.525   3.998  13.362  0.00  0.00    +0.000 A 
ATOM      9  N   UNL     1       5.446   3.509  13.911  0.00  0.00    +0.000 NA
ATOM     10  N   UNL     1       5.118   3.945  15.162  0.00  0.00    +0.000 N 
ATOM     11  C   UNL     1       5.860   4.829  15.865  0.00  0.00    +0.000 A 
ATOM     12  H   UNL     1       8.900   6.169  14.111  0.00  0.00    +0.000 HD
ATOM     13  H   UNL     1       4.231   3.595  15.535  0.00  0.00    +0.000 HD
ENDROOT
BRANCH   1  17
ATOM     14  C   UNL     1       2.942   4.730  20.245  0.00  0.00    +0.000 A 
ATOM     15  C   UNL     1       3.778   3.694  19.806  0.00  0.00    +0.000 A 
ATOM     16  C   UNL     1       4.715   3.905  18.792  0.00  0.00    +0.000 A 
ATOM     17  C   UNL     1       4.774   5.129  18.123  0.00  0.00    +0.000 A 
ATOM     18  C   UNL     1       3.846   6.114  18.481  0.00  0.00    +0.000 A 
ATOM     19  C   UNL     1       2.950   5.946  19.549  0.00  0.00    +0.000 A 
BRANCH  14  21
ATOM     20  C   UNL     1       1.880   3.215  21.719  0.00  0.00    +0.000 C 
ATOM     21  O   UNL     1       2.120   4.567  21.327  0.00  0.00    +0.000 OA
ENDBRANCH  14  21
BRANCH  19  22
ATOM     22  O   UNL     1       2.220   7.081  19.775  0.00  0.00    +0.000 OA
ATOM     23  C   UNL     1       2.148   8.073  18.766  0.00  0.00    +0.000 C 
ENDBRANCH  19  22
ENDBRANCH   1  17
BRANCH   8  24
ATOM     24  C   UNL     1       6.765   3.452  12.048  0.00  0.00    +0.000 C 
ATOM     25  N   UNL     1       6.972   3.006  10.991  0.00  0.00    +0.000 NA
ENDBRANCH   8  24
TORSDOF 4
ENDMDL
MODEL 8
REMARK VINA RESULT:      -6.6      2.481      3.886
REMARK  Name = 
REMARK  7 active torsions:
REMARK  status: ('A' for Active; 'I' for Inactive)
REMARK    1  A    between atoms: C_1  and  O_2
REMARK    2  A    between atoms: O_2  and  C_3
REMARK    3  A    between atoms: C_6  and  C_7
REMARK    4  A    between atoms: C_8  and  C_9
REMARK    5  A    between atoms: C_14  and  C_15
REMARK    6  A    between atoms: C_21  and  O_22
REMARK    7  A    between atoms: O_22  and  C_23
REMARK                            x       y       z     vdW  Elec       q    Type
REMARK                         _______ _______ _______ _____ _____    ______ ____
ROOT
ATOM      1  C   UNL     1       2.187   7.398  19.544  0.00  0.00    +0.000 A 
ATOM      2  C   UNL     1       2.276   8.251  18.390  0.00  0.00    +0.000 A 
ATOM      3  C   UNL     1       2.865   7.990  17.048  0.00  0.00    +0.000 C 
ATOM      4  N   UNL     1       1.707   9.449  18.602  0.00  0.00    +0.000 NA
ATOM      5  N   UNL     1       1.239   9.362  19.868  0.00  0.00    +0.000 N 
ATOM      6  C   UNL     1       0.556  10.420  20.443  0.00  0.00    +0.000 A 
ATOM      7  N   UNL     1       0.322  11.551  19.848  0.00  0.00    +0.000 NA
ATOM      8  C   UNL     1       0.131  10.081  21.824  0.00  0.00    +0.000 A 
ATOM      9  N   UNL     1       0.383   8.952  22.430  0.00  0.00    +0.000 NA
ATOM     10  N   UNL     1       1.086   8.006  21.742  0.00  0.00    +0.000 N 
ATOM     11  C   UNL     1       1.508   8.166  20.468  0.00  0.00    +0.000 A 
ATOM     12  H   UNL     1       0.739  11.492  18.900  0.00  0.00    +0.000 HD
ATOM     13  H   UNL     1       1.326   7.161  22.269  0.00  0.00    +0.000 HD
ENDROOT
BRANCH   1  17
ATOM     14  C   UNL     1       3.507   3.336  19.898  0.00  0.00    +0.000 A 
ATOM     15  C   UNL     1       2.215   3.703  20.299  0.00  0.00    +0.000 A 
ATOM     16  C   UNL     1       1.772   5.023  20.182  0.00  0.00    +0.000 A 
ATOM     17  C   UNL     1       2.641   6.028  19.752  0.00  0.00    +0.000 A 
ATOM     18  C   UNL     1       3.966   5.672  19.479  0.00  0.00    +0.000 A 
ATOM     19  C   UNL     1       4.407   4.340  19.517  0.00  0.00    +0.000 A 
BRANCH  14  21
ATOM     20  C   UNL     1       3.683   1.333  18.651  0.00  0.00    +0.000 C 
ATOM     21  O   UNL     1       3.898   2.025  19.882  0.00  0.00    +0.000 OA
ENDBRANCH  14  21
BRANCH  19  22
ATOM     22  O   UNL     1       5.709   4.230  19.109  0.00  0.00    +0.000 OA
ATOM     23  C   UNL     1       6.545   5.374  19.137  0.00  0.00    +0.000 C 
ENDBRANCH  19  22
ENDBRANCH   1  17
BRANCH   8  24
ATOM     24  C   UNL     1      -0.624  10.989  22.652  0.00  0.00    +0.000 C 
ATOM     25  N   UNL     1      -1.241  11.713  23.326  0.00  0.00    +0.000 NA
ENDBRANCH   8  24
TORSDOF 4
ENDMDL
MODEL 9
REMARK VINA RESULT:      -6.4      4.400      8.062
REMARK  Name = 
REMARK  7 active torsions:
REMARK  status: ('A' for Active; 'I' for Inactive)
REMARK    1  A    between atoms: C_1  and  O_2
REMARK    2  A    between atoms: O_2  and  C_3
REMARK    3  A    between atoms: C_6  and  C_7
REMARK    4  A    between atoms: C_8  and  C_9
REMARK    5  A    between atoms: C_14  and  C_15
REMARK    6  A    between atoms: C_21  and  O_22
REMARK    7  A    between atoms: O_22  and  C_23
REMARK                            x       y       z     vdW  Elec       q    Type
REMARK                         _______ _______ _______ _____ _____    ______ ____
ROOT
ATOM      1  C   UNL     1       1.649   8.227  19.733  0.00  0.00    +0.000 A 
ATOM      2  C   UNL     1       2.207   8.607  18.463  0.00  0.00    +0.000 A 
ATOM      3  C   UNL     1       2.123   9.898  17.727  0.00  0.00    +0.000 C 
ATOM      4  N   UNL     1       2.923   7.615  17.909  0.00  0.00    +0.000 NA
ATOM      5  N   UNL     1       2.844   6.616  18.817  0.00  0.00    +0.000 N 
ATOM      6  C   UNL     1       3.491   5.411  18.600  0.00  0.00    +0.000 A 
ATOM      7  N   UNL     1       4.195   5.138  17.544  0.00  0.00    +0.000 NA
ATOM      8  C   UNL     1       3.271   4.486  19.740  0.00  0.00    +0.000 A 
ATOM      9  N   UNL     1       2.547   4.753  20.793  0.00  0.00    +0.000 NA
ATOM     10  N   UNL     1       1.952   5.979  20.859  0.00  0.00    +0.000 N 
ATOM     11  C   UNL     1       2.092   6.931  19.911  0.00  0.00    +0.000 A 
ATOM     12  H   UNL     1       4.165   5.973  16.928  0.00  0.00    +0.000 HD
ATOM     13  H   UNL     1       1.337   6.130  21.664  0.00  0.00    +0.000 HD
ENDROOT
BRANCH   1  17
ATOM     14  C   UNL     1      -0.589  10.653  22.465  0.00  0.00    +0.000 A 
ATOM     15  C   UNL     1       0.288   9.669  22.940  0.00  0.00    +0.000 A 
ATOM     16  C   UNL     1       1.028   8.877  22.059  0.00  0.00    +0.000 A 
ATOM     17  C   UNL     1       0.836   8.981  20.680  0.00  0.00    +0.000 A 
ATOM     18  C   UNL     1      -0.138   9.875  20.221  0.00  0.00    +0.000 A 
ATOM     19  C   UNL     1      -0.834  10.733  21.088  0.00  0.00    +0.000 A 
BRANCH  14  21
ATOM     20  C   UNL     1      -1.016  12.908  23.041  0.00  0.00    +0.000 C 
ATOM     21  O   UNL     1      -1.211  11.521  23.322  0.00  0.00    +0.000 OA
ENDBRANCH  14  21
BRANCH  19  22
ATOM     22  O   UNL     1      -1.653  11.586  20.400  0.00  0.00    +0.000 OA
ATOM     23  C   UNL     1      -1.149  12.266  19.263  0.00  0.00    +0.000 C 
ENDBRANCH  19  22
ENDBRANCH   1  17
BRANCH   8  24
ATOM     24  C   UNL     1       3.852   3.167  19.795  0.00  0.00    +0.000 C 
ATOM     25  N   UNL     1       4.325   2.102  19.827  0.00  0.00    +0.000 NA
ENDBRANCH   8  24
TORSDOF 4
ENDMDL
