MODEL 1
REMARK VINA RESULT:      -7.4      0.000      0.000
REMARK  Name = 
REMARK  11 active torsions:
REMARK  status: ('A' for Active; 'I' for Inactive)
REMARK    1  A    between atoms: C_1  and  C_2
REMARK    2  A    between atoms: C_2  and  N_3
REMARK    3  A    between atoms: C_2  and  C_11
REMARK    4  A    between atoms: C_4  and  O_6
REMARK    5  A    between atoms: O_6  and  C_7
REMARK    6  A    between atoms: C_7  and  C_8
REMARK    7  A    between atoms: C_7  and  C_9
REMARK    8  A    between atoms: C_7  and  C_10
REMARK    9  A    between atoms: C_14  and  S_15
REMARK   10  A    between atoms: S_15  and  C_18
REMARK   11  A    between atoms: C_18  and  C_19
REMARK                            x       y       z     vdW  Elec       q    Type
REMARK                         _______ _______ _______ _____ _____    ______ ____
ROOT
ATOM      1  C   UNL     1       2.383   6.150  19.709  0.00  0.00    +0.000 A 
ATOM      2  N   UNL     1       2.659   7.032  18.771  0.00  0.00    +0.000 NA
ATOM      3  N   UNL     1       2.131   8.234  19.190  0.00  0.00    +0.000 NA
ATOM      4  C   UNL     1       1.572   8.021  20.370  0.00  0.00    +0.000 A 
ATOM      5  O   UNL     1       1.676   6.694  20.751  0.00  0.00    +0.000 OA
ENDROOT
BRANCH   4   6
ATOM      6  S   UNL     1       0.792   9.295  21.338  0.00  0.00    +0.000 S 
ATOM      7  O   UNL     1      -0.599   8.895  21.438  0.00  0.00    +0.000 OA
ATOM      8  O   UNL     1       1.634   9.448  22.508  0.00  0.00    +0.000 OA
BRANCH   6   9
ATOM      9  C   UNL     1       0.930  10.727  20.273  0.00  0.00    +0.000 C 
BRANCH   9  10
ATOM     10  C   UNL     1      -0.376  10.928  19.547  0.00  0.00    +0.000 A 
ATOM     11  C   UNL     1      -1.331  11.829  20.043  0.00  0.00    +0.000 A 
ATOM     12  C   UNL     1      -2.556  11.996  19.392  0.00  0.00    +0.000 A 
ATOM     13  C   UNL     1      -2.840  11.268  18.240  0.00  0.00    +0.000 A 
ATOM     14  C   UNL     1      -1.900  10.372  17.735  0.00  0.00    +0.000 A 
ATOM     15  C   UNL     1      -0.673  10.203  18.383  0.00  0.00    +0.000 A 
ENDBRANCH   9  10
ENDBRANCH   6   9
ENDBRANCH   4   6
BRANCH   1  17
ATOM     16  C   UNL     1       1.531   3.818  20.105  0.00  0.00    +0.000 C 
ATOM     17  C   UNL     1       2.727   4.695  19.747  0.00  0.00    +0.000 C 
BRANCH  17  18
ATOM     18  N   UNL     1       3.333   4.283  18.491  0.00  0.00    +0.000 N 
ATOM     19  C   UNL     1       4.679   4.079  18.416  0.00  0.00    +0.000 C 
ATOM     20  O   UNL     1       5.437   4.241  19.359  0.00  0.00    +0.000 OA
ATOM     21  H   UNL     1       2.773   4.017  17.693  0.00  0.00    +0.000 HD
BRANCH  19  22
ATOM     22  O   UNL     1       5.037   3.698  17.164  0.00  0.00    +0.000 OA
BRANCH  22  23
ATOM     23  C   UNL     1       5.906   4.568  16.387  0.00  0.00    +0.000 C 
ATOM     24  C   UNL     1       7.337   4.570  16.941  0.00  0.00    +0.000 C 
ATOM     25  C   UNL     1       5.946   3.977  14.967  0.00  0.00    +0.000 C 
ATOM     26  C   UNL     1       5.325   5.987  16.286  0.00  0.00    +0.000 C 
ENDBRANCH  22  23
ENDBRANCH  19  22
ENDBRANCH  17  18
ENDBRANCH   1  17
TORSDOF 7
ENDMDL
MODEL 2
REMARK VINA RESULT:      -7.3      2.744      8.510
REMARK  Name = 
REMARK  11 active torsions:
REMARK  status: ('A' for Active; 'I' for Inactive)
REMARK    1  A    between atoms: C_1  and  C_2
REMARK    2  A    between atoms: C_2  and  N_3
REMARK    3  A    between atoms: C_2  and  C_11
REMARK    4  A    between atoms: C_4  and  O_6
REMARK    5  A    between atoms: O_6  and  C_7
REMARK    6  A    between atoms: C_7  and  C_8
REMARK    7  A    between atoms: C_7  and  C_9
REMARK    8  A    between atoms: C_7  and  C_10
REMARK    9  A    between atoms: C_14  and  S_15
REMARK   10  A    between atoms: S_15  and  C_18
REMARK   11  A    between atoms: C_18  and  C_19
REMARK                            x       y       z     vdW  Elec       q    Type
REMARK                         _______ _______ _______ _____ _____    ______ ____
ROOT
ATOM      1  C   UNL     1       3.400   5.651  19.281  0.00  0.00    +0.000 A 
ATOM      2  N   UNL     1       4.476   5.240  19.920  0.00  0.00    +0.000 NA
ATOM      3  N   UNL     1       5.526   5.342  19.035  0.00  0.00    +0.000 NA
ATOM      4  C   UNL     1       5.035   5.824  17.905  0.00  0.00    +0.000 A 
ATOM      5  O   UNL     1       3.667   6.020  17.987  0.00  0.00    +0.000 OA
ENDROOT
BRANCH   4   6
ATOM      6  S   UNL     1       6.024   6.175  16.468  0.00  0.00    +0.000 S 
ATOM      7  O   UNL     1       5.086   6.657  15.471  0.00  0.00    +0.000 OA
ATOM      8  O   UNL     1       7.118   6.995  16.953  0.00  0.00    +0.000 OA
BRANCH   6   9
ATOM      9  C   UNL     1       6.616   4.552  16.001  0.00  0.00    +0.000 C 
BRANCH   9  10
ATOM     10  C   UNL     1       6.770   4.496  14.501  0.00  0.00    +0.000 A 
ATOM     11  C   UNL     1       6.008   3.594  13.744  0.00  0.00    +0.000 A 
ATOM     12  C   UNL     1       6.169   3.515  12.359  0.00  0.00    +0.000 A 
ATOM     13  C   UNL     1       7.092   4.335  11.715  0.00  0.00    +0.000 A 
ATOM     14  C   UNL     1       7.854   5.237  12.454  0.00  0.00    +0.000 A 
ATOM     15  C   UNL     1       7.694   5.320  13.841  0.00  0.00    +0.000 A 
ENDBRANCH   9  10
ENDBRANCH   6   9
ENDBRANCH   4   6
BRANCH   1  17
ATOM     16  C   UNL     1       1.456   4.388  20.253  0.00  0.00    +0.000 C 
ATOM     17  C   UNL     1       1.995   5.736  19.785  0.00  0.00    +0.000 C 
BRANCH  17  18
ATOM     18  N   UNL     1       1.889   6.744  20.828  0.00  0.00    +0.000 N 
ATOM     19  C   UNL     1       1.701   8.053  20.497  0.00  0.00    +0.000 C 
ATOM     20  O   UNL     1       1.631   8.452  19.345  0.00  0.00    +0.000 OA
ATOM     21  H   UNL     1       1.823   6.493  21.805  0.00  0.00    +0.000 HD
BRANCH  19  22
ATOM     22  O   UNL     1       1.626   8.823  21.612  0.00  0.00    +0.000 OA
BRANCH  22  23
ATOM     23  C   UNL     1       0.342   9.400  21.980  0.00  0.00    +0.000 C 
ATOM     24  C   UNL     1       0.111  10.745  21.276  0.00  0.00    +0.000 C 
ATOM     25  C   UNL     1      -0.730   8.414  21.486  0.00  0.00    +0.000 C 
ATOM     26  C   UNL     1       0.203   9.517  23.506  0.00  0.00    +0.000 C 
ENDBRANCH  22  23
ENDBRANCH  19  22
ENDBRANCH  17  18
ENDBRANCH   1  17
TORSDOF 7
ENDMDL
MODEL 3
REMARK VINA RESULT:      -7.3      0.974      1.108
REMARK  Name = 
REMARK  11 active torsions:
REMARK  status: ('A' for Active; 'I' for Inactive)
REMARK    1  A    between atoms: C_1  and  C_2
REMARK    2  A    between atoms: C_2  and  N_3
REMARK    3  A    between atoms: C_2  and  C_11
REMARK    4  A    between atoms: C_4  and  O_6
REMARK    5  A    between atoms: O_6  and  C_7
REMARK    6  A    between atoms: C_7  and  C_8
REMARK    7  A    between atoms: C_7  and  C_9
REMARK    8  A    between atoms: C_7  and  C_10
REMARK    9  A    between atoms: C_14  and  S_15
REMARK   10  A    between atoms: S_15  and  C_18
REMARK   11  A    between atoms: C_18  and  C_19
REMARK                            x       y       z     vdW  Elec       q    Type
REMARK                         _______ _______ _______ _____ _____    ______ ____
ROOT
ATOM      1  C   UNL     1       2.513   7.057  19.270  0.00  0.00    +0.000 A 
ATOM      2  N   UNL     1       2.604   7.740  18.148  0.00  0.00    +0.000 NA
ATOM      3  N   UNL     1       1.899   8.909  18.337  0.00  0.00    +0.000 NA
ATOM      4  C   UNL     1       1.426   8.880  19.572  0.00  0.00    +0.000 A 
ATOM      5  O   UNL     1       1.763   7.704  20.219  0.00  0.00    +0.000 OA
ENDROOT
BRANCH   4   6
ATOM      6  S   UNL     1       0.480  10.201  20.299  0.00  0.00    +0.000 S 
ATOM      7  O   UNL     1      -0.760   9.585  20.731  0.00  0.00    +0.000 OA
ATOM      8  O   UNL     1       1.385  10.844  21.232  0.00  0.00    +0.000 OA
BRANCH   6   9
ATOM      9  C   UNL     1       0.165  11.266  18.896  0.00  0.00    +0.000 C 
BRANCH   9  10
ATOM     10  C   UNL     1      -1.244  11.035  18.408  0.00  0.00    +0.000 A 
ATOM     11  C   UNL     1      -2.295  11.838  18.875  0.00  0.00    +0.000 A 
ATOM     12  C   UNL     1      -3.606  11.608  18.452  0.00  0.00    +0.000 A 
ATOM     13  C   UNL     1      -3.882  10.576  17.559  0.00  0.00    +0.000 A 
ATOM     14  C   UNL     1      -2.847   9.773  17.086  0.00  0.00    +0.000 A 
ATOM     15  C   UNL     1      -1.533  10.001  17.506  0.00  0.00    +0.000 A 
ENDBRANCH   9  10
ENDBRANCH   6   9
ENDBRANCH   4   6
BRANCH   1  17
ATOM     16  C   UNL     1       2.119   4.819  20.345  0.00  0.00    +0.000 C 
ATOM     17  C   UNL     1       3.096   5.718  19.593  0.00  0.00    +0.000 C 
BRANCH  17  18
ATOM     18  N   UNL     1       3.592   5.076  18.388  0.00  0.00    +0.000 N 
ATOM     19  C   UNL     1       4.787   4.419  18.405  0.00  0.00    +0.000 C 
ATOM     20  O   UNL     1       5.500   4.347  19.394  0.00  0.00    +0.000 OA
ATOM     21  H   UNL     1       3.021   4.987  17.558  0.00  0.00    +0.000 HD
BRANCH  19  22
ATOM     22  O   UNL     1       5.062   3.891  17.187  0.00  0.00    +0.000 OA
BRANCH  22  23
ATOM     23  C   UNL     1       5.958   4.611  16.295  0.00  0.00    +0.000 C 
ATOM     24  C   UNL     1       7.397   4.612  16.829  0.00  0.00    +0.000 C 
ATOM     25  C   UNL     1       5.946   3.842  14.962  0.00  0.00    +0.000 C 
ATOM     26  C   UNL     1       5.444   6.032  16.019  0.00  0.00    +0.000 C 
ENDBRANCH  22  23
ENDBRANCH  19  22
ENDBRANCH  17  18
ENDBRANCH   1  17
TORSDOF 7
ENDMDL
MODEL 4
REMARK VINA RESULT:      -7.1      1.046      1.707
REMARK  Name = 
REMARK  11 active torsions:
REMARK  status: ('A' for Active; 'I' for Inactive)
REMARK    1  A    between atoms: C_1  and  C_2
REMARK    2  A    between atoms: C_2  and  N_3
REMARK    3  A    between atoms: C_2  and  C_11
REMARK    4  A    between atoms: C_4  and  O_6
REMARK    5  A    between atoms: O_6  and  C_7
REMARK    6  A    between atoms: C_7  and  C_8
REMARK    7  A    between atoms: C_7  and  C_9
REMARK    8  A    between atoms: C_7  and  C_10
REMARK    9  A    between atoms: C_14  and  S_15
REMARK   10  A    between atoms: S_15  and  C_18
REMARK   11  A    between atoms: C_18  and  C_19
REMARK                            x       y       z     vdW  Elec       q    Type
REMARK                         _______ _______ _______ _____ _____    ______ ____
ROOT
ATOM      1  C   UNL     1       2.336   6.111  19.746  0.00  0.00    +0.000 A 
ATOM      2  N   UNL     1       2.548   7.060  18.858  0.00  0.00    +0.000 NA
ATOM      3  N   UNL     1       2.014   8.218  19.380  0.00  0.00    +0.000 NA
ATOM      4  C   UNL     1       1.516   7.914  20.568  0.00  0.00    +0.000 A 
ATOM      5  O   UNL     1       1.667   6.567  20.853  0.00  0.00    +0.000 OA
ENDROOT
BRANCH   4   6
ATOM      6  S   UNL     1       0.755   9.101  21.653  0.00  0.00    +0.000 S 
ATOM      7  O   UNL     1      -0.548   8.545  21.967  0.00  0.00    +0.000 OA
ATOM      8  O   UNL     1       1.746   9.363  22.679  0.00  0.00    +0.000 OA
BRANCH   6   9
ATOM      9  C   UNL     1       0.560  10.526  20.589  0.00  0.00    +0.000 C 
BRANCH   9  10
ATOM     10  C   UNL     1      -0.600  11.355  21.083  0.00  0.00    +0.000 A 
ATOM     11  C   UNL     1      -1.573  11.818  20.184  0.00  0.00    +0.000 A 
ATOM     12  C   UNL     1      -2.631  12.612  20.630  0.00  0.00    +0.000 A 
ATOM     13  C   UNL     1      -2.732  12.951  21.977  0.00  0.00    +0.000 A 
ATOM     14  C   UNL     1      -1.775  12.496  22.881  0.00  0.00    +0.000 A 
ATOM     15  C   UNL     1      -0.714  11.700  22.438  0.00  0.00    +0.000 A 
ENDBRANCH   9  10
ENDBRANCH   6   9
ENDBRANCH   4   6
BRANCH   1  17
ATOM     16  C   UNL     1       1.551   3.737  20.008  0.00  0.00    +0.000 C 
ATOM     17  C   UNL     1       2.713   4.666  19.671  0.00  0.00    +0.000 C 
BRANCH  17  18
ATOM     18  N   UNL     1       3.281   4.356  18.369  0.00  0.00    +0.000 N 
ATOM     19  C   UNL     1       4.582   3.958  18.267  0.00  0.00    +0.000 C 
ATOM     20  O   UNL     1       5.330   3.857  19.227  0.00  0.00    +0.000 OA
ATOM     21  H   UNL     1       2.708   4.303  17.537  0.00  0.00    +0.000 HD
BRANCH  19  22
ATOM     22  O   UNL     1       4.909   3.717  16.973  0.00  0.00    +0.000 OA
BRANCH  22  23
ATOM     23  C   UNL     1       5.745   4.678  16.270  0.00  0.00    +0.000 C 
ATOM     24  C   UNL     1       7.212   4.571  16.709  0.00  0.00    +0.000 C 
ATOM     25  C   UNL     1       5.666   4.305  14.779  0.00  0.00    +0.000 C 
ATOM     26  C   UNL     1       5.200   6.106  16.424  0.00  0.00    +0.000 C 
ENDBRANCH  22  23
ENDBRANCH  19  22
ENDBRANCH  17  18
ENDBRANCH   1  17
TORSDOF 7
ENDMDL
MODEL 5
REMARK VINA RESULT:      -7.0      2.502      8.436
REMARK  Name = 
REMARK  11 active torsions:
REMARK  status: ('A' for Active; 'I' for Inactive)
REMARK    1  A    between atoms: C_1  and  C_2
REMARK    2  A    between atoms: C_2  and  N_3
REMARK    3  A    between atoms: C_2  and  C_11
REMARK    4  A    between atoms: C_4  and  O_6
REMARK    5  A    between atoms: O_6  and  C_7
REMARK    6  A    between atoms: C_7  and  C_8
REMARK    7  A    between atoms: C_7  and  C_9
REMARK    8  A    between atoms: C_7  and  C_10
REMARK    9  A    between atoms: C_14  and  S_15
REMARK   10  A    between atoms: S_15  and  C_18
REMARK   11  A    between atoms: C_18  and  C_19
REMARK                            x       y       z     vdW  Elec       q    Type
REMARK                         _______ _______ _______ _____ _____    ______ ____
ROOT
ATOM      1  C   UNL     1       1.042   9.655  19.602  0.00  0.00    +0.000 A 
ATOM      2  N   UNL     1       0.995   9.042  20.766  0.00  0.00    +0.000 NA
ATOM      3  N   UNL     1       1.605   7.819  20.594  0.00  0.00    +0.000 NA
ATOM      4  C   UNL     1       2.004   7.758  19.334  0.00  0.00    +0.000 A 
ATOM      5  O   UNL     1       1.649   8.898  18.633  0.00  0.00    +0.000 OA
ENDROOT
BRANCH   4   6
ATOM      6  S   UNL     1       2.890   6.378  18.643  0.00  0.00    +0.000 S 
ATOM      7  O   UNL     1       3.625   5.806  19.756  0.00  0.00    +0.000 OA
ATOM      8  O   UNL     1       1.896   5.621  17.908  0.00  0.00    +0.000 OA
BRANCH   6   9
ATOM      9  C   UNL     1       4.029   7.176  17.517  0.00  0.00    +0.000 C 
BRANCH   9  10
ATOM     10  C   UNL     1       5.138   6.213  17.174  0.00  0.00    +0.000 A 
ATOM     11  C   UNL     1       6.353   6.252  17.874  0.00  0.00    +0.000 A 
ATOM     12  C   UNL     1       7.395   5.385  17.539  0.00  0.00    +0.000 A 
ATOM     13  C   UNL     1       7.236   4.469  16.502  0.00  0.00    +0.000 A 
ATOM     14  C   UNL     1       6.034   4.417  15.800  0.00  0.00    +0.000 A 
ATOM     15  C   UNL     1       4.989   5.283  16.134  0.00  0.00    +0.000 A 
ENDBRANCH   9  10
ENDBRANCH   6   9
ENDBRANCH   4   6
BRANCH   1  17
ATOM     16  C   UNL     1       1.620  12.057  19.131  0.00  0.00    +0.000 C 
ATOM     17  C   UNL     1       0.517  11.009  19.242  0.00  0.00    +0.000 C 
BRANCH  17  18
ATOM     18  N   UNL     1      -0.276  10.939  18.025  0.00  0.00    +0.000 N 
ATOM     19  C   UNL     1      -1.445  11.634  17.930  0.00  0.00    +0.000 C 
ATOM     20  O   UNL     1      -1.894  12.321  18.834  0.00  0.00    +0.000 OA
ATOM     21  H   UNL     1       0.072  10.490  17.188  0.00  0.00    +0.000 HD
BRANCH  19  22
ATOM     22  O   UNL     1      -2.023  11.437  16.718  0.00  0.00    +0.000 OA
BRANCH  22  23
ATOM     23  C   UNL     1      -3.234  10.634  16.641  0.00  0.00    +0.000 C 
ATOM     24  C   UNL     1      -4.492  11.512  16.709  0.00  0.00    +0.000 C 
ATOM     25  C   UNL     1      -3.207   9.948  15.264  0.00  0.00    +0.000 C 
ATOM     26  C   UNL     1      -3.241   9.533  17.712  0.00  0.00    +0.000 C 
ENDBRANCH  22  23
ENDBRANCH  19  22
ENDBRANCH  17  18
ENDBRANCH   1  17
TORSDOF 7
ENDMDL
MODEL 6
REMARK VINA RESULT:      -7.0      4.256      5.916
REMARK  Name = 
REMARK  11 active torsions:
REMARK  status: ('A' for Active; 'I' for Inactive)
REMARK    1  A    between atoms: C_1  and  C_2
REMARK    2  A    between atoms: C_2  and  N_3
REMARK    3  A    between atoms: C_2  and  C_11
REMARK    4  A    between atoms: C_4  and  O_6
REMARK    5  A    between atoms: O_6  and  C_7
REMARK    6  A    between atoms: C_7  and  C_8
REMARK    7  A    between atoms: C_7  and  C_9
REMARK    8  A    between atoms: C_7  and  C_10
REMARK    9  A    between atoms: C_14  and  S_15
REMARK   10  A    between atoms: S_15  and  C_18
REMARK   11  A    between atoms: C_18  and  C_19
REMARK                            x       y       z     vdW  Elec       q    Type
REMARK                         _______ _______ _______ _____ _____    ______ ____
ROOT
ATOM      1  C   UNL     1       5.870   4.753  17.712  0.00  0.00    +0.000 A 
ATOM      2  N   UNL     1       6.284   4.804  18.961  0.00  0.00    +0.000 NA
ATOM      3  N   UNL     1       5.426   4.016  19.696  0.00  0.00    +0.000 NA
ATOM      4  C   UNL     1       4.540   3.515  18.850  0.00  0.00    +0.000 A 
ATOM      5  O   UNL     1       4.753   3.971  17.561  0.00  0.00    +0.000 OA
ENDROOT
BRANCH   4   6
ATOM      6  S   UNL     1       3.244   2.392  19.327  0.00  0.00    +0.000 S 
ATOM      7  O   UNL     1       3.442   1.215  18.503  0.00  0.00    +0.000 OA
ATOM      8  O   UNL     1       3.307   2.336  20.775  0.00  0.00    +0.000 OA
BRANCH   6   9
ATOM      9  C   UNL     1       1.770   3.257  18.796  0.00  0.00    +0.000 C 
BRANCH   9  10
ATOM     10  C   UNL     1       1.908   4.720  19.135  0.00  0.00    +0.000 A 
ATOM     11  C   UNL     1       1.688   5.167  20.446  0.00  0.00    +0.000 A 
ATOM     12  C   UNL     1       1.782   6.525  20.760  0.00  0.00    +0.000 A 
ATOM     13  C   UNL     1       2.098   7.451  19.769  0.00  0.00    +0.000 A 
ATOM     14  C   UNL     1       2.322   7.020  18.463  0.00  0.00    +0.000 A 
ATOM     15  C   UNL     1       2.230   5.662  18.146  0.00  0.00    +0.000 A 
ENDBRANCH   9  10
ENDBRANCH   6   9
ENDBRANCH   4   6
BRANCH   1  17
ATOM     16  C   UNL     1       7.614   6.353  16.863  0.00  0.00    +0.000 C 
ATOM     17  C   UNL     1       6.447   5.434  16.512  0.00  0.00    +0.000 C 
BRANCH  17  18
ATOM     18  N   UNL     1       6.824   4.456  15.505  0.00  0.00    +0.000 N 
ATOM     19  C   UNL     1       5.974   4.171  14.477  0.00  0.00    +0.000 C 
ATOM     20  O   UNL     1       4.875   4.688  14.351  0.00  0.00    +0.000 OA
ATOM     21  H   UNL     1       7.755   4.064  15.466  0.00  0.00    +0.000 HD
BRANCH  19  22
ATOM     22  O   UNL     1       6.515   3.241  13.651  0.00  0.00    +0.000 OA
BRANCH  22  23
ATOM     23  C   UNL     1       6.407   3.431  12.212  0.00  0.00    +0.000 C 
ATOM     24  C   UNL     1       7.154   4.692  11.756  0.00  0.00    +0.000 C 
ATOM     25  C   UNL     1       7.089   2.213  11.566  0.00  0.00    +0.000 C 
ATOM     26  C   UNL     1       4.937   3.437  11.763  0.00  0.00    +0.000 C 
ENDBRANCH  22  23
ENDBRANCH  19  22
ENDBRANCH  17  18
ENDBRANCH   1  17
TORSDOF 7
ENDMDL
MODEL 7
REMARK VINA RESULT:      -7.0      2.394      8.382
REMARK  Name = 
REMARK  11 active torsions:
REMARK  status: ('A' for Active; 'I' for Inactive)
REMARK    1  A    between atoms: C_1  and  C_2
REMARK    2  A    between atoms: C_2  and  N_3
REMARK    3  A    between atoms: C_2  and  C_11
REMARK    4  A    between atoms: C_4  and  O_6
REMARK    5  A    between atoms: O_6  and  C_7
REMARK    6  A    between atoms: C_7  and  C_8
REMARK    7  A    between atoms: C_7  and  C_9
REMARK    8  A    between atoms: C_7  and  C_10
REMARK    9  A    between atoms: C_14  and  S_15
REMARK   10  A    between atoms: S_15  and  C_18
REMARK   11  A    between atoms: C_18  and  C_19
REMARK                            x       y       z     vdW  Elec       q    Type
REMARK                         _______ _______ _______ _____ _____    ______ ____
ROOT
ATOM      1  C   UNL     1       1.467   9.727  18.550  0.00  0.00    +0.000 A 
ATOM      2  N   UNL     1       2.190   9.626  17.455  0.00  0.00    +0.000 NA
ATOM      3  N   UNL     1       2.708   8.349  17.438  0.00  0.00    +0.000 NA
ATOM      4  C   UNL     1       2.259   7.735  18.522  0.00  0.00    +0.000 A 
ATOM      5  O   UNL     1       1.476   8.575  19.294  0.00  0.00    +0.000 OA
ENDROOT
BRANCH   4   6
ATOM      6  S   UNL     1       2.622   6.039  18.918  0.00  0.00    +0.000 S 
ATOM      7  O   UNL     1       2.207   5.876  20.299  0.00  0.00    +0.000 OA
ATOM      8  O   UNL     1       2.034   5.265  17.842  0.00  0.00    +0.000 OA
BRANCH   6   9
ATOM      9  C   UNL     1       4.409   5.994  18.818  0.00  0.00    +0.000 C 
BRANCH   9  10
ATOM     10  C   UNL     1       4.813   5.445  17.473  0.00  0.00    +0.000 A 
ATOM     11  C   UNL     1       5.008   4.067  17.299  0.00  0.00    +0.000 A 
ATOM     12  C   UNL     1       5.413   3.556  16.064  0.00  0.00    +0.000 A 
ATOM     13  C   UNL     1       5.629   4.415  14.990  0.00  0.00    +0.000 A 
ATOM     14  C   UNL     1       5.437   5.785  15.147  0.00  0.00    +0.000 A 
ATOM     15  C   UNL     1       5.029   6.300  16.382  0.00  0.00    +0.000 A 
ENDBRANCH   9  10
ENDBRANCH   6   9
ENDBRANCH   4   6
BRANCH   1  17
ATOM     16  C   UNL     1       1.591  12.082  19.421  0.00  0.00    +0.000 C 
ATOM     17  C   UNL     1       0.694  10.907  19.047  0.00  0.00    +0.000 C 
BRANCH  17  18
ATOM     18  N   UNL     1      -0.319  11.296  18.079  0.00  0.00    +0.000 N 
ATOM     19  C   UNL     1      -1.587  11.579  18.492  0.00  0.00    +0.000 C 
ATOM     20  O   UNL     1      -1.946  11.508  19.657  0.00  0.00    +0.000 OA
ATOM     21  H   UNL     1      -0.085  11.490  17.115  0.00  0.00    +0.000 HD
BRANCH  19  22
ATOM     22  O   UNL     1      -2.369  11.923  17.438  0.00  0.00    +0.000 OA
BRANCH  22  23
ATOM     23  C   UNL     1      -3.284  10.933  16.891  0.00  0.00    +0.000 C 
ATOM     24  C   UNL     1      -4.731  11.445  16.897  0.00  0.00    +0.000 C 
ATOM     25  C   UNL     1      -2.861  10.720  15.427  0.00  0.00    +0.000 C 
ATOM     26  C   UNL     1      -3.146   9.586  17.618  0.00  0.00    +0.000 C 
ENDBRANCH  22  23
ENDBRANCH  19  22
ENDBRANCH  17  18
ENDBRANCH   1  17
TORSDOF 7
ENDMDL
MODEL 8
REMARK VINA RESULT:      -6.9      1.743      2.498
REMARK  Name = 
REMARK  11 active torsions:
REMARK  status: ('A' for Active; 'I' for Inactive)
REMARK    1  A    between atoms: C_1  and  C_2
REMARK    2  A    between atoms: C_2  and  N_3
REMARK    3  A    between atoms: C_2  and  C_11
REMARK    4  A    between atoms: C_4  and  O_6
REMARK    5  A    between atoms: O_6  and  C_7
REMARK    6  A    between atoms: C_7  and  C_8
REMARK    7  A    between atoms: C_7  and  C_9
REMARK    8  A    between atoms: C_7  and  C_10
REMARK    9  A    between atoms: C_14  and  S_15
REMARK   10  A    between atoms: S_15  and  C_18
REMARK   11  A    between atoms: C_18  and  C_19
REMARK                            x       y       z     vdW  Elec       q    Type
REMARK                         _______ _______ _______ _____ _____    ______ ____
ROOT
ATOM      1  C   UNL     1       2.341   7.761  18.952  0.00  0.00    +0.000 A 
ATOM      2  N   UNL     1       2.559   8.253  17.750  0.00  0.00    +0.000 NA
ATOM      3  N   UNL     1       1.878   9.449  17.682  0.00  0.00    +0.000 NA
ATOM      4  C   UNL     1       1.290   9.627  18.855  0.00  0.00    +0.000 A 
ATOM      5  O   UNL     1       1.527   8.563  19.709  0.00  0.00    +0.000 OA
ENDROOT
BRANCH   4   6
ATOM      6  S   UNL     1       0.324  11.063  19.267  0.00  0.00    +0.000 S 
ATOM      7  O   UNL     1       0.871  11.539  20.524  0.00  0.00    +0.000 OA
ATOM      8  O   UNL     1       0.330  11.879  18.069  0.00  0.00    +0.000 OA
BRANCH   6   9
ATOM      9  C   UNL     1      -1.301  10.367  19.544  0.00  0.00    +0.000 C 
BRANCH   9  10
ATOM     10  C   UNL     1      -2.125  10.524  18.290  0.00  0.00    +0.000 A 
ATOM     11  C   UNL     1      -1.798   9.803  17.133  0.00  0.00    +0.000 A 
ATOM     12  C   UNL     1      -2.536   9.968  15.959  0.00  0.00    +0.000 A 
ATOM     13  C   UNL     1      -3.610  10.854  15.928  0.00  0.00    +0.000 A 
ATOM     14  C   UNL     1      -3.947  11.576  17.071  0.00  0.00    +0.000 A 
ATOM     15  C   UNL     1      -3.211  11.411  18.248  0.00  0.00    +0.000 A 
ENDBRANCH   9  10
ENDBRANCH   6   9
ENDBRANCH   4   6
BRANCH   1  17
ATOM     16  C   UNL     1       1.789   5.755  20.363  0.00  0.00    +0.000 C 
ATOM     17  C   UNL     1       2.847   6.481  19.538  0.00  0.00    +0.000 C 
BRANCH  17  18
ATOM     18  N   UNL     1       3.390   5.625  18.496  0.00  0.00    +0.000 N 
ATOM     19  C   UNL     1       4.651   5.119  18.615  0.00  0.00    +0.000 C 
ATOM     20  O   UNL     1       5.384   5.358  19.562  0.00  0.00    +0.000 OA
ATOM     21  H   UNL     1       2.818   5.283  17.736  0.00  0.00    +0.000 HD
BRANCH  19  22
ATOM     22  O   UNL     1       4.961   4.347  17.544  0.00  0.00    +0.000 OA
BRANCH  22  23
ATOM     23  C   UNL     1       5.932   4.842  16.579  0.00  0.00    +0.000 C 
ATOM     24  C   UNL     1       5.692   4.243  15.187  0.00  0.00    +0.000 C 
ATOM     25  C   UNL     1       5.711   6.361  16.489  0.00  0.00    +0.000 C 
ATOM     26  C   UNL     1       7.370   4.606  17.068  0.00  0.00    +0.000 C 
ENDBRANCH  22  23
ENDBRANCH  19  22
ENDBRANCH  17  18
ENDBRANCH   1  17
TORSDOF 7
ENDMDL
MODEL 9
REMARK VINA RESULT:      -6.9      1.485      1.987
REMARK  Name = 
REMARK  11 active torsions:
REMARK  status: ('A' for Active; 'I' for Inactive)
REMARK    1  A    between atoms: C_1  and  C_2
REMARK    2  A    between atoms: C_2  and  N_3
REMARK    3  A    between atoms: C_2  and  C_11
REMARK    4  A    between atoms: C_4  and  O_6
REMARK    5  A    between atoms: O_6  and  C_7
REMARK    6  A    between atoms: C_7  and  C_8
REMARK    7  A    between atoms: C_7  and  C_9
REMARK    8  A    between atoms: C_7  and  C_10
REMARK    9  A    between atoms: C_14  and  S_15
REMARK   10  A    between atoms: S_15  and  C_18
REMARK   11  A    between atoms: C_18  and  C_19
REMARK                            x       y       z     vdW  Elec       q    Type
REMARK                         _______ _______ _______ _____ _____    ______ ____
ROOT
ATOM      1  C   UNL     1       2.251   7.706  19.081  0.00  0.00    +0.000 A 
ATOM      2  N   UNL     1       2.163   8.253  17.886  0.00  0.00    +0.000 NA
ATOM      3  N   UNL     1       1.475   9.437  18.042  0.00  0.00    +0.000 NA
ATOM      4  C   UNL     1       1.193   9.554  19.330  0.00  0.00    +0.000 A 
ATOM      5  O   UNL     1       1.641   8.460  20.051  0.00  0.00    +0.000 OA
ENDROOT
BRANCH   4   6
ATOM      6  S   UNL     1       0.345  10.952  20.032  0.00  0.00    +0.000 S 
ATOM      7  O   UNL     1      -0.756  10.387  20.789  0.00  0.00    +0.000 OA
ATOM      8  O   UNL     1       1.383  11.746  20.661  0.00  0.00    +0.000 OA
BRANCH   6   9
ATOM      9  C   UNL     1      -0.289  11.787  18.581  0.00  0.00    +0.000 C 
BRANCH   9  10
ATOM     10  C   UNL     1      -1.702  11.325  18.326  0.00  0.00    +0.000 A 
ATOM     11  C   UNL     1      -1.945  10.186  17.545  0.00  0.00    +0.000 A 
ATOM     12  C   UNL     1      -3.252   9.772  17.279  0.00  0.00    +0.000 A 
ATOM     13  C   UNL     1      -4.330  10.491  17.788  0.00  0.00    +0.000 A 
ATOM     14  C   UNL     1      -4.104  11.623  18.567  0.00  0.00    +0.000 A 
ATOM     15  C   UNL     1      -2.796  12.039  18.837  0.00  0.00    +0.000 A 
ENDBRANCH   9  10
ENDBRANCH   6   9
ENDBRANCH   4   6
BRANCH   1  17
ATOM     16  C   UNL     1       1.900   5.405  20.030  0.00  0.00    +0.000 C 
ATOM     17  C   UNL     1       2.897   6.413  19.466  0.00  0.00    +0.000 C 
BRANCH  17  18
ATOM     18  N   UNL     1       3.637   5.861  18.344  0.00  0.00    +0.000 N 
ATOM     19  C   UNL     1       4.864   5.299  18.544  0.00  0.00    +0.000 C 
ATOM     20  O   UNL     1       5.407   5.243  19.636  0.00  0.00    +0.000 OA
ATOM     21  H   UNL     1       3.220   5.761  17.428  0.00  0.00    +0.000 HD
BRANCH  19  22
ATOM     22  O   UNL     1       5.379   4.844  17.375  0.00  0.00    +0.000 OA
BRANCH  22  23
ATOM     23  C   UNL     1       6.694   5.307  16.959  0.00  0.00    +0.000 C 
ATOM     24  C   UNL     1       7.811   4.488  17.622  0.00  0.00    +0.000 C 
ATOM     25  C   UNL     1       6.771   5.074  15.440  0.00  0.00    +0.000 C 
ATOM     26  C   UNL     1       6.857   6.814  17.209  0.00  0.00    +0.000 C 
ENDBRANCH  22  23
ENDBRANCH  19  22
ENDBRANCH  17  18
ENDBRANCH   1  17
TORSDOF 7
ENDMDL
