MODEL 1
REMARK VINA RESULT:      -7.8      0.000      0.000
REMARK  Name = 
REMARK  5 active torsions:
REMARK  status: ('A' for Active; 'I' for Inactive)
REMARK    1  A    between atoms: C_1  and  C_2
REMARK    2  A    between atoms: C_2  and  C_3
REMARK    3  A    between atoms: C_2  and  C_4
REMARK    4  A    between atoms: C_2  and  N_5
REMARK    5  A    between atoms: C_13  and  O_14
REMARK                            x       y       z     vdW  Elec       q    Type
REMARK                         _______ _______ _______ _____ _____    ______ ____
ROOT
ATOM      1  N   UNL     1       2.448   5.541  19.577  0.00  0.00    +0.000 N 
ATOM      2  N   UNL     1       1.765   6.368  20.406  0.00  0.00    +0.000 NA
ATOM      3  C   UNL     1       1.716   7.565  19.797  0.00  0.00    +0.000 A 
ATOM      4  C   UNL     1       1.131   8.802  20.161  0.00  0.00    +0.000 A 
ATOM      5  C   UNL     1       1.300   9.826  19.207  0.00  0.00    +0.000 A 
ATOM      6  C   UNL     1       2.005   9.648  17.970  0.00  0.00    +0.000 A 
ATOM      7  C   UNL     1       2.606   8.439  17.581  0.00  0.00    +0.000 A 
ATOM      8  C   UNL     1       2.422   7.452  18.536  0.00  0.00    +0.000 A 
ATOM      9  C   UNL     1       2.892   6.168  18.436  0.00  0.00    +0.000 A 
ATOM     10  C   UNL     1       0.724  11.162  19.475  0.00  0.00    +0.000 C 
ATOM     11  O   UNL     1       0.854  12.065  18.652  0.00  0.00    +0.000 OA
ATOM     12  C   UNL     1      -0.004  11.404  20.732  0.00  0.00    +0.000 A 
ATOM     13  C   UNL     1      -0.541  12.675  20.982  0.00  0.00    +0.000 A 
ATOM     14  C   UNL     1      -1.232  12.919  22.169  0.00  0.00    +0.000 A 
ATOM     15  C   UNL     1      -1.389  11.899  23.107  0.00  0.00    +0.000 A 
ATOM     16  C   UNL     1      -0.855  10.633  22.858  0.00  0.00    +0.000 A 
ATOM     17  C   UNL     1      -0.160  10.381  21.667  0.00  0.00    +0.000 A 
ATOM     18  C   UNL     1       0.400   9.034  21.417  0.00  0.00    +0.000 C 
ATOM     19  O   UNL     1       0.242   8.161  22.258  0.00  0.00    +0.000 OA
ENDROOT
BRANCH   1  21
ATOM     20  C   UNL     1       4.046   3.648  19.728  0.00  0.00    +0.000 C 
ATOM     21  C   UNL     1       2.582   4.105  19.901  0.00  0.00    +0.000 C 
ATOM     22  C   UNL     1       1.713   3.230  18.973  0.00  0.00    +0.000 C 
ATOM     23  C   UNL     1       2.125   3.854  21.355  0.00  0.00    +0.000 C 
ENDBRANCH   1  21
BRANCH   9  24
ATOM     24  O   UNL     1       3.606   5.530  17.508  0.00  0.00    +0.000 OA
ATOM     25  H   UNL     1       3.147   5.637  16.659  0.00  0.00    +0.000 HD
ENDBRANCH   9  24
TORSDOF 2
ENDMDL
MODEL 2
REMARK VINA RESULT:      -7.8      1.178      1.907
REMARK  Name = 
REMARK  5 active torsions:
REMARK  status: ('A' for Active; 'I' for Inactive)
REMARK    1  A    between atoms: C_1  and  C_2
REMARK    2  A    between atoms: C_2  and  C_3
REMARK    3  A    between atoms: C_2  and  C_4
REMARK    4  A    between atoms: C_2  and  N_5
REMARK    5  A    between atoms: C_13  and  O_14
REMARK                            x       y       z     vdW  Elec       q    Type
REMARK                         _______ _______ _______ _____ _____    ______ ____
ROOT
ATOM      1  N   UNL     1       2.972   4.274  19.669  0.00  0.00    +0.000 N 
ATOM      2  N   UNL     1       2.279   5.285  20.251  0.00  0.00    +0.000 NA
ATOM      3  C   UNL     1       2.443   6.362  19.465  0.00  0.00    +0.000 A 
ATOM      4  C   UNL     1       1.954   7.689  19.543  0.00  0.00    +0.000 A 
ATOM      5  C   UNL     1       2.361   8.519  18.479  0.00  0.00    +0.000 A 
ATOM      6  C   UNL     1       3.199   8.077  17.403  0.00  0.00    +0.000 A 
ATOM      7  C   UNL     1       3.711   6.771  17.299  0.00  0.00    +0.000 A 
ATOM      8  C   UNL     1       3.294   5.978  18.356  0.00  0.00    +0.000 A 
ATOM      9  C   UNL     1       3.629   4.660  18.525  0.00  0.00    +0.000 A 
ATOM     10  C   UNL     1       1.904   9.926  18.450  0.00  0.00    +0.000 C 
ATOM     11  O   UNL     1       2.241  10.664  17.527  0.00  0.00    +0.000 OA
ATOM     12  C   UNL     1       1.046  10.438  19.532  0.00  0.00    +0.000 A 
ATOM     13  C   UNL     1       0.623  11.774  19.502  0.00  0.00    +0.000 A 
ATOM     14  C   UNL     1      -0.188  12.273  20.521  0.00  0.00    +0.000 A 
ATOM     15  C   UNL     1      -0.580  11.442  21.569  0.00  0.00    +0.000 A 
ATOM     16  C   UNL     1      -0.160  10.111  21.600  0.00  0.00    +0.000 A 
ATOM     17  C   UNL     1       0.656   9.604  20.579  0.00  0.00    +0.000 A 
ATOM     18  C   UNL     1       1.093   8.191  20.626  0.00  0.00    +0.000 C 
ATOM     19  O   UNL     1       0.729   7.488  21.557  0.00  0.00    +0.000 OA
ENDROOT
BRANCH   1  21
ATOM     20  C   UNL     1       2.265   2.931  21.633  0.00  0.00    +0.000 C 
ATOM     21  C   UNL     1       2.903   2.907  20.227  0.00  0.00    +0.000 C 
ATOM     22  C   UNL     1       4.306   2.279  20.368  0.00  0.00    +0.000 C 
ATOM     23  C   UNL     1       2.069   2.003  19.291  0.00  0.00    +0.000 C 
ENDBRANCH   1  21
BRANCH   9  24
ATOM     24  O   UNL     1       4.387   3.815  17.823  0.00  0.00    +0.000 OA
ATOM     25  H   UNL     1       3.851   3.028  17.633  0.00  0.00    +0.000 HD
ENDBRANCH   9  24
TORSDOF 2
ENDMDL
MODEL 3
REMARK VINA RESULT:      -7.7      2.285      4.008
REMARK  Name = 
REMARK  5 active torsions:
REMARK  status: ('A' for Active; 'I' for Inactive)
REMARK    1  A    between atoms: C_1  and  C_2
REMARK    2  A    between atoms: C_2  and  C_3
REMARK    3  A    between atoms: C_2  and  C_4
REMARK    4  A    between atoms: C_2  and  N_5
REMARK    5  A    between atoms: C_13  and  O_14
REMARK                            x       y       z     vdW  Elec       q    Type
REMARK                         _______ _______ _______ _____ _____    ______ ____
ROOT
ATOM      1  N   UNL     1       4.686   5.157  17.362  0.00  0.00    +0.000 N 
ATOM      2  N   UNL     1       4.052   6.355  17.320  0.00  0.00    +0.000 NA
ATOM      3  C   UNL     1       3.287   6.422  18.423  0.00  0.00    +0.000 A 
ATOM      4  C   UNL     1       2.421   7.421  18.929  0.00  0.00    +0.000 A 
ATOM      5  C   UNL     1       1.810   7.091  20.155  0.00  0.00    +0.000 A 
ATOM      6  C   UNL     1       2.031   5.852  20.843  0.00  0.00    +0.000 A 
ATOM      7  C   UNL     1       2.875   4.834  20.366  0.00  0.00    +0.000 A 
ATOM      8  C   UNL     1       3.463   5.187  19.161  0.00  0.00    +0.000 A 
ATOM      9  C   UNL     1       4.335   4.400  18.455  0.00  0.00    +0.000 A 
ATOM     10  C   UNL     1       0.889   8.063  20.785  0.00  0.00    +0.000 C 
ATOM     11  O   UNL     1       0.352   7.796  21.858  0.00  0.00    +0.000 OA
ATOM     12  C   UNL     1       0.620   9.349  20.121  0.00  0.00    +0.000 A 
ATOM     13  C   UNL     1      -0.260  10.262  20.720  0.00  0.00    +0.000 A 
ATOM     14  C   UNL     1      -0.526  11.483  20.101  0.00  0.00    +0.000 A 
ATOM     15  C   UNL     1       0.082  11.797  18.887  0.00  0.00    +0.000 A 
ATOM     16  C   UNL     1       0.958  10.888  18.289  0.00  0.00    +0.000 A 
ATOM     17  C   UNL     1       1.230   9.659  18.906  0.00  0.00    +0.000 A 
ATOM     18  C   UNL     1       2.161   8.707  18.261  0.00  0.00    +0.000 C 
ATOM     19  O   UNL     1       2.680   9.013  17.198  0.00  0.00    +0.000 OA
ENDROOT
BRANCH   1  21
ATOM     20  C   UNL     1       5.674   5.843  15.192  0.00  0.00    +0.000 C 
ATOM     21  C   UNL     1       5.701   4.815  16.344  0.00  0.00    +0.000 C 
ATOM     22  C   UNL     1       5.442   3.424  15.727  0.00  0.00    +0.000 C 
ATOM     23  C   UNL     1       7.104   4.794  16.991  0.00  0.00    +0.000 C 
ENDBRANCH   1  21
BRANCH   9  24
ATOM     24  O   UNL     1       4.831   3.179  18.661  0.00  0.00    +0.000 OA
ATOM     25  H   UNL     1       4.287   2.552  18.156  0.00  0.00    +0.000 HD
ENDBRANCH   9  24
TORSDOF 2
ENDMDL
MODEL 4
REMARK VINA RESULT:      -7.6      5.673      7.707
REMARK  Name = 
REMARK  5 active torsions:
REMARK  status: ('A' for Active; 'I' for Inactive)
REMARK    1  A    between atoms: C_1  and  C_2
REMARK    2  A    between atoms: C_2  and  C_3
REMARK    3  A    between atoms: C_2  and  C_4
REMARK    4  A    between atoms: C_2  and  N_5
REMARK    5  A    between atoms: C_13  and  O_14
REMARK                            x       y       z     vdW  Elec       q    Type
REMARK                         _______ _______ _______ _____ _____    ______ ____
ROOT
ATOM      1  N   UNL     1       6.070   4.043  13.655  0.00  0.00    +0.000 N 
ATOM      2  N   UNL     1       5.032   3.673  14.445  0.00  0.00    +0.000 NA
ATOM      3  C   UNL     1       5.225   4.268  15.635  0.00  0.00    +0.000 A 
ATOM      4  C   UNL     1       4.479   4.270  16.837  0.00  0.00    +0.000 A 
ATOM      5  C   UNL     1       5.039   5.056  17.865  0.00  0.00    +0.000 A 
ATOM      6  C   UNL     1       6.260   5.794  17.722  0.00  0.00    +0.000 A 
ATOM      7  C   UNL     1       7.032   5.807  16.548  0.00  0.00    +0.000 A 
ATOM      8  C   UNL     1       6.457   5.028  15.556  0.00  0.00    +0.000 A 
ATOM      9  C   UNL     1       6.978   4.848  14.301  0.00  0.00    +0.000 A 
ATOM     10  C   UNL     1       4.341   5.142  19.166  0.00  0.00    +0.000 C 
ATOM     11  O   UNL     1       4.809   5.828  20.072  0.00  0.00    +0.000 OA
ATOM     12  C   UNL     1       3.086   4.400  19.372  0.00  0.00    +0.000 A 
ATOM     13  C   UNL     1       2.434   4.479  20.611  0.00  0.00    +0.000 A 
ATOM     14  C   UNL     1       1.245   3.781  20.820  0.00  0.00    +0.000 A 
ATOM     15  C   UNL     1       0.704   3.003  19.798  0.00  0.00    +0.000 A 
ATOM     16  C   UNL     1       1.352   2.924  18.564  0.00  0.00    +0.000 A 
ATOM     17  C   UNL     1       2.547   3.623  18.346  0.00  0.00    +0.000 A 
ATOM     18  C   UNL     1       3.222   3.529  17.033  0.00  0.00    +0.000 C 
ATOM     19  O   UNL     1       2.720   2.842  16.156  0.00  0.00    +0.000 OA
ENDROOT
BRANCH   1  21
ATOM     20  C   UNL     1       4.668   3.622  11.651  0.00  0.00    +0.000 C 
ATOM     21  C   UNL     1       6.099   3.649  12.230  0.00  0.00    +0.000 C 
ATOM     22  C   UNL     1       6.700   2.239  12.043  0.00  0.00    +0.000 C 
ATOM     23  C   UNL     1       6.966   4.646  11.430  0.00  0.00    +0.000 C 
ENDBRANCH   1  21
BRANCH   9  24
ATOM     24  O   UNL     1       8.082   5.296  13.700  0.00  0.00    +0.000 OA
ATOM     25  H   UNL     1       8.801   5.271  14.352  0.00  0.00    +0.000 HD
ENDBRANCH   9  24
TORSDOF 2
ENDMDL
MODEL 5
REMARK VINA RESULT:      -7.6      2.361      7.572
REMARK  Name = 
REMARK  5 active torsions:
REMARK  status: ('A' for Active; 'I' for Inactive)
REMARK    1  A    between atoms: C_1  and  C_2
REMARK    2  A    between atoms: C_2  and  C_3
REMARK    3  A    between atoms: C_2  and  C_4
REMARK    4  A    between atoms: C_2  and  N_5
REMARK    5  A    between atoms: C_13  and  O_14
REMARK                            x       y       z     vdW  Elec       q    Type
REMARK                         _______ _______ _______ _____ _____    ______ ____
ROOT
ATOM      1  N   UNL     1       1.076   9.367  19.937  0.00  0.00    +0.000 N 
ATOM      2  N   UNL     1       1.915   8.958  18.953  0.00  0.00    +0.000 NA
ATOM      3  C   UNL     1       2.202   7.669  19.207  0.00  0.00    +0.000 A 
ATOM      4  C   UNL     1       3.001   6.715  18.532  0.00  0.00    +0.000 A 
ATOM      5  C   UNL     1       3.019   5.443  19.139  0.00  0.00    +0.000 A 
ATOM      6  C   UNL     1       2.300   5.125  20.338  0.00  0.00    +0.000 A 
ATOM      7  C   UNL     1       1.505   6.049  21.039  0.00  0.00    +0.000 A 
ATOM      8  C   UNL     1       1.504   7.289  20.420  0.00  0.00    +0.000 A 
ATOM      9  C   UNL     1       0.820   8.388  20.869  0.00  0.00    +0.000 A 
ATOM     10  C   UNL     1       3.815   4.361  18.518  0.00  0.00    +0.000 C 
ATOM     11  O   UNL     1       3.838   3.243  19.027  0.00  0.00    +0.000 OA
ATOM     12  C   UNL     1       4.580   4.631  17.289  0.00  0.00    +0.000 A 
ATOM     13  C   UNL     1       5.338   3.604  16.710  0.00  0.00    +0.000 A 
ATOM     14  C   UNL     1       6.069   3.846  15.547  0.00  0.00    +0.000 A 
ATOM     15  C   UNL     1       6.046   5.109  14.959  0.00  0.00    +0.000 A 
ATOM     16  C   UNL     1       5.291   6.133  15.535  0.00  0.00    +0.000 A 
ATOM     17  C   UNL     1       4.554   5.897  16.703  0.00  0.00    +0.000 A 
ATOM     18  C   UNL     1       3.759   6.992  17.301  0.00  0.00    +0.000 C 
ATOM     19  O   UNL     1       3.757   8.087  16.759  0.00  0.00    +0.000 OA
ENDROOT
BRANCH   1  21
ATOM     20  C   UNL     1       1.272  11.627  18.932  0.00  0.00    +0.000 C 
ATOM     21  C   UNL     1       0.473  10.716  19.888  0.00  0.00    +0.000 C 
ATOM     22  C   UNL     1       0.476  11.389  21.278  0.00  0.00    +0.000 C 
ATOM     23  C   UNL     1      -0.993  10.616  19.412  0.00  0.00    +0.000 C 
ENDBRANCH   1  21
BRANCH   9  24
ATOM     24  O   UNL     1       0.038   8.604  21.928  0.00  0.00    +0.000 OA
ATOM     25  H   UNL     1       0.369   9.397  22.380  0.00  0.00    +0.000 HD
ENDBRANCH   9  24
TORSDOF 2
ENDMDL
MODEL 6
REMARK VINA RESULT:      -7.6      1.974      3.499
REMARK  Name = 
REMARK  5 active torsions:
REMARK  status: ('A' for Active; 'I' for Inactive)
REMARK    1  A    between atoms: C_1  and  C_2
REMARK    2  A    between atoms: C_2  and  C_3
REMARK    3  A    between atoms: C_2  and  C_4
REMARK    4  A    between atoms: C_2  and  N_5
REMARK    5  A    between atoms: C_13  and  O_14
REMARK                            x       y       z     vdW  Elec       q    Type
REMARK                         _______ _______ _______ _____ _____    ______ ____
ROOT
ATOM      1  N   UNL     1       4.031   5.904  17.803  0.00  0.00    +0.000 N 
ATOM      2  N   UNL     1       3.463   7.134  17.732  0.00  0.00    +0.000 NA
ATOM      3  C   UNL     1       2.641   7.236  18.791  0.00  0.00    +0.000 A 
ATOM      4  C   UNL     1       1.800   8.277  19.254  0.00  0.00    +0.000 A 
ATOM      5  C   UNL     1       1.104   7.973  20.441  0.00  0.00    +0.000 A 
ATOM      6  C   UNL     1       1.222   6.723  21.132  0.00  0.00    +0.000 A 
ATOM      7  C   UNL     1       2.039   5.664  20.697  0.00  0.00    +0.000 A 
ATOM      8  C   UNL     1       2.711   5.991  19.530  0.00  0.00    +0.000 A 
ATOM      9  C   UNL     1       3.581   5.162  18.869  0.00  0.00    +0.000 A 
ATOM     10  C   UNL     1       0.200   8.989  21.025  0.00  0.00    +0.000 C 
ATOM     11  O   UNL     1      -0.409   8.747  22.064  0.00  0.00    +0.000 OA
ATOM     12  C   UNL     1       0.035  10.290  20.355  0.00  0.00    +0.000 A 
ATOM     13  C   UNL     1      -0.829  11.245  20.909  0.00  0.00    +0.000 A 
ATOM     14  C   UNL     1      -0.997  12.481  20.284  0.00  0.00    +0.000 A 
ATOM     15  C   UNL     1      -0.306  12.766  19.108  0.00  0.00    +0.000 A 
ATOM     16  C   UNL     1       0.554  11.816  18.555  0.00  0.00    +0.000 A 
ATOM     17  C   UNL     1       0.728  10.573  19.178  0.00  0.00    +0.000 A 
ATOM     18  C   UNL     1       1.644   9.576  18.580  0.00  0.00    +0.000 C 
ATOM     19  O   UNL     1       2.238   9.859  17.550  0.00  0.00    +0.000 OA
ENDROOT
BRANCH   1  21
ATOM     20  C   UNL     1       5.156   6.531  15.681  0.00  0.00    +0.000 C 
ATOM     21  C   UNL     1       5.084   5.515  16.841  0.00  0.00    +0.000 C 
ATOM     22  C   UNL     1       4.803   4.128  16.223  0.00  0.00    +0.000 C 
ATOM     23  C   UNL     1       6.449   5.447  17.560  0.00  0.00    +0.000 C 
ENDBRANCH   1  21
BRANCH   9  24
ATOM     24  O   UNL     1       4.001   3.917  19.095  0.00  0.00    +0.000 OA
ATOM     25  H   UNL     1       3.956   3.435  18.253  0.00  0.00    +0.000 HD
ENDBRANCH   9  24
TORSDOF 2
ENDMDL
MODEL 7
REMARK VINA RESULT:      -7.5      0.733      1.140
REMARK  Name = 
REMARK  5 active torsions:
REMARK  status: ('A' for Active; 'I' for Inactive)
REMARK    1  A    between atoms: C_1  and  C_2
REMARK    2  A    between atoms: C_2  and  C_3
REMARK    3  A    between atoms: C_2  and  C_4
REMARK    4  A    between atoms: C_2  and  N_5
REMARK    5  A    between atoms: C_13  and  O_14
REMARK                            x       y       z     vdW  Elec       q    Type
REMARK                         _______ _______ _______ _____ _____    ______ ____
ROOT
ATOM      1  N   UNL     1       2.440   6.310  19.505  0.00  0.00    +0.000 N 
ATOM      2  N   UNL     1       1.697   7.047  20.369  0.00  0.00    +0.000 NA
ATOM      3  C   UNL     1       1.547   8.258  19.806  0.00  0.00    +0.000 A 
ATOM      4  C   UNL     1       0.867   9.429  20.220  0.00  0.00    +0.000 A 
ATOM      5  C   UNL     1       0.946  10.498  19.305  0.00  0.00    +0.000 A 
ATOM      6  C   UNL     1       1.654  10.426  18.060  0.00  0.00    +0.000 A 
ATOM      7  C   UNL     1       2.349   9.285  17.622  0.00  0.00    +0.000 A 
ATOM      8  C   UNL     1       2.252   8.250  18.539  0.00  0.00    +0.000 A 
ATOM      9  C   UNL     1       2.823   7.014  18.388  0.00  0.00    +0.000 A 
ATOM     10  C   UNL     1       0.266  11.772  19.627  0.00  0.00    +0.000 C 
ATOM     11  O   UNL     1       0.317  12.714  18.839  0.00  0.00    +0.000 OA
ATOM     12  C   UNL     1      -0.471  11.906  20.895  0.00  0.00    +0.000 A 
ATOM     13  C   UNL     1      -1.107  13.118  21.197  0.00  0.00    +0.000 A 
ATOM     14  C   UNL     1      -1.807  13.260  22.395  0.00  0.00    +0.000 A 
ATOM     15  C   UNL     1      -1.875  12.196  23.293  0.00  0.00    +0.000 A 
ATOM     16  C   UNL     1      -1.242  10.988  22.993  0.00  0.00    +0.000 A 
ATOM     17  C   UNL     1      -0.537  10.839  21.791  0.00  0.00    +0.000 A 
ATOM     18  C   UNL     1       0.128   9.553  21.487  0.00  0.00    +0.000 C 
ATOM     19  O   UNL     1       0.047   8.638  22.294  0.00  0.00    +0.000 OA
ENDROOT
BRANCH   1  21
ATOM     20  C   UNL     1       1.962   4.000  18.734  0.00  0.00    +0.000 C 
ATOM     21  C   UNL     1       2.691   4.878  19.773  0.00  0.00    +0.000 C 
ATOM     22  C   UNL     1       2.178   4.463  21.169  0.00  0.00    +0.000 C 
ATOM     23  C   UNL     1       4.209   4.596  19.721  0.00  0.00    +0.000 C 
ENDBRANCH   1  21
BRANCH   9  24
ATOM     24  O   UNL     1       3.581   6.472  17.433  0.00  0.00    +0.000 OA
ATOM     25  H   UNL     1       3.291   6.842  16.583  0.00  0.00    +0.000 HD
ENDBRANCH   9  24
TORSDOF 2
ENDMDL
MODEL 8
REMARK VINA RESULT:      -7.1      1.509      6.645
REMARK  Name = 
REMARK  5 active torsions:
REMARK  status: ('A' for Active; 'I' for Inactive)
REMARK    1  A    between atoms: C_1  and  C_2
REMARK    2  A    between atoms: C_2  and  C_3
REMARK    3  A    between atoms: C_2  and  C_4
REMARK    4  A    between atoms: C_2  and  N_5
REMARK    5  A    between atoms: C_13  and  O_14
REMARK                            x       y       z     vdW  Elec       q    Type
REMARK                         _______ _______ _______ _____ _____    ______ ____
ROOT
ATOM      1  N   UNL     1       0.373  10.604  20.106  0.00  0.00    +0.000 N 
ATOM      2  N   UNL     1       0.574   9.335  20.542  0.00  0.00    +0.000 NA
ATOM      3  C   UNL     1       1.369   8.741  19.636  0.00  0.00    +0.000 A 
ATOM      4  C   UNL     1       1.926   7.442  19.555  0.00  0.00    +0.000 A 
ATOM      5  C   UNL     1       2.737   7.229  18.422  0.00  0.00    +0.000 A 
ATOM      6  C   UNL     1       2.984   8.229  17.425  0.00  0.00    +0.000 A 
ATOM      7  C   UNL     1       2.440   9.525  17.466  0.00  0.00    +0.000 A 
ATOM      8  C   UNL     1       1.650   9.706  18.591  0.00  0.00    +0.000 A 
ATOM      9  C   UNL     1       0.990  10.865  18.905  0.00  0.00    +0.000 A 
ATOM     10  C   UNL     1       3.380   5.910  18.235  0.00  0.00    +0.000 C 
ATOM     11  O   UNL     1       4.097   5.707  17.258  0.00  0.00    +0.000 OA
ATOM     12  C   UNL     1       3.157   4.843  19.225  0.00  0.00    +0.000 A 
ATOM     13  C   UNL     1       3.763   3.592  19.038  0.00  0.00    +0.000 A 
ATOM     14  C   UNL     1       3.559   2.571  19.966  0.00  0.00    +0.000 A 
ATOM     15  C   UNL     1       2.752   2.794  21.080  0.00  0.00    +0.000 A 
ATOM     16  C   UNL     1       2.147   4.038  21.267  0.00  0.00    +0.000 A 
ATOM     17  C   UNL     1       2.348   5.069  20.339  0.00  0.00    +0.000 A 
ATOM     18  C   UNL     1       1.702   6.382  20.552  0.00  0.00    +0.000 C 
ATOM     19  O   UNL     1       1.003   6.546  21.540  0.00  0.00    +0.000 OA
ENDROOT
BRANCH   1  21
ATOM     20  C   UNL     1      -1.693  11.971  20.251  0.00  0.00    +0.000 C 
ATOM     21  C   UNL     1      -0.372  11.569  20.942  0.00  0.00    +0.000 C 
ATOM     22  C   UNL     1       0.439  12.862  21.175  0.00  0.00    +0.000 C 
ATOM     23  C   UNL     1      -0.674  10.942  22.321  0.00  0.00    +0.000 C 
ENDBRANCH   1  21
BRANCH   9  24
ATOM     24  O   UNL     1       0.889  12.049  18.299  0.00  0.00    +0.000 OA
ATOM     25  H   UNL     1       0.908  11.890  17.341  0.00  0.00    +0.000 HD
ENDBRANCH   9  24
TORSDOF 2
ENDMDL
