MODEL 1
REMARK VINA RESULT:      -6.9      0.000      0.000
REMARK  Name = 
REMARK  4 active torsions:
REMARK  status: ('A' for Active; 'I' for Inactive)
REMARK    1  A    between atoms: N_1  and  C_2
REMARK    2  A    between atoms: C_7  and  C_8
REMARK    3  A    between atoms: N_10  and  C_11
REMARK    4  A    between atoms: C_15  and  O_16
REMARK                            x       y       z     vdW  Elec       q    Type
REMARK                         _______ _______ _______ _____ _____    ______ ____
ROOT
ATOM      1  C   UNL     1       5.366   5.165  15.392  0.00  0.00    +0.000 C 
ATOM      2  O   UNL     1       5.623   6.347  15.591  0.00  0.00    +0.000 OA
ATOM      3  N   UNL     1       4.594   4.365  16.234  0.00  0.00    +0.000 N 
ATOM      4  H   UNL     1       4.345   3.442  15.900  0.00  0.00    +0.000 HD
ENDROOT
BRANCH   3   5
ATOM      5  C   UNL     1       3.963   4.784  17.434  0.00  0.00    +0.000 A 
ATOM      6  C   UNL     1       3.471   6.076  17.637  0.00  0.00    +0.000 A 
ATOM      7  C   UNL     1       2.776   6.404  18.806  0.00  0.00    +0.000 A 
ATOM      8 BR   UNL     1       2.088   8.161  18.995  0.00  0.00    +0.000 Br
ATOM      9  C   UNL     1       2.581   5.448  19.801  0.00  0.00    +0.000 A 
ATOM     10  C   UNL     1       3.109   4.169  19.630  0.00  0.00    +0.000 A 
ATOM     11 BR   UNL     1       2.891   2.829  20.957  0.00  0.00    +0.000 Br
ATOM     12  C   UNL     1       3.801   3.838  18.455  0.00  0.00    +0.000 A 
BRANCH   9  13
ATOM     13  O   UNL     1       1.873   5.752  20.933  0.00  0.00    +0.000 OA
ATOM     14  H   UNL     1       1.378   4.954  21.197  0.00  0.00    +0.000 HD
ENDBRANCH   9  13
ENDBRANCH   3   5
BRANCH   1  20
ATOM     15  C   UNL     1       7.117   4.860  13.598  0.00  0.00    +0.000 A 
ATOM     16  C   UNL     1       7.521   4.292  12.381  0.00  0.00    +0.000 A 
ATOM     17  C   UNL     1       6.680   3.434  11.673  0.00  0.00    +0.000 A 
ATOM     18  C   UNL     1       5.429   3.106  12.187  0.00  0.00    +0.000 A 
ATOM     19  C   UNL     1       5.008   3.652  13.402  0.00  0.00    +0.000 A 
ATOM     20  C   UNL     1       5.836   4.538  14.111  0.00  0.00    +0.000 A 
BRANCH  15  21
ATOM     21  N   UNL     1       8.083   5.563  14.334  0.00  0.00    +0.000 N 
ATOM     22  H   UNL     1       7.816   5.858  15.265  0.00  0.00    +0.000 HD
ATOM     23  H   UNL     1       9.024   5.159  14.269  0.00  0.00    +0.000 HD
ENDBRANCH  15  21
ENDBRANCH   1  20
TORSDOF 4
ENDMDL
MODEL 2
REMARK VINA RESULT:      -6.8      0.196      2.171
REMARK  Name = 
REMARK  4 active torsions:
REMARK  status: ('A' for Active; 'I' for Inactive)
REMARK    1  A    between atoms: N_1  and  C_2
REMARK    2  A    between atoms: C_7  and  C_8
REMARK    3  A    between atoms: N_10  and  C_11
REMARK    4  A    between atoms: C_15  and  O_16
REMARK                            x       y       z     vdW  Elec       q    Type
REMARK                         _______ _______ _______ _____ _____    ______ ____
ROOT
ATOM      1  C   UNL     1       5.240   5.090  15.493  0.00  0.00    +0.000 C 
ATOM      2  O   UNL     1       5.433   6.275  15.744  0.00  0.00    +0.000 OA
ATOM      3  N   UNL     1       4.476   4.225  16.274  0.00  0.00    +0.000 N 
ATOM      4  H   UNL     1       4.283   3.304  15.897  0.00  0.00    +0.000 HD
ENDROOT
BRANCH   3   5
ATOM      5  C   UNL     1       3.779   4.569  17.462  0.00  0.00    +0.000 A 
ATOM      6  C   UNL     1       3.560   3.676  18.515  0.00  0.00    +0.000 A 
ATOM      7  C   UNL     1       2.948   4.100  19.698  0.00  0.00    +0.000 A 
ATOM      8 BR   UNL     1       2.729   2.852  21.108  0.00  0.00    +0.000 Br
ATOM      9  C   UNL     1       2.525   5.421  19.840  0.00  0.00    +0.000 A 
ATOM     10  C   UNL     1       2.695   6.308  18.777  0.00  0.00    +0.000 A 
ATOM     11 BR   UNL     1       2.124   8.113  18.903  0.00  0.00    +0.000 Br
ATOM     12  C   UNL     1       3.314   5.885  17.592  0.00  0.00    +0.000 A 
BRANCH   9  13
ATOM     13  O   UNL     1       1.954   5.851  21.007  0.00  0.00    +0.000 OA
ATOM     14  H   UNL     1       2.229   6.776  21.149  0.00  0.00    +0.000 HD
ENDBRANCH   9  13
ENDBRANCH   3   5
BRANCH   1  20
ATOM     15  C   UNL     1       7.090   4.899  13.784  0.00  0.00    +0.000 A 
ATOM     16  C   UNL     1       7.568   4.397  12.565  0.00  0.00    +0.000 A 
ATOM     17  C   UNL     1       6.780   3.564  11.770  0.00  0.00    +0.000 A 
ATOM     18  C   UNL     1       5.509   3.195  12.199  0.00  0.00    +0.000 A 
ATOM     19  C   UNL     1       5.014   3.674  13.414  0.00  0.00    +0.000 A 
ATOM     20  C   UNL     1       5.788   4.534  14.210  0.00  0.00    +0.000 A 
BRANCH  15  21
ATOM     21  N   UNL     1       8.004   5.577  14.605  0.00  0.00    +0.000 N 
ATOM     22  H   UNL     1       7.789   6.543  14.821  0.00  0.00    +0.000 HD
ATOM     23  H   UNL     1       8.325   5.023  15.407  0.00  0.00    +0.000 HD
ENDBRANCH  15  21
ENDBRANCH   1  20
TORSDOF 4
ENDMDL
MODEL 3
REMARK VINA RESULT:      -6.7      4.283      7.763
REMARK  Name = 
REMARK  4 active torsions:
REMARK  status: ('A' for Active; 'I' for Inactive)
REMARK    1  A    between atoms: N_1  and  C_2
REMARK    2  A    between atoms: C_7  and  C_8
REMARK    3  A    between atoms: N_10  and  C_11
REMARK    4  A    between atoms: C_15  and  O_16
REMARK                            x       y       z     vdW  Elec       q    Type
REMARK                         _______ _______ _______ _____ _____    ______ ____
ROOT
ATOM      1  C   UNL     1       1.622   8.804  18.442  0.00  0.00    +0.000 C 
ATOM      2  O   UNL     1       2.035   9.237  17.372  0.00  0.00    +0.000 OA
ATOM      3  N   UNL     1       1.954   7.561  18.979  0.00  0.00    +0.000 N 
ATOM      4  H   UNL     1       1.654   7.367  19.927  0.00  0.00    +0.000 HD
ENDROOT
BRANCH   3   5
ATOM      5  C   UNL     1       2.835   6.610  18.400  0.00  0.00    +0.000 A 
ATOM      6  C   UNL     1       4.138   6.912  17.994  0.00  0.00    +0.000 A 
ATOM      7  C   UNL     1       4.989   5.912  17.515  0.00  0.00    +0.000 A 
ATOM      8 BR   UNL     1       6.762   6.379  17.031  0.00  0.00    +0.000 Br
ATOM      9  C   UNL     1       4.543   4.595  17.413  0.00  0.00    +0.000 A 
ATOM     10  C   UNL     1       3.230   4.292  17.769  0.00  0.00    +0.000 A 
ATOM     11 BR   UNL     1       2.559   2.522  17.637  0.00  0.00    +0.000 Br
ATOM     12  C   UNL     1       2.377   5.294  18.256  0.00  0.00    +0.000 A 
BRANCH   9  13
ATOM     13  O   UNL     1       5.381   3.605  16.975  0.00  0.00    +0.000 OA
ATOM     14  H   UNL     1       5.106   2.773  17.403  0.00  0.00    +0.000 HD
ENDBRANCH   9  13
ENDBRANCH   3   5
BRANCH   1  20
ATOM     15  C   UNL     1      -0.319  10.400  18.702  0.00  0.00    +0.000 A 
ATOM     16  C   UNL     1      -1.086  11.256  19.505  0.00  0.00    +0.000 A 
ATOM     17  C   UNL     1      -0.791  11.432  20.857  0.00  0.00    +0.000 A 
ATOM     18  C   UNL     1       0.261  10.728  21.436  0.00  0.00    +0.000 A 
ATOM     19  C   UNL     1       1.034   9.861  20.659  0.00  0.00    +0.000 A 
ATOM     20  C   UNL     1       0.762   9.697  19.290  0.00  0.00    +0.000 A 
BRANCH  15  21
ATOM     21  N   UNL     1      -0.788  10.139  17.405  0.00  0.00    +0.000 N 
ATOM     22  H   UNL     1      -1.681  10.547  17.156  0.00  0.00    +0.000 HD
ATOM     23  H   UNL     1      -0.065  10.223  16.682  0.00  0.00    +0.000 HD
ENDBRANCH  15  21
ENDBRANCH   1  20
TORSDOF 4
ENDMDL
MODEL 4
REMARK VINA RESULT:      -6.7      4.283      7.543
REMARK  Name = 
REMARK  4 active torsions:
REMARK  status: ('A' for Active; 'I' for Inactive)
REMARK    1  A    between atoms: N_1  and  C_2
REMARK    2  A    between atoms: C_7  and  C_8
REMARK    3  A    between atoms: N_10  and  C_11
REMARK    4  A    between atoms: C_15  and  O_16
REMARK                            x       y       z     vdW  Elec       q    Type
REMARK                         _______ _______ _______ _____ _____    ______ ____
ROOT
ATOM      1  C   UNL     1       1.764   8.877  18.291  0.00  0.00    +0.000 C 
ATOM      2  O   UNL     1       1.896   9.086  17.090  0.00  0.00    +0.000 OA
ATOM      3  N   UNL     1       2.227   7.742  18.957  0.00  0.00    +0.000 N 
ATOM      4  H   UNL     1       2.174   7.742  19.968  0.00  0.00    +0.000 HD
ENDROOT
BRANCH   3   5
ATOM      5  C   UNL     1       2.941   6.665  18.370  0.00  0.00    +0.000 A 
ATOM      6  C   UNL     1       4.215   6.796  17.811  0.00  0.00    +0.000 A 
ATOM      7  C   UNL     1       4.906   5.679  17.331  0.00  0.00    +0.000 A 
ATOM      8 BR   UNL     1       6.652   5.919  16.633  0.00  0.00    +0.000 Br
ATOM      9  C   UNL     1       4.324   4.414  17.384  0.00  0.00    +0.000 A 
ATOM     10  C   UNL     1       3.034   4.278  17.896  0.00  0.00    +0.000 A 
ATOM     11 BR   UNL     1       2.182   2.584  17.979  0.00  0.00    +0.000 Br
ATOM     12  C   UNL     1       2.343   5.397  18.383  0.00  0.00    +0.000 A 
BRANCH   9  13
ATOM     13  O   UNL     1       5.007   3.311  16.947  0.00  0.00    +0.000 OA
ATOM     14  H   UNL     1       4.610   3.031  16.101  0.00  0.00    +0.000 HD
ENDBRANCH   9  13
ENDBRANCH   3   5
BRANCH   1  20
ATOM     15  C   UNL     1       1.520  11.300  18.958  0.00  0.00    +0.000 A 
ATOM     16  C   UNL     1       0.950  12.280  19.784  0.00  0.00    +0.000 A 
ATOM     17  C   UNL     1       0.033  11.938  20.779  0.00  0.00    +0.000 A 
ATOM     18  C   UNL     1      -0.352  10.611  20.942  0.00  0.00    +0.000 A 
ATOM     19  C   UNL     1       0.194   9.618  20.125  0.00  0.00    +0.000 A 
ATOM     20  C   UNL     1       1.139   9.947  19.138  0.00  0.00    +0.000 A 
BRANCH  15  21
ATOM     21  N   UNL     1       2.289  11.742  17.870  0.00  0.00    +0.000 N 
ATOM     22  H   UNL     1       3.295  11.708  17.983  0.00  0.00    +0.000 HD
ATOM     23  H   UNL     1       1.951  11.402  16.963  0.00  0.00    +0.000 HD
ENDBRANCH  15  21
ENDBRANCH   1  20
TORSDOF 4
ENDMDL
MODEL 5
REMARK VINA RESULT:      -6.7      4.924      8.210
REMARK  Name = 
REMARK  4 active torsions:
REMARK  status: ('A' for Active; 'I' for Inactive)
REMARK    1  A    between atoms: N_1  and  C_2
REMARK    2  A    between atoms: C_7  and  C_8
REMARK    3  A    between atoms: N_10  and  C_11
REMARK    4  A    between atoms: C_15  and  O_16
REMARK                            x       y       z     vdW  Elec       q    Type
REMARK                         _______ _______ _______ _____ _____    ______ ____
ROOT
ATOM      1  C   UNL     1       1.440   8.140  20.087  0.00  0.00    +0.000 C 
ATOM      2  O   UNL     1       1.893   8.587  19.039  0.00  0.00    +0.000 OA
ATOM      3  N   UNL     1       1.656   6.847  20.560  0.00  0.00    +0.000 N 
ATOM      4  H   UNL     1       1.339   6.635  21.498  0.00  0.00    +0.000 HD
ENDROOT
BRANCH   3   5
ATOM      5  C   UNL     1       2.446   5.849  19.930  0.00  0.00    +0.000 A 
ATOM      6  C   UNL     1       3.798   6.017  19.619  0.00  0.00    +0.000 A 
ATOM      7  C   UNL     1       4.546   4.965  19.082  0.00  0.00    +0.000 A 
ATOM      8 BR   UNL     1       6.389   5.244  18.732  0.00  0.00    +0.000 Br
ATOM      9  C   UNL     1       3.948   3.732  18.828  0.00  0.00    +0.000 A 
ATOM     10  C   UNL     1       2.588   3.568  19.091  0.00  0.00    +0.000 A 
ATOM     11 BR   UNL     1       1.713   1.919  18.750  0.00  0.00    +0.000 Br
ATOM     12  C   UNL     1       1.838   4.621  19.635  0.00  0.00    +0.000 A 
BRANCH   9  13
ATOM     13  O   UNL     1       4.681   2.688  18.334  0.00  0.00    +0.000 OA
ATOM     14  H   UNL     1       5.467   2.581  18.902  0.00  0.00    +0.000 HD
ENDBRANCH   9  13
ENDBRANCH   3   5
BRANCH   1  20
ATOM     15  C   UNL     1      -0.070  10.138  20.419  0.00  0.00    +0.000 A 
ATOM     16  C   UNL     1      -0.755  11.011  21.276  0.00  0.00    +0.000 A 
ATOM     17  C   UNL     1      -0.709  10.846  22.660  0.00  0.00    +0.000 A 
ATOM     18  C   UNL     1       0.001   9.782  23.210  0.00  0.00    +0.000 A 
ATOM     19  C   UNL     1       0.685   8.892  22.376  0.00  0.00    +0.000 A 
ATOM     20  C   UNL     1       0.667   9.065  20.982  0.00  0.00    +0.000 A 
BRANCH  15  21
ATOM     21  N   UNL     1      -0.313  10.261  19.043  0.00  0.00    +0.000 N 
ATOM     22  H   UNL     1       0.501  10.333  18.444  0.00  0.00    +0.000 HD
ATOM     23  H   UNL     1      -1.042   9.629  18.695  0.00  0.00    +0.000 HD
ENDBRANCH  15  21
ENDBRANCH   1  20
TORSDOF 4
ENDMDL
MODEL 6
REMARK VINA RESULT:      -6.6      4.303      8.136
REMARK  Name = 
REMARK  4 active torsions:
REMARK  status: ('A' for Active; 'I' for Inactive)
REMARK    1  A    between atoms: N_1  and  C_2
REMARK    2  A    between atoms: C_7  and  C_8
REMARK    3  A    between atoms: N_10  and  C_11
REMARK    4  A    between atoms: C_15  and  O_16
REMARK                            x       y       z     vdW  Elec       q    Type
REMARK                         _______ _______ _______ _____ _____    ______ ____
ROOT
ATOM      1  C   UNL     1       1.572   8.345  19.861  0.00  0.00    +0.000 C 
ATOM      2  O   UNL     1       1.881   8.910  18.817  0.00  0.00    +0.000 OA
ATOM      3  N   UNL     1       1.979   7.061  20.220  0.00  0.00    +0.000 N 
ATOM      4  H   UNL     1       1.767   6.752  21.162  0.00  0.00    +0.000 HD
ENDROOT
BRANCH   3   5
ATOM      5  C   UNL     1       2.826   6.211  19.462  0.00  0.00    +0.000 A 
ATOM      6  C   UNL     1       3.456   6.606  18.279  0.00  0.00    +0.000 A 
ATOM      7  C   UNL     1       4.353   5.754  17.626  0.00  0.00    +0.000 A 
ATOM      8 BR   UNL     1       5.214   6.371  16.054  0.00  0.00    +0.000 Br
ATOM      9  C   UNL     1       4.617   4.484  18.135  0.00  0.00    +0.000 A 
ATOM     10  C   UNL     1       3.957   4.062  19.289  0.00  0.00    +0.000 A 
ATOM     11 BR   UNL     1       4.262   2.338  20.021  0.00  0.00    +0.000 Br
ATOM     12  C   UNL     1       3.062   4.918  19.948  0.00  0.00    +0.000 A 
BRANCH   9  13
ATOM     13  O   UNL     1       5.518   3.657  17.520  0.00  0.00    +0.000 OA
ATOM     14  H   UNL     1       6.079   4.207  16.941  0.00  0.00    +0.000 HD
ENDBRANCH   9  13
ENDBRANCH   3   5
BRANCH   1  20
ATOM     15  C   UNL     1      -0.120  10.125  20.450  0.00  0.00    +0.000 A 
ATOM     16  C   UNL     1      -0.831  10.850  21.417  0.00  0.00    +0.000 A 
ATOM     17  C   UNL     1      -0.662  10.594  22.778  0.00  0.00    +0.000 A 
ATOM     18  C   UNL     1       0.203   9.585  23.193  0.00  0.00    +0.000 A 
ATOM     19  C   UNL     1       0.915   8.842  22.248  0.00  0.00    +0.000 A 
ATOM     20  C   UNL     1       0.772   9.109  20.876  0.00  0.00    +0.000 A 
BRANCH  15  21
ATOM     21  N   UNL     1      -0.480  10.316  19.107  0.00  0.00    +0.000 N 
ATOM     22  H   UNL     1      -1.435  10.088  18.858  0.00  0.00    +0.000 HD
ATOM     23  H   UNL     1      -0.135  11.196  18.710  0.00  0.00    +0.000 HD
ENDBRANCH  15  21
ENDBRANCH   1  20
TORSDOF 4
ENDMDL
MODEL 7
REMARK VINA RESULT:      -6.6      4.029      7.726
REMARK  Name = 
REMARK  4 active torsions:
REMARK  status: ('A' for Active; 'I' for Inactive)
REMARK    1  A    between atoms: N_1  and  C_2
REMARK    2  A    between atoms: C_7  and  C_8
REMARK    3  A    between atoms: N_10  and  C_11
REMARK    4  A    between atoms: C_15  and  O_16
REMARK                            x       y       z     vdW  Elec       q    Type
REMARK                         _______ _______ _______ _____ _____    ______ ____
ROOT
ATOM      1  C   UNL     1       1.853   7.796  19.749  0.00  0.00    +0.000 C 
ATOM      2  O   UNL     1       1.828   6.904  20.589  0.00  0.00    +0.000 OA
ATOM      3  N   UNL     1       2.494   7.708  18.514  0.00  0.00    +0.000 N 
ATOM      4  H   UNL     1       2.337   8.460  17.853  0.00  0.00    +0.000 HD
ENDROOT
BRANCH   3   5
ATOM      5  C   UNL     1       3.194   6.578  18.016  0.00  0.00    +0.000 A 
ATOM      6  C   UNL     1       4.491   6.638  17.499  0.00  0.00    +0.000 A 
ATOM      7  C   UNL     1       5.162   5.476  17.109  0.00  0.00    +0.000 A 
ATOM      8 BR   UNL     1       6.940   5.622  16.466  0.00  0.00    +0.000 Br
ATOM      9  C   UNL     1       4.537   4.234  17.209  0.00  0.00    +0.000 A 
ATOM     10  C   UNL     1       3.226   4.167  17.678  0.00  0.00    +0.000 A 
ATOM     11 BR   UNL     1       2.316   2.507  17.821  0.00  0.00    +0.000 Br
ATOM     12  C   UNL     1       2.554   5.332  18.075  0.00  0.00    +0.000 A 
BRANCH   9  13
ATOM     13  O   UNL     1       5.200   3.088  16.860  0.00  0.00    +0.000 OA
ATOM     14  H   UNL     1       6.057   3.346  16.473  0.00  0.00    +0.000 HD
ENDBRANCH   9  13
ENDBRANCH   3   5
BRANCH   1  20
ATOM     15  C   UNL     1       0.932   9.524  21.344  0.00  0.00    +0.000 A 
ATOM     16  C   UNL     1       0.167  10.677  21.574  0.00  0.00    +0.000 A 
ATOM     17  C   UNL     1      -0.461  11.346  20.523  0.00  0.00    +0.000 A 
ATOM     18  C   UNL     1      -0.308  10.888  19.218  0.00  0.00    +0.000 A 
ATOM     19  C   UNL     1       0.457   9.747  18.962  0.00  0.00    +0.000 A 
ATOM     20  C   UNL     1       1.072   9.050  20.015  0.00  0.00    +0.000 A 
BRANCH  15  21
ATOM     21  N   UNL     1       1.676   9.018  22.421  0.00  0.00    +0.000 N 
ATOM     22  H   UNL     1       2.230   8.190  22.238  0.00  0.00    +0.000 HD
ATOM     23  H   UNL     1       2.158   9.742  22.964  0.00  0.00    +0.000 HD
ENDBRANCH  15  21
ENDBRANCH   1  20
TORSDOF 4
ENDMDL
MODEL 8
REMARK VINA RESULT:      -6.6      4.264      7.632
REMARK  Name = 
REMARK  4 active torsions:
REMARK  status: ('A' for Active; 'I' for Inactive)
REMARK    1  A    between atoms: N_1  and  C_2
REMARK    2  A    between atoms: C_7  and  C_8
REMARK    3  A    between atoms: N_10  and  C_11
REMARK    4  A    between atoms: C_15  and  O_16
REMARK                            x       y       z     vdW  Elec       q    Type
REMARK                         _______ _______ _______ _____ _____    ______ ____
ROOT
ATOM      1  C   UNL     1       1.854   8.858  18.252  0.00  0.00    +0.000 C 
ATOM      2  O   UNL     1       2.069   8.990  17.052  0.00  0.00    +0.000 OA
ATOM      3  N   UNL     1       2.247   7.759  19.014  0.00  0.00    +0.000 N 
ATOM      4  H   UNL     1       2.128   7.822  20.018  0.00  0.00    +0.000 HD
ENDROOT
BRANCH   3   5
ATOM      5  C   UNL     1       2.974   6.634  18.543  0.00  0.00    +0.000 A 
ATOM      6  C   UNL     1       2.437   5.347  18.461  0.00  0.00    +0.000 A 
ATOM      7  C   UNL     1       3.173   4.298  17.902  0.00  0.00    +0.000 A 
ATOM      8 BR   UNL     1       2.365   2.587  17.773  0.00  0.00    +0.000 Br
ATOM      9  C   UNL     1       4.468   4.515  17.435  0.00  0.00    +0.000 A 
ATOM     10  C   UNL     1       5.031   5.784  17.556  0.00  0.00    +0.000 A 
ATOM     11 BR   UNL     1       6.796   6.138  16.954  0.00  0.00    +0.000 Br
ATOM     12  C   UNL     1       4.291   6.839  18.111  0.00  0.00    +0.000 A 
BRANCH   9  13
ATOM     13  O   UNL     1       5.182   3.500  16.857  0.00  0.00    +0.000 OA
ATOM     14  H   UNL     1       6.035   3.432  17.325  0.00  0.00    +0.000 HD
ENDBRANCH   9  13
ENDBRANCH   3   5
BRANCH   1  20
ATOM     15  C   UNL     1       1.603  11.325  18.734  0.00  0.00    +0.000 A 
ATOM     16  C   UNL     1       1.002  12.363  19.460  0.00  0.00    +0.000 A 
ATOM     17  C   UNL     1       0.033  12.100  20.428  0.00  0.00    +0.000 A 
ATOM     18  C   UNL     1      -0.375  10.790  20.663  0.00  0.00    +0.000 A 
ATOM     19  C   UNL     1       0.202   9.738  19.946  0.00  0.00    +0.000 A 
ATOM     20  C   UNL     1       1.198   9.990  18.989  0.00  0.00    +0.000 A 
BRANCH  15  21
ATOM     21  N   UNL     1       2.431  11.683  17.659  0.00  0.00    +0.000 N 
ATOM     22  H   UNL     1       2.638  10.956  16.986  0.00  0.00    +0.000 HD
ATOM     23  H   UNL     1       2.196  12.592  17.245  0.00  0.00    +0.000 HD
ENDBRANCH  15  21
ENDBRANCH   1  20
TORSDOF 4
ENDMDL
MODEL 9
REMARK VINA RESULT:      -6.5      4.592      7.378
REMARK  Name = 
REMARK  4 active torsions:
REMARK  status: ('A' for Active; 'I' for Inactive)
REMARK    1  A    between atoms: N_1  and  C_2
REMARK    2  A    between atoms: C_7  and  C_8
REMARK    3  A    between atoms: N_10  and  C_11
REMARK    4  A    between atoms: C_15  and  O_16
REMARK                            x       y       z     vdW  Elec       q    Type
REMARK                         _______ _______ _______ _____ _____    ______ ____
ROOT
ATOM      1  C   UNL     1       1.770   8.878  18.449  0.00  0.00    +0.000 C 
ATOM      2  O   UNL     1       2.203   8.827  17.303  0.00  0.00    +0.000 OA
ATOM      3  N   UNL     1       1.973   7.899  19.421  0.00  0.00    +0.000 N 
ATOM      4  H   UNL     1       1.677   8.113  20.365  0.00  0.00    +0.000 HD
ENDROOT
BRANCH   3   5
ATOM      5  C   UNL     1       2.726   6.707  19.259  0.00  0.00    +0.000 A 
ATOM      6  C   UNL     1       3.835   6.603  18.416  0.00  0.00    +0.000 A 
ATOM      7  C   UNL     1       4.592   5.428  18.369  0.00  0.00    +0.000 A 
ATOM      8 BR   UNL     1       6.117   5.371  17.242  0.00  0.00    +0.000 Br
ATOM      9  C   UNL     1       4.239   4.330  19.150  0.00  0.00    +0.000 A 
ATOM     10  C   UNL     1       3.106   4.406  19.959  0.00  0.00    +0.000 A 
ATOM     11 BR   UNL     1       2.563   2.938  21.033  0.00  0.00    +0.000 Br
ATOM     12  C   UNL     1       2.349   5.586  20.011  0.00  0.00    +0.000 A 
BRANCH   9  13
ATOM     13  O   UNL     1       4.994   3.188  19.134  0.00  0.00    +0.000 OA
ATOM     14  H   UNL     1       5.701   3.308  18.472  0.00  0.00    +0.000 HD
ENDBRANCH   9  13
ENDBRANCH   3   5
BRANCH   1  20
ATOM     15  C   UNL     1       1.555  11.393  18.546  0.00  0.00    +0.000 A 
ATOM     16  C   UNL     1       0.876  12.536  18.990  0.00  0.00    +0.000 A 
ATOM     17  C   UNL     1      -0.282  12.432  19.762  0.00  0.00    +0.000 A 
ATOM     18  C   UNL     1      -0.796  11.177  20.075  0.00  0.00    +0.000 A 
ATOM     19  C   UNL     1      -0.143  10.023  19.636  0.00  0.00    +0.000 A 
ATOM     20  C   UNL     1       1.039  10.116  18.881  0.00  0.00    +0.000 A 
BRANCH  15  21
ATOM     21  N   UNL     1       2.601  11.580  17.628  0.00  0.00    +0.000 N 
ATOM     22  H   UNL     1       3.522  11.737  18.018  0.00  0.00    +0.000 HD
ATOM     23  H   UNL     1       2.579  10.924  16.840  0.00  0.00    +0.000 HD
ENDBRANCH  15  21
ENDBRANCH   1  20
TORSDOF 4
ENDMDL
