MODEL 1
REMARK VINA RESULT:      -8.5      0.000      0.000
REMARK  Name = 
REMARK  7 active torsions:
REMARK  status: ('A' for Active; 'I' for Inactive)
REMARK    1  A    between atoms: C_4  and  C_5
REMARK    2  A    between atoms: C_16  and  O_17
REMARK    3  A    between atoms: O_17  and  C_18
REMARK    4  A    between atoms: C_18  and  C_19
REMARK    5  A    between atoms: C_25  and  O_26
REMARK    6  A    between atoms: O_26  and  C_27
REMARK    7  A    between atoms: C_27  and  C_28
REMARK                            x       y       z     vdW  Elec       q    Type
REMARK                         _______ _______ _______ _____ _____    ______ ____
ROOT
ATOM      1  O   UNL     1       2.844  13.310  19.661  0.00  0.00    +0.000 OA
ATOM      2  C   UNL     1       1.648  13.209  19.935  0.00  0.00    +0.000 C 
ATOM      3  C   UNL     1       0.995  14.066  20.972  0.00  0.00    +0.000 C 
ATOM      4  C   UNL     1      -0.002  13.254  21.806  0.00  0.00    +0.000 C 
ATOM      5  N   UNL     1      -0.401  11.943  21.320  0.00  0.00    +0.000 NA
ATOM      6  C   UNL     1      -0.937  11.004  22.294  0.00  0.00    +0.000 C 
ATOM      7  C   UNL     1       0.090   9.921  22.621  0.00  0.00    +0.000 C 
ATOM      8  C   UNL     1       0.660   9.309  21.367  0.00  0.00    +0.000 A 
ATOM      9  C   UNL     1       1.251   8.036  21.429  0.00  0.00    +0.000 A 
ATOM     10  C   UNL     1       1.799   7.439  20.289  0.00  0.00    +0.000 A 
ATOM     11  C   UNL     1       1.767   8.139  19.075  0.00  0.00    +0.000 A 
ATOM     12  C   UNL     1       1.109   9.373  19.011  0.00  0.00    +0.000 A 
ATOM     13  C   UNL     1       0.619  10.012  20.153  0.00  0.00    +0.000 A 
ATOM     14  C   UNL     1      -0.039  11.386  20.029  0.00  0.00    +0.000 C 
ATOM     15  C   UNL     1       0.716  12.367  19.124  0.00  0.00    +0.000 C 
ENDROOT
BRANCH   4  16
ATOM     16  C   UNL     1      -1.250  14.102  22.047  0.00  0.00    +0.000 A 
ATOM     17  C   UNL     1      -2.199  14.295  21.025  0.00  0.00    +0.000 A 
ATOM     18  C   UNL     1      -3.356  15.034  21.256  0.00  0.00    +0.000 A 
ATOM     19  C   UNL     1      -3.571  15.609  22.505  0.00  0.00    +0.000 A 
ATOM     20  C   UNL     1      -2.630  15.444  23.521  0.00  0.00    +0.000 A 
ATOM     21  C   UNL     1      -1.474  14.697  23.295  0.00  0.00    +0.000 A 
ENDBRANCH   4  16
BRANCH  10  22
ATOM     22  O   UNL     1       2.426   6.219  20.299  0.00  0.00    +0.000 OA
BRANCH  22  23
ATOM     23  C   UNL     1       1.579   5.067  20.363  0.00  0.00    +0.000 C 
BRANCH  23  24
ATOM     24  C   UNL     1       2.123   4.009  19.435  0.00  0.00    +0.000 A 
ATOM     25  C   UNL     1       2.897   2.949  19.933  0.00  0.00    +0.000 A 
ATOM     26  C   UNL     1       3.443   2.002  19.066  0.00  0.00    +0.000 A 
ATOM     27  C   UNL     1       3.212   2.098  17.695  0.00  0.00    +0.000 A 
ATOM     28  C   UNL     1       2.423   3.130  17.192  0.00  0.00    +0.000 A 
ATOM     29  C   UNL     1       1.875   4.078  18.058  0.00  0.00    +0.000 A 
ENDBRANCH  23  24
ENDBRANCH  22  23
ENDBRANCH  10  22
BRANCH  11  30
ATOM     30  O   UNL     1       2.379   7.586  17.973  0.00  0.00    +0.000 OA
BRANCH  30  31
ATOM     31  C   UNL     1       3.771   7.908  17.857  0.00  0.00    +0.000 C 
BRANCH  31  32
ATOM     32  C   UNL     1       4.559   6.704  17.423  0.00  0.00    +0.000 A 
ATOM     33  C   UNL     1       4.809   6.474  16.065  0.00  0.00    +0.000 A 
ATOM     34  C   UNL     1       5.549   5.364  15.667  0.00  0.00    +0.000 A 
ATOM     35  C   UNL     1       6.048   4.478  16.624  0.00  0.00    +0.000 A 
ATOM     36  C   UNL     1       5.811   4.703  17.978  0.00  0.00    +0.000 A 
ATOM     37  C   UNL     1       5.071   5.816  18.375  0.00  0.00    +0.000 A 
ENDBRANCH  31  32
ENDBRANCH  30  31
ENDBRANCH  11  30
TORSDOF 7
ENDMDL
MODEL 2
REMARK VINA RESULT:      -8.3      0.260      1.152
REMARK  Name = 
REMARK  7 active torsions:
REMARK  status: ('A' for Active; 'I' for Inactive)
REMARK    1  A    between atoms: C_4  and  C_5
REMARK    2  A    between atoms: C_16  and  O_17
REMARK    3  A    between atoms: O_17  and  C_18
REMARK    4  A    between atoms: C_18  and  C_19
REMARK    5  A    between atoms: C_25  and  O_26
REMARK    6  A    between atoms: O_26  and  C_27
REMARK    7  A    between atoms: C_27  and  C_28
REMARK                            x       y       z     vdW  Elec       q    Type
REMARK                         _______ _______ _______ _____ _____    ______ ____
ROOT
ATOM      1  O   UNL     1       2.935  13.291  19.299  0.00  0.00    +0.000 OA
ATOM      2  C   UNL     1       1.744  13.199  19.594  0.00  0.00    +0.000 C 
ATOM      3  C   UNL     1       1.102  14.104  20.597  0.00  0.00    +0.000 C 
ATOM      4  C   UNL     1       0.120  13.330  21.484  0.00  0.00    +0.000 C 
ATOM      5  N   UNL     1      -0.280  11.995  21.069  0.00  0.00    +0.000 NA
ATOM      6  C   UNL     1      -0.798  11.103  22.095  0.00  0.00    +0.000 C 
ATOM      7  C   UNL     1       0.237  10.041  22.459  0.00  0.00    +0.000 C 
ATOM      8  C   UNL     1       0.793   9.371  21.229  0.00  0.00    +0.000 A 
ATOM      9  C   UNL     1       1.389   8.104  21.344  0.00  0.00    +0.000 A 
ATOM     10  C   UNL     1       1.924   7.453  20.226  0.00  0.00    +0.000 A 
ATOM     11  C   UNL     1       1.871   8.093  18.980  0.00  0.00    +0.000 A 
ATOM     12  C   UNL     1       1.208   9.320  18.866  0.00  0.00    +0.000 A 
ATOM     13  C   UNL     1       0.731  10.013  19.982  0.00  0.00    +0.000 A 
ATOM     14  C   UNL     1       0.066  11.377  19.802  0.00  0.00    +0.000 C 
ATOM     15  C   UNL     1       0.803  12.315  18.839  0.00  0.00    +0.000 C 
ENDROOT
BRANCH   4  16
ATOM     16  C   UNL     1      -1.128  14.184  21.702  0.00  0.00    +0.000 A 
ATOM     17  C   UNL     1      -2.140  14.243  20.725  0.00  0.00    +0.000 A 
ATOM     18  C   UNL     1      -3.296  14.989  20.940  0.00  0.00    +0.000 A 
ATOM     19  C   UNL     1      -3.447  15.705  22.124  0.00  0.00    +0.000 A 
ATOM     20  C   UNL     1      -2.443  15.673  23.092  0.00  0.00    +0.000 A 
ATOM     21  C   UNL     1      -1.288  14.919  22.883  0.00  0.00    +0.000 A 
ENDBRANCH   4  16
BRANCH  10  22
ATOM     22  O   UNL     1       2.556   6.238  20.287  0.00  0.00    +0.000 OA
BRANCH  22  23
ATOM     23  C   UNL     1       1.713   5.082  20.341  0.00  0.00    +0.000 C 
BRANCH  23  24
ATOM     24  C   UNL     1       2.280   4.021  19.430  0.00  0.00    +0.000 A 
ATOM     25  C   UNL     1       1.997   4.031  18.055  0.00  0.00    +0.000 A 
ATOM     26  C   UNL     1       2.479   3.018  17.225  0.00  0.00    +0.000 A 
ATOM     27  C   UNL     1       3.256   1.991  17.759  0.00  0.00    +0.000 A 
ATOM     28  C   UNL     1       3.566   1.985  19.117  0.00  0.00    +0.000 A 
ATOM     29  C   UNL     1       3.085   2.998  19.949  0.00  0.00    +0.000 A 
ENDBRANCH  23  24
ENDBRANCH  22  23
ENDBRANCH  10  22
BRANCH  11  30
ATOM     30  O   UNL     1       2.470   7.490  17.898  0.00  0.00    +0.000 OA
BRANCH  30  31
ATOM     31  C   UNL     1       3.841   7.863  17.707  0.00  0.00    +0.000 C 
BRANCH  31  32
ATOM     32  C   UNL     1       4.669   6.668  17.328  0.00  0.00    +0.000 A 
ATOM     33  C   UNL     1       5.217   5.844  18.318  0.00  0.00    +0.000 A 
ATOM     34  C   UNL     1       5.974   4.730  17.963  0.00  0.00    +0.000 A 
ATOM     35  C   UNL     1       6.185   4.430  16.616  0.00  0.00    +0.000 A 
ATOM     36  C   UNL     1       5.636   5.240  15.625  0.00  0.00    +0.000 A 
ATOM     37  C   UNL     1       4.877   6.353  15.981  0.00  0.00    +0.000 A 
ENDBRANCH  31  32
ENDBRANCH  30  31
ENDBRANCH  11  30
TORSDOF 7
ENDMDL
MODEL 3
REMARK VINA RESULT:      -8.2      0.608      1.279
REMARK  Name = 
REMARK  7 active torsions:
REMARK  status: ('A' for Active; 'I' for Inactive)
REMARK    1  A    between atoms: C_4  and  C_5
REMARK    2  A    between atoms: C_16  and  O_17
REMARK    3  A    between atoms: O_17  and  C_18
REMARK    4  A    between atoms: C_18  and  C_19
REMARK    5  A    between atoms: C_25  and  O_26
REMARK    6  A    between atoms: O_26  and  C_27
REMARK    7  A    between atoms: C_27  and  C_28
REMARK                            x       y       z     vdW  Elec       q    Type
REMARK                         _______ _______ _______ _____ _____    ______ ____
ROOT
ATOM      1  O   UNL     1       2.810  13.255  19.363  0.00  0.00    +0.000 OA
ATOM      2  C   UNL     1       1.628  13.122  19.680  0.00  0.00    +0.000 C 
ATOM      3  C   UNL     1       0.985  13.973  20.728  0.00  0.00    +0.000 C 
ATOM      4  C   UNL     1       0.043  13.142  21.606  0.00  0.00    +0.000 C 
ATOM      5  N   UNL     1      -0.333  11.813  21.150  0.00  0.00    +0.000 NA
ATOM      6  C   UNL     1      -0.806  10.872  22.154  0.00  0.00    +0.000 C 
ATOM      7  C   UNL     1       0.264   9.824  22.457  0.00  0.00    +0.000 C 
ATOM      8  C   UNL     1       0.809   9.213  21.192  0.00  0.00    +0.000 A 
ATOM      9  C   UNL     1       1.440   7.959  21.249  0.00  0.00    +0.000 A 
ATOM     10  C   UNL     1       1.967   7.364  20.097  0.00  0.00    +0.000 A 
ATOM     11  C   UNL     1       1.871   8.046  18.877  0.00  0.00    +0.000 A 
ATOM     12  C   UNL     1       1.175   9.259  18.821  0.00  0.00    +0.000 A 
ATOM     13  C   UNL     1       0.705   9.899  19.971  0.00  0.00    +0.000 A 
ATOM     14  C   UNL     1       0.002  11.251  19.854  0.00  0.00    +0.000 C 
ATOM     15  C   UNL     1       0.695  12.241  18.911  0.00  0.00    +0.000 C 
ENDROOT
BRANCH   4  16
ATOM     16  C   UNL     1      -1.221  13.955  21.880  0.00  0.00    +0.000 A 
ATOM     17  C   UNL     1      -1.525  14.398  23.181  0.00  0.00    +0.000 A 
ATOM     18  C   UNL     1      -2.656  15.173  23.425  0.00  0.00    +0.000 A 
ATOM     19  C   UNL     1      -3.511  15.499  22.376  0.00  0.00    +0.000 A 
ATOM     20  C   UNL     1      -3.234  15.049  21.085  0.00  0.00    +0.000 A 
ATOM     21  C   UNL     1      -2.098  14.280  20.837  0.00  0.00    +0.000 A 
ENDBRANCH   4  16
BRANCH  10  22
ATOM     22  O   UNL     1       2.631   6.163  20.100  0.00  0.00    +0.000 OA
BRANCH  22  23
ATOM     23  C   UNL     1       1.845   5.001  20.383  0.00  0.00    +0.000 C 
BRANCH  23  24
ATOM     24  C   UNL     1       2.417   3.828  19.625  0.00  0.00    +0.000 A 
ATOM     25  C   UNL     1       1.791   3.354  18.461  0.00  0.00    +0.000 A 
ATOM     26  C   UNL     1       2.293   2.237  17.792  0.00  0.00    +0.000 A 
ATOM     27  C   UNL     1       3.429   1.588  18.274  0.00  0.00    +0.000 A 
ATOM     28  C   UNL     1       4.074   2.066  19.413  0.00  0.00    +0.000 A 
ATOM     29  C   UNL     1       3.574   3.184  20.082  0.00  0.00    +0.000 A 
ENDBRANCH  23  24
ENDBRANCH  22  23
ENDBRANCH  10  22
BRANCH  11  30
ATOM     30  O   UNL     1       2.462   7.498  17.761  0.00  0.00    +0.000 OA
BRANCH  30  31
ATOM     31  C   UNL     1       3.794   7.968  17.516  0.00  0.00    +0.000 C 
BRANCH  31  32
ATOM     32  C   UNL     1       4.725   6.816  17.261  0.00  0.00    +0.000 A 
ATOM     33  C   UNL     1       4.215   5.547  16.966  0.00  0.00    +0.000 A 
ATOM     34  C   UNL     1       5.081   4.484  16.720  0.00  0.00    +0.000 A 
ATOM     35  C   UNL     1       6.462   4.684  16.764  0.00  0.00    +0.000 A 
ATOM     36  C   UNL     1       6.978   5.946  17.049  0.00  0.00    +0.000 A 
ATOM     37  C   UNL     1       6.110   7.010  17.293  0.00  0.00    +0.000 A 
ENDBRANCH  31  32
ENDBRANCH  30  31
ENDBRANCH  11  30
TORSDOF 7
ENDMDL
MODEL 4
REMARK VINA RESULT:      -7.9      0.785      1.036
REMARK  Name = 
REMARK  7 active torsions:
REMARK  status: ('A' for Active; 'I' for Inactive)
REMARK    1  A    between atoms: C_4  and  C_5
REMARK    2  A    between atoms: C_16  and  O_17
REMARK    3  A    between atoms: O_17  and  C_18
REMARK    4  A    between atoms: C_18  and  C_19
REMARK    5  A    between atoms: C_25  and  O_26
REMARK    6  A    between atoms: O_26  and  C_27
REMARK    7  A    between atoms: C_27  and  C_28
REMARK                            x       y       z     vdW  Elec       q    Type
REMARK                         _______ _______ _______ _____ _____    ______ ____
ROOT
ATOM      1  O   UNL     1       3.306  13.253  18.859  0.00  0.00    +0.000 OA
ATOM      2  C   UNL     1       2.104  13.270  19.122  0.00  0.00    +0.000 C 
ATOM      3  C   UNL     1       1.502  14.294  20.030  0.00  0.00    +0.000 C 
ATOM      4  C   UNL     1       0.443  13.664  20.942  0.00  0.00    +0.000 C 
ATOM      5  N   UNL     1      -0.041  12.332  20.619  0.00  0.00    +0.000 NA
ATOM      6  C   UNL     1      -0.650  11.564  21.694  0.00  0.00    +0.000 C 
ATOM      7  C   UNL     1       0.295  10.464  22.173  0.00  0.00    +0.000 C 
ATOM      8  C   UNL     1       0.833   9.660  21.018  0.00  0.00    +0.000 A 
ATOM      9  C   UNL     1       1.333   8.368  21.250  0.00  0.00    +0.000 A 
ATOM     10  C   UNL     1       1.848   7.594  20.205  0.00  0.00    +0.000 A 
ATOM     11  C   UNL     1       1.876   8.135  18.912  0.00  0.00    +0.000 A 
ATOM     12  C   UNL     1       1.307   9.392  18.680  0.00  0.00    +0.000 A 
ATOM     13  C   UNL     1       0.852  10.204  19.723  0.00  0.00    +0.000 A 
ATOM     14  C   UNL     1       0.293  11.592  19.416  0.00  0.00    +0.000 C 
ATOM     15  C   UNL     1       1.122  12.396  18.407  0.00  0.00    +0.000 C 
ENDROOT
BRANCH   4  16
ATOM     16  C   UNL     1      -0.744  14.619  21.052  0.00  0.00    +0.000 A 
ATOM     17  C   UNL     1      -1.690  14.477  22.085  0.00  0.00    +0.000 A 
ATOM     18  C   UNL     1      -2.750  15.371  22.210  0.00  0.00    +0.000 A 
ATOM     19  C   UNL     1      -2.893  16.406  21.290  0.00  0.00    +0.000 A 
ATOM     20  C   UNL     1      -1.976  16.547  20.249  0.00  0.00    +0.000 A 
ATOM     21  C   UNL     1      -0.909  15.658  20.127  0.00  0.00    +0.000 A 
ENDBRANCH   4  16
BRANCH  10  22
ATOM     22  O   UNL     1       2.389   6.345  20.380  0.00  0.00    +0.000 OA
BRANCH  22  23
ATOM     23  C   UNL     1       1.471   5.248  20.378  0.00  0.00    +0.000 C 
BRANCH  23  24
ATOM     24  C   UNL     1       2.015   4.158  19.488  0.00  0.00    +0.000 A 
ATOM     25  C   UNL     1       2.824   3.139  20.016  0.00  0.00    +0.000 A 
ATOM     26  C   UNL     1       3.369   2.163  19.181  0.00  0.00    +0.000 A 
ATOM     27  C   UNL     1       3.104   2.189  17.813  0.00  0.00    +0.000 A 
ATOM     28  C   UNL     1       2.282   3.180  17.281  0.00  0.00    +0.000 A 
ATOM     29  C   UNL     1       1.734   4.157  18.115  0.00  0.00    +0.000 A 
ENDBRANCH  23  24
ENDBRANCH  22  23
ENDBRANCH  10  22
BRANCH  11  30
ATOM     30  O   UNL     1       2.458   7.406  17.900  0.00  0.00    +0.000 OA
BRANCH  30  31
ATOM     31  C   UNL     1       3.809   7.788  17.608  0.00  0.00    +0.000 C 
BRANCH  31  32
ATOM     32  C   UNL     1       4.615   6.598  17.170  0.00  0.00    +0.000 A 
ATOM     33  C   UNL     1       4.949   6.427  15.821  0.00  0.00    +0.000 A 
ATOM     34  C   UNL     1       5.705   5.329  15.421  0.00  0.00    +0.000 A 
ATOM     35  C   UNL     1       6.136   4.395  16.365  0.00  0.00    +0.000 A 
ATOM     36  C   UNL     1       5.815   4.562  17.711  0.00  0.00    +0.000 A 
ATOM     37  C   UNL     1       5.059   5.663  18.111  0.00  0.00    +0.000 A 
ENDBRANCH  31  32
ENDBRANCH  30  31
ENDBRANCH  11  30
TORSDOF 7
ENDMDL
MODEL 5
REMARK VINA RESULT:      -7.5      1.383      1.750
REMARK  Name = 
REMARK  7 active torsions:
REMARK  status: ('A' for Active; 'I' for Inactive)
REMARK    1  A    between atoms: C_4  and  C_5
REMARK    2  A    between atoms: C_16  and  O_17
REMARK    3  A    between atoms: O_17  and  C_18
REMARK    4  A    between atoms: C_18  and  C_19
REMARK    5  A    between atoms: C_25  and  O_26
REMARK    6  A    between atoms: O_26  and  C_27
REMARK    7  A    between atoms: C_27  and  C_28
REMARK                            x       y       z     vdW  Elec       q    Type
REMARK                         _______ _______ _______ _____ _____    ______ ____
ROOT
ATOM      1  O   UNL     1       2.566  13.002  19.529  0.00  0.00    +0.000 OA
ATOM      2  C   UNL     1       1.424  12.594  19.742  0.00  0.00    +0.000 C 
ATOM      3  C   UNL     1       0.591  13.115  20.868  0.00  0.00    +0.000 C 
ATOM      4  C   UNL     1      -0.196  11.983  21.538  0.00  0.00    +0.000 C 
ATOM      5  N   UNL     1      -0.284  10.704  20.851  0.00  0.00    +0.000 NA
ATOM      6  C   UNL     1      -0.592   9.533  21.658  0.00  0.00    +0.000 C 
ATOM      7  C   UNL     1       0.654   8.673  21.859  0.00  0.00    +0.000 C 
ATOM      8  C   UNL     1       1.352   8.401  20.551  0.00  0.00    +0.000 A 
ATOM      9  C   UNL     1       2.217   7.300  20.447  0.00  0.00    +0.000 A 
ATOM     10  C   UNL     1       2.890   7.020  19.253  0.00  0.00    +0.000 A 
ATOM     11  C   UNL     1       2.700   7.870  18.154  0.00  0.00    +0.000 A 
ATOM     12  C   UNL     1       1.778   8.919  18.247  0.00  0.00    +0.000 A 
ATOM     13  C   UNL     1       1.153   9.252  19.452  0.00  0.00    +0.000 A 
ATOM     14  C   UNL     1       0.199  10.444  19.507  0.00  0.00    +0.000 C 
ATOM     15  C   UNL     1       0.711  11.695  18.783  0.00  0.00    +0.000 C 
ENDROOT
BRANCH   4  16
ATOM     16  C   UNL     1      -1.604  12.481  21.855  0.00  0.00    +0.000 A 
ATOM     17  C   UNL     1      -2.525  12.745  20.823  0.00  0.00    +0.000 A 
ATOM     18  C   UNL     1      -3.822  13.160  21.113  0.00  0.00    +0.000 A 
ATOM     19  C   UNL     1      -4.211  13.339  22.437  0.00  0.00    +0.000 A 
ATOM     20  C   UNL     1      -3.304  13.101  23.470  0.00  0.00    +0.000 A 
ATOM     21  C   UNL     1      -2.007  12.677  23.182  0.00  0.00    +0.000 A 
ENDBRANCH   4  16
BRANCH  10  22
ATOM     22  O   UNL     1       3.779   5.986  19.107  0.00  0.00    +0.000 OA
BRANCH  22  23
ATOM     23  C   UNL     1       3.664   4.910  20.043  0.00  0.00    +0.000 C 
BRANCH  23  24
ATOM     24  C   UNL     1       2.706   3.883  19.491  0.00  0.00    +0.000 A 
ATOM     25  C   UNL     1       1.432   3.716  20.056  0.00  0.00    +0.000 A 
ATOM     26  C   UNL     1       0.569   2.729  19.577  0.00  0.00    +0.000 A 
ATOM     27  C   UNL     1       0.967   1.906  18.525  0.00  0.00    +0.000 A 
ATOM     28  C   UNL     1       2.219   2.080  17.939  0.00  0.00    +0.000 A 
ATOM     29  C   UNL     1       3.083   3.067  18.416  0.00  0.00    +0.000 A 
ENDBRANCH  23  24
ENDBRANCH  22  23
ENDBRANCH  10  22
BRANCH  11  30
ATOM     30  O   UNL     1       3.425   7.642  17.006  0.00  0.00    +0.000 OA
BRANCH  30  31
ATOM     31  C   UNL     1       4.844   7.743  17.182  0.00  0.00    +0.000 C 
BRANCH  31  32
ATOM     32  C   UNL     1       5.537   6.539  16.611  0.00  0.00    +0.000 A 
ATOM     33  C   UNL     1       6.615   5.956  17.286  0.00  0.00    +0.000 A 
ATOM     34  C   UNL     1       7.248   4.833  16.758  0.00  0.00    +0.000 A 
ATOM     35  C   UNL     1       6.804   4.282  15.555  0.00  0.00    +0.000 A 
ATOM     36  C   UNL     1       5.726   4.851  14.881  0.00  0.00    +0.000 A 
ATOM     37  C   UNL     1       5.093   5.974  15.411  0.00  0.00    +0.000 A 
ENDBRANCH  31  32
ENDBRANCH  30  31
ENDBRANCH  11  30
TORSDOF 7
ENDMDL
MODEL 6
REMARK VINA RESULT:      -7.4      1.583      2.248
REMARK  Name = 
REMARK  7 active torsions:
REMARK  status: ('A' for Active; 'I' for Inactive)
REMARK    1  A    between atoms: C_4  and  C_5
REMARK    2  A    between atoms: C_16  and  O_17
REMARK    3  A    between atoms: O_17  and  C_18
REMARK    4  A    between atoms: C_18  and  C_19
REMARK    5  A    between atoms: C_25  and  O_26
REMARK    6  A    between atoms: O_26  and  C_27
REMARK    7  A    between atoms: C_27  and  C_28
REMARK                            x       y       z     vdW  Elec       q    Type
REMARK                         _______ _______ _______ _____ _____    ______ ____
ROOT
ATOM      1  O   UNL     1       2.493  12.799  19.090  0.00  0.00    +0.000 OA
ATOM      2  C   UNL     1       1.374  12.361  19.359  0.00  0.00    +0.000 C 
ATOM      3  C   UNL     1       0.555  12.910  20.483  0.00  0.00    +0.000 C 
ATOM      4  C   UNL     1      -0.167  11.786  21.235  0.00  0.00    +0.000 C 
ATOM      5  N   UNL     1      -0.226  10.470  20.618  0.00  0.00    +0.000 NA
ATOM      6  C   UNL     1      -0.465   9.333  21.493  0.00  0.00    +0.000 C 
ATOM      7  C   UNL     1       0.819   8.531  21.699  0.00  0.00    +0.000 C 
ATOM      8  C   UNL     1       1.487   8.217  20.385  0.00  0.00    +0.000 A 
ATOM      9  C   UNL     1       2.391   7.144  20.311  0.00  0.00    +0.000 A 
ATOM     10  C   UNL     1       3.038   6.827  19.111  0.00  0.00    +0.000 A 
ATOM     11  C   UNL     1       2.783   7.610  17.977  0.00  0.00    +0.000 A 
ATOM     12  C   UNL     1       1.825   8.628  18.045  0.00  0.00    +0.000 A 
ATOM     13  C   UNL     1       1.223   9.000  19.250  0.00  0.00    +0.000 A 
ATOM     14  C   UNL     1       0.226  10.158  19.274  0.00  0.00    +0.000 C 
ATOM     15  C   UNL     1       0.668  11.387  18.471  0.00  0.00    +0.000 C 
ENDROOT
BRANCH   4  16
ATOM     16  C   UNL     1      -1.584  12.247  21.570  0.00  0.00    +0.000 A 
ATOM     17  C   UNL     1      -2.029  12.297  22.905  0.00  0.00    +0.000 A 
ATOM     18  C   UNL     1      -3.306  12.756  23.215  0.00  0.00    +0.000 A 
ATOM     19  C   UNL     1      -4.165  13.152  22.194  0.00  0.00    +0.000 A 
ATOM     20  C   UNL     1      -3.746  13.089  20.865  0.00  0.00    +0.000 A 
ATOM     21  C   UNL     1      -2.464  12.637  20.553  0.00  0.00    +0.000 A 
ENDBRANCH   4  16
BRANCH  10  22
ATOM     22  O   UNL     1       3.962   5.820  18.991  0.00  0.00    +0.000 OA
BRANCH  22  23
ATOM     23  C   UNL     1       3.481   4.572  18.482  0.00  0.00    +0.000 C 
BRANCH  23  24
ATOM     24  C   UNL     1       2.656   3.895  19.549  0.00  0.00    +0.000 A 
ATOM     25  C   UNL     1       3.252   3.453  20.741  0.00  0.00    +0.000 A 
ATOM     26  C   UNL     1       2.497   2.779  21.702  0.00  0.00    +0.000 A 
ATOM     27  C   UNL     1       1.139   2.550  21.487  0.00  0.00    +0.000 A 
ATOM     28  C   UNL     1       0.532   3.007  20.320  0.00  0.00    +0.000 A 
ATOM     29  C   UNL     1       1.285   3.682  19.357  0.00  0.00    +0.000 A 
ENDBRANCH  23  24
ENDBRANCH  22  23
ENDBRANCH  10  22
BRANCH  11  30
ATOM     30  O   UNL     1       3.481   7.349  16.820  0.00  0.00    +0.000 OA
BRANCH  30  31
ATOM     31  C   UNL     1       4.893   7.574  16.927  0.00  0.00    +0.000 C 
BRANCH  31  32
ATOM     32  C   UNL     1       5.660   6.422  16.341  0.00  0.00    +0.000 A 
ATOM     33  C   UNL     1       6.759   5.884  17.021  0.00  0.00    +0.000 A 
ATOM     34  C   UNL     1       7.460   4.810  16.479  0.00  0.00    +0.000 A 
ATOM     35  C   UNL     1       7.066   4.263  15.257  0.00  0.00    +0.000 A 
ATOM     36  C   UNL     1       5.968   4.787  14.578  0.00  0.00    +0.000 A 
ATOM     37  C   UNL     1       5.266   5.862  15.122  0.00  0.00    +0.000 A 
ENDBRANCH  31  32
ENDBRANCH  30  31
ENDBRANCH  11  30
TORSDOF 7
ENDMDL
MODEL 7
REMARK VINA RESULT:      -7.3      0.841      1.140
REMARK  Name = 
REMARK  7 active torsions:
REMARK  status: ('A' for Active; 'I' for Inactive)
REMARK    1  A    between atoms: C_4  and  C_5
REMARK    2  A    between atoms: C_16  and  O_17
REMARK    3  A    between atoms: O_17  and  C_18
REMARK    4  A    between atoms: C_18  and  C_19
REMARK    5  A    between atoms: C_25  and  O_26
REMARK    6  A    between atoms: O_26  and  C_27
REMARK    7  A    between atoms: C_27  and  C_28
REMARK                            x       y       z     vdW  Elec       q    Type
REMARK                         _______ _______ _______ _____ _____    ______ ____
ROOT
ATOM      1  O   UNL     1       2.756  13.540  20.498  0.00  0.00    +0.000 OA
ATOM      2  C   UNL     1       1.539  13.378  20.583  0.00  0.00    +0.000 C 
ATOM      3  C   UNL     1       0.713  14.083  21.611  0.00  0.00    +0.000 C 
ATOM      4  C   UNL     1      -0.357  13.150  22.189  0.00  0.00    +0.000 C 
ATOM      5  N   UNL     1      -0.630  11.901  21.496  0.00  0.00    +0.000 NA
ATOM      6  C   UNL     1      -1.257  10.836  22.263  0.00  0.00    +0.000 C 
ATOM      7  C   UNL     1      -0.243   9.744  22.601  0.00  0.00    +0.000 C 
ATOM      8  C   UNL     1       0.521   9.308  21.378  0.00  0.00    +0.000 A 
ATOM      9  C   UNL     1       1.149   8.051  21.370  0.00  0.00    +0.000 A 
ATOM     10  C   UNL     1       1.875   7.614  20.256  0.00  0.00    +0.000 A 
ATOM     11  C   UNL     1       1.984   8.459  19.144  0.00  0.00    +0.000 A 
ATOM     12  C   UNL     1       1.292   9.676  19.135  0.00  0.00    +0.000 A 
ATOM     13  C   UNL     1       0.621  10.156  20.263  0.00  0.00    +0.000 A 
ATOM     14  C   UNL     1      -0.068  11.519  20.214  0.00  0.00    +0.000 C 
ATOM     15  C   UNL     1       0.764  12.622  19.550  0.00  0.00    +0.000 C 
ENDROOT
BRANCH   4  16
ATOM     16  C   UNL     1      -1.659  13.931  22.349  0.00  0.00    +0.000 A 
ATOM     17  C   UNL     1      -2.425  14.295  21.224  0.00  0.00    +0.000 A 
ATOM     18  C   UNL     1      -3.633  14.972  21.372  0.00  0.00    +0.000 A 
ATOM     19  C   UNL     1      -4.082  15.315  22.643  0.00  0.00    +0.000 A 
ATOM     20  C   UNL     1      -3.325  14.980  23.766  0.00  0.00    +0.000 A 
ATOM     21  C   UNL     1      -2.119  14.295  23.621  0.00  0.00    +0.000 A 
ENDBRANCH   4  16
BRANCH  10  22
ATOM     22  O   UNL     1       2.544   6.417  20.209  0.00  0.00    +0.000 OA
BRANCH  22  23
ATOM     23  C   UNL     1       1.927   5.315  20.883  0.00  0.00    +0.000 C 
BRANCH  23  24
ATOM     24  C   UNL     1       2.204   4.051  20.105  0.00  0.00    +0.000 A 
ATOM     25  C   UNL     1       1.216   3.486  19.283  0.00  0.00    +0.000 A 
ATOM     26  C   UNL     1       1.456   2.289  18.608  0.00  0.00    +0.000 A 
ATOM     27  C   UNL     1       2.688   1.650  18.739  0.00  0.00    +0.000 A 
ATOM     28  C   UNL     1       3.685   2.215  19.531  0.00  0.00    +0.000 A 
ATOM     29  C   UNL     1       3.447   3.413  20.207  0.00  0.00    +0.000 A 
ENDBRANCH  23  24
ENDBRANCH  22  23
ENDBRANCH  10  22
BRANCH  11  30
ATOM     30  O   UNL     1       2.766   8.063  18.083  0.00  0.00    +0.000 OA
BRANCH  30  31
ATOM     31  C   UNL     1       2.537   6.711  17.663  0.00  0.00    +0.000 C 
BRANCH  31  32
ATOM     32  C   UNL     1       3.834   6.041  17.305  0.00  0.00    +0.000 A 
ATOM     33  C   UNL     1       3.849   4.704  16.892  0.00  0.00    +0.000 A 
ATOM     34  C   UNL     1       5.051   4.089  16.550  0.00  0.00    +0.000 A 
ATOM     35  C   UNL     1       6.246   4.808  16.615  0.00  0.00    +0.000 A 
ATOM     36  C   UNL     1       6.239   6.142  17.016  0.00  0.00    +0.000 A 
ATOM     37  C   UNL     1       5.035   6.756  17.356  0.00  0.00    +0.000 A 
ENDBRANCH  31  32
ENDBRANCH  30  31
ENDBRANCH  11  30
TORSDOF 7
ENDMDL
MODEL 8
REMARK VINA RESULT:      -7.3      1.048      1.548
REMARK  Name = 
REMARK  7 active torsions:
REMARK  status: ('A' for Active; 'I' for Inactive)
REMARK    1  A    between atoms: C_4  and  C_5
REMARK    2  A    between atoms: C_16  and  O_17
REMARK    3  A    between atoms: O_17  and  C_18
REMARK    4  A    between atoms: C_18  and  C_19
REMARK    5  A    between atoms: C_25  and  O_26
REMARK    6  A    between atoms: O_26  and  C_27
REMARK    7  A    between atoms: C_27  and  C_28
REMARK                            x       y       z     vdW  Elec       q    Type
REMARK                         _______ _______ _______ _____ _____    ______ ____
ROOT
ATOM      1  O   UNL     1       3.447  13.674  19.077  0.00  0.00    +0.000 OA
ATOM      2  C   UNL     1       2.225  13.682  19.221  0.00  0.00    +0.000 C 
ATOM      3  C   UNL     1       1.537  14.650  20.129  0.00  0.00    +0.000 C 
ATOM      4  C   UNL     1       0.393  13.970  20.890  0.00  0.00    +0.000 C 
ATOM      5  N   UNL     1      -0.058  12.665  20.435  0.00  0.00    +0.000 NA
ATOM      6  C   UNL     1      -0.770  11.834  21.393  0.00  0.00    +0.000 C 
ATOM      7  C   UNL     1       0.123  10.699  21.891  0.00  0.00    +0.000 C 
ATOM      8  C   UNL     1       0.772   9.967  20.745  0.00  0.00    +0.000 A 
ATOM      9  C   UNL     1       1.246   8.659  20.942  0.00  0.00    +0.000 A 
ATOM     10  C   UNL     1       1.862   7.951  19.905  0.00  0.00    +0.000 A 
ATOM     11  C   UNL     1       2.018   8.573  18.659  0.00  0.00    +0.000 A 
ATOM     12  C   UNL     1       1.475   9.846  18.454  0.00  0.00    +0.000 A 
ATOM     13  C   UNL     1       0.919  10.592  19.497  0.00  0.00    +0.000 A 
ATOM     14  C   UNL     1       0.394  12.002  19.226  0.00  0.00    +0.000 C 
ATOM     15  C   UNL     1       1.319  12.863  18.358  0.00  0.00    +0.000 C 
ENDROOT
BRANCH   4  16
ATOM     16  C   UNL     1      -0.799  14.924  20.943  0.00  0.00    +0.000 A 
ATOM     17  C   UNL     1      -0.924  15.975  20.015  0.00  0.00    +0.000 A 
ATOM     18  C   UNL     1      -2.031  16.820  20.038  0.00  0.00    +0.000 A 
ATOM     19  C   UNL     1      -3.018  16.640  21.002  0.00  0.00    +0.000 A 
ATOM     20  C   UNL     1      -2.898  15.615  21.941  0.00  0.00    +0.000 A 
ATOM     21  C   UNL     1      -1.795  14.763  21.915  0.00  0.00    +0.000 A 
ENDBRANCH   4  16
BRANCH  10  22
ATOM     22  O   UNL     1       2.382   6.690  20.052  0.00  0.00    +0.000 OA
BRANCH  22  23
ATOM     23  C   UNL     1       1.489   5.685  20.542  0.00  0.00    +0.000 C 
BRANCH  23  24
ATOM     24  C   UNL     1       1.664   4.433  19.719  0.00  0.00    +0.000 A 
ATOM     25  C   UNL     1       2.146   4.503  18.402  0.00  0.00    +0.000 A 
ATOM     26  C   UNL     1       2.256   3.349  17.626  0.00  0.00    +0.000 A 
ATOM     27  C   UNL     1       1.894   2.113  18.159  0.00  0.00    +0.000 A 
ATOM     28  C   UNL     1       1.440   2.027  19.473  0.00  0.00    +0.000 A 
ATOM     29  C   UNL     1       1.330   3.180  20.252  0.00  0.00    +0.000 A 
ENDBRANCH  23  24
ENDBRANCH  22  23
ENDBRANCH  10  22
BRANCH  11  30
ATOM     30  O   UNL     1       2.697   7.906  17.664  0.00  0.00    +0.000 OA
BRANCH  30  31
ATOM     31  C   UNL     1       4.124   8.020  17.755  0.00  0.00    +0.000 C 
BRANCH  31  32
ATOM     32  C   UNL     1       4.788   6.770  17.252  0.00  0.00    +0.000 A 
ATOM     33  C   UNL     1       5.239   5.797  18.152  0.00  0.00    +0.000 A 
ATOM     34  C   UNL     1       5.845   4.635  17.682  0.00  0.00    +0.000 A 
ATOM     35  C   UNL     1       6.001   4.435  16.309  0.00  0.00    +0.000 A 
ATOM     36  C   UNL     1       5.548   5.394  15.406  0.00  0.00    +0.000 A 
ATOM     37  C   UNL     1       4.940   6.557  15.878  0.00  0.00    +0.000 A 
ENDBRANCH  31  32
ENDBRANCH  30  31
ENDBRANCH  11  30
TORSDOF 7
ENDMDL
MODEL 9
REMARK VINA RESULT:      -7.3      1.559      2.012
REMARK  Name = 
REMARK  7 active torsions:
REMARK  status: ('A' for Active; 'I' for Inactive)
REMARK    1  A    between atoms: C_4  and  C_5
REMARK    2  A    between atoms: C_16  and  O_17
REMARK    3  A    between atoms: O_17  and  C_18
REMARK    4  A    between atoms: C_18  and  C_19
REMARK    5  A    between atoms: C_25  and  O_26
REMARK    6  A    between atoms: O_26  and  C_27
REMARK    7  A    between atoms: C_27  and  C_28
REMARK                            x       y       z     vdW  Elec       q    Type
REMARK                         _______ _______ _______ _____ _____    ______ ____
ROOT
ATOM      1  O   UNL     1       4.032  13.800  18.984  0.00  0.00    +0.000 OA
ATOM      2  C   UNL     1       2.810  13.951  19.002  0.00  0.00    +0.000 C 
ATOM      3  C   UNL     1       2.148  14.968  19.875  0.00  0.00    +0.000 C 
ATOM      4  C   UNL     1       0.858  14.410  20.485  0.00  0.00    +0.000 C 
ATOM      5  N   UNL     1       0.308  13.182  19.933  0.00  0.00    +0.000 NA
ATOM      6  C   UNL     1      -0.594  12.415  20.778  0.00  0.00    +0.000 C 
ATOM      7  C   UNL     1       0.102  11.167  21.317  0.00  0.00    +0.000 C 
ATOM      8  C   UNL     1       0.780  10.396  20.214  0.00  0.00    +0.000 A 
ATOM      9  C   UNL     1       1.073   9.035  20.404  0.00  0.00    +0.000 A 
ATOM     10  C   UNL     1       1.710   8.288  19.407  0.00  0.00    +0.000 A 
ATOM     11  C   UNL     1       2.069   8.922  18.210  0.00  0.00    +0.000 A 
ATOM     12  C   UNL     1       1.703  10.258  18.003  0.00  0.00    +0.000 A 
ATOM     13  C   UNL     1       1.131  11.035  19.014  0.00  0.00    +0.000 A 
ATOM     14  C   UNL     1       0.805  12.504  18.750  0.00  0.00    +0.000 C 
ATOM     15  C   UNL     1       1.912  13.272  18.017  0.00  0.00    +0.000 C 
ENDROOT
BRANCH   4  16
ATOM     16  C   UNL     1      -0.214  15.498  20.456  0.00  0.00    +0.000 A 
ATOM     17  C   UNL     1      -0.851  15.915  21.641  0.00  0.00    +0.000 A 
ATOM     18  C   UNL     1      -1.799  16.935  21.620  0.00  0.00    +0.000 A 
ATOM     19  C   UNL     1      -2.140  17.538  20.413  0.00  0.00    +0.000 A 
ATOM     20  C   UNL     1      -1.532  17.121  19.229  0.00  0.00    +0.000 A 
ATOM     21  C   UNL     1      -0.577  16.105  19.247  0.00  0.00    +0.000 A 
ENDBRANCH   4  16
BRANCH  10  22
ATOM     22  O   UNL     1       2.060   6.970  19.554  0.00  0.00    +0.000 OA
BRANCH  22  23
ATOM     23  C   UNL     1       1.562   6.304  20.719  0.00  0.00    +0.000 C 
BRANCH  23  24
ATOM     24  C   UNL     1       1.658   4.813  20.508  0.00  0.00    +0.000 A 
ATOM     25  C   UNL     1       2.197   3.982  21.503  0.00  0.00    +0.000 A 
ATOM     26  C   UNL     1       2.334   2.611  21.283  0.00  0.00    +0.000 A 
ATOM     27  C   UNL     1       1.925   2.055  20.072  0.00  0.00    +0.000 A 
ATOM     28  C   UNL     1       1.364   2.865  19.088  0.00  0.00    +0.000 A 
ATOM     29  C   UNL     1       1.226   4.237  19.306  0.00  0.00    +0.000 A 
ENDBRANCH  23  24
ENDBRANCH  22  23
ENDBRANCH  10  22
BRANCH  11  30
ATOM     30  O   UNL     1       2.767   8.208  17.263  0.00  0.00    +0.000 OA
BRANCH  30  31
ATOM     31  C   UNL     1       4.058   7.765  17.703  0.00  0.00    +0.000 C 
BRANCH  31  32
ATOM     32  C   UNL     1       4.453   6.499  16.995  0.00  0.00    +0.000 A 
ATOM     33  C   UNL     1       5.187   6.554  15.804  0.00  0.00    +0.000 A 
ATOM     34  C   UNL     1       5.560   5.379  15.157  0.00  0.00    +0.000 A 
ATOM     35  C   UNL     1       5.207   4.141  15.697  0.00  0.00    +0.000 A 
ATOM     36  C   UNL     1       4.485   4.078  16.886  0.00  0.00    +0.000 A 
ATOM     37  C   UNL     1       4.113   5.255  17.534  0.00  0.00    +0.000 A 
ENDBRANCH  31  32
ENDBRANCH  30  31
ENDBRANCH  11  30
TORSDOF 7
ENDMDL
