MODEL 1
REMARK VINA RESULT:      -6.3      0.000      0.000
REMARK  Name = 
REMARK  7 active torsions:
REMARK  status: ('A' for Active; 'I' for Inactive)
REMARK    1  A    between atoms: N_1  and  CA_2
REMARK    2  A    between atoms: CA_2  and  C_3
REMARK    3  A    between atoms: CA_2  and  C_13
REMARK    4  A    between atoms: C_3  and  C_4
REMARK    5  A    between atoms: C_7  and  O_8
REMARK    6  A    between atoms: O_8  and  C_9
REMARK    7  A    between atoms: C_13  and  OXT_15
REMARK                            x       y       z     vdW  Elec       q    Type
REMARK                         _______ _______ _______ _____ _____    ______ ____
ROOT
ATOM      1  C   UNL     1       4.715   4.723  16.250  0.00  0.00    +0.000 C 
ENDROOT
BRANCH   1   2
ATOM      2  C   UNL     1       3.784   4.078  17.255  0.00  0.00    +0.000 A 
ATOM      3  C   UNL     1       2.774   4.813  17.885  0.00  0.00    +0.000 A 
ATOM      4  C   UNL     1       1.949   4.208  18.837  0.00  0.00    +0.000 A 
ATOM      5  C   UNL     1       2.099   2.857  19.153  0.00  0.00    +0.000 A 
ATOM      6  C   UNL     1       3.092   2.112  18.518  0.00  0.00    +0.000 A 
ATOM      7  C   UNL     1       3.924   2.721  17.575  0.00  0.00    +0.000 A 
BRANCH   5   8
ATOM      8  O   UNL     1       1.259   2.394  20.129  0.00  0.00    +0.000 OA
BRANCH   8   9
ATOM      9  C   UNL     1       1.479   2.915  21.430  0.00  0.00    +0.000 C 
ATOM     10  F   UNL     1       2.754   2.582  21.772  0.00  0.00    +0.000 F 
ENDBRANCH   8   9
ENDBRANCH   5   8
ENDBRANCH   1   2
BRANCH   1  11
ATOM     11  CA  UNL     1       6.023   3.945  15.985  0.00  0.00    +0.000 C 
BRANCH  11  12
ATOM     12  N   UNL     1       6.169   3.572  14.559  0.00  0.00    +0.000 NA
ATOM     13  H1  UNL     1       7.119   3.339  14.295  0.00  0.00    +0.000 HD
ATOM     14  H2  UNL     1       5.880   4.356  13.972  0.00  0.00    +0.000 HD
ENDBRANCH  11  12
BRANCH  11  15
ATOM     15  C   UNL     1       7.226   4.796  16.433  0.00  0.00    +0.000 C 
ATOM     16  O   UNL     1       7.454   5.944  16.079  0.00  0.00    +0.000 OA
BRANCH  15  17
ATOM     17  OXT UNL     1       8.048   4.132  17.286  0.00  0.00    +0.000 OA
ATOM     18  HXT UNL     1       8.421   4.712  17.977  0.00  0.00    +0.000 HD
ENDBRANCH  15  17
ENDBRANCH  11  15
ENDBRANCH   1  11
TORSDOF 7
ENDMDL
MODEL 2
REMARK VINA RESULT:      -6.1      0.964      1.172
REMARK  Name = 
REMARK  7 active torsions:
REMARK  status: ('A' for Active; 'I' for Inactive)
REMARK    1  A    between atoms: N_1  and  CA_2
REMARK    2  A    between atoms: CA_2  and  C_3
REMARK    3  A    between atoms: CA_2  and  C_13
REMARK    4  A    between atoms: C_3  and  C_4
REMARK    5  A    between atoms: C_7  and  O_8
REMARK    6  A    between atoms: O_8  and  C_9
REMARK    7  A    between atoms: C_13  and  OXT_15
REMARK                            x       y       z     vdW  Elec       q    Type
REMARK                         _______ _______ _______ _____ _____    ______ ____
ROOT
ATOM      1  C   UNL     1       4.783   4.993  16.313  0.00  0.00    +0.000 C 
ENDROOT
BRANCH   1   2
ATOM      2  C   UNL     1       3.891   4.778  17.516  0.00  0.00    +0.000 A 
ATOM      3  C   UNL     1       4.142   5.425  18.731  0.00  0.00    +0.000 A 
ATOM      4  C   UNL     1       3.328   5.184  19.841  0.00  0.00    +0.000 A 
ATOM      5  C   UNL     1       2.236   4.319  19.748  0.00  0.00    +0.000 A 
ATOM      6  C   UNL     1       1.968   3.683  18.538  0.00  0.00    +0.000 A 
ATOM      7  C   UNL     1       2.791   3.915  17.431  0.00  0.00    +0.000 A 
BRANCH   5   8
ATOM      8  O   UNL     1       1.543   4.136  20.914  0.00  0.00    +0.000 OA
BRANCH   8   9
ATOM      9  C   UNL     1       1.557   2.818  21.439  0.00  0.00    +0.000 C 
ATOM     10  F   UNL     1       2.824   2.589  21.882  0.00  0.00    +0.000 F 
ENDBRANCH   8   9
ENDBRANCH   5   8
ENDBRANCH   1   2
BRANCH   1  11
ATOM     11  CA  UNL     1       6.021   4.070  16.248  0.00  0.00    +0.000 C 
BRANCH  11  12
ATOM     12  N   UNL     1       6.210   3.489  14.899  0.00  0.00    +0.000 NA
ATOM     13  H1  UNL     1       5.538   3.819  14.216  0.00  0.00    +0.000 HD
ATOM     14  H2  UNL     1       6.111   2.474  14.949  0.00  0.00    +0.000 HD
ENDBRANCH  11  12
BRANCH  11  15
ATOM     15  C   UNL     1       7.275   4.861  16.663  0.00  0.00    +0.000 C 
ATOM     16  O   UNL     1       7.505   6.027  16.375  0.00  0.00    +0.000 OA
BRANCH  15  17
ATOM     17  OXT UNL     1       8.140   4.121  17.402  0.00  0.00    +0.000 OA
ATOM     18  HXT UNL     1       8.205   4.429  18.325  0.00  0.00    +0.000 HD
ENDBRANCH  15  17
ENDBRANCH  11  15
ENDBRANCH   1  11
TORSDOF 7
ENDMDL
MODEL 3
REMARK VINA RESULT:      -6.1      1.084      1.596
REMARK  Name = 
REMARK  7 active torsions:
REMARK  status: ('A' for Active; 'I' for Inactive)
REMARK    1  A    between atoms: N_1  and  CA_2
REMARK    2  A    between atoms: CA_2  and  C_3
REMARK    3  A    between atoms: CA_2  and  C_13
REMARK    4  A    between atoms: C_3  and  C_4
REMARK    5  A    between atoms: C_7  and  O_8
REMARK    6  A    between atoms: O_8  and  C_9
REMARK    7  A    between atoms: C_13  and  OXT_15
REMARK                            x       y       z     vdW  Elec       q    Type
REMARK                         _______ _______ _______ _____ _____    ______ ____
ROOT
ATOM      1  C   UNL     1       4.761   4.674  15.980  0.00  0.00    +0.000 C 
ENDROOT
BRANCH   1   2
ATOM      2  C   UNL     1       4.166   4.529  17.364  0.00  0.00    +0.000 A 
ATOM      3  C   UNL     1       3.666   3.302  17.815  0.00  0.00    +0.000 A 
ATOM      4  C   UNL     1       3.086   3.199  19.082  0.00  0.00    +0.000 A 
ATOM      5  C   UNL     1       3.025   4.306  19.929  0.00  0.00    +0.000 A 
ATOM      6  C   UNL     1       3.536   5.528  19.496  0.00  0.00    +0.000 A 
ATOM      7  C   UNL     1       4.104   5.635  18.223  0.00  0.00    +0.000 A 
BRANCH   5   8
ATOM      8  O   UNL     1       2.398   4.085  21.126  0.00  0.00    +0.000 OA
BRANCH   8   9
ATOM      9  C   UNL     1       1.318   3.166  21.096  0.00  0.00    +0.000 C 
ATOM     10  F   UNL     1       1.619   2.182  21.987  0.00  0.00    +0.000 F 
ENDBRANCH   8   9
ENDBRANCH   5   8
ENDBRANCH   1   2
BRANCH   1  11
ATOM     11  CA  UNL     1       6.106   3.943  15.771  0.00  0.00    +0.000 C 
BRANCH  11  12
ATOM     12  N   UNL     1       6.357   3.639  14.343  0.00  0.00    +0.000 NA
ATOM     13  H1  UNL     1       5.695   2.983  13.945  0.00  0.00    +0.000 HD
ATOM     14  H2  UNL     1       7.285   3.225  14.242  0.00  0.00    +0.000 HD
ENDBRANCH  11  12
BRANCH  11  15
ATOM     15  C   UNL     1       7.252   4.803  16.336  0.00  0.00    +0.000 C 
ATOM     16  O   UNL     1       7.453   5.979  16.070  0.00  0.00    +0.000 OA
BRANCH  15  17
ATOM     17  OXT UNL     1       8.053   4.112  17.186  0.00  0.00    +0.000 OA
ATOM     18  HXT UNL     1       7.756   4.169  18.114  0.00  0.00    +0.000 HD
ENDBRANCH  15  17
ENDBRANCH  11  15
ENDBRANCH   1  11
TORSDOF 7
ENDMDL
MODEL 4
REMARK VINA RESULT:      -6.1      2.142      2.442
REMARK  Name = 
REMARK  7 active torsions:
REMARK  status: ('A' for Active; 'I' for Inactive)
REMARK    1  A    between atoms: N_1  and  CA_2
REMARK    2  A    between atoms: CA_2  and  C_3
REMARK    3  A    between atoms: CA_2  and  C_13
REMARK    4  A    between atoms: C_3  and  C_4
REMARK    5  A    between atoms: C_7  and  O_8
REMARK    6  A    between atoms: O_8  and  C_9
REMARK    7  A    between atoms: C_13  and  OXT_15
REMARK                            x       y       z     vdW  Elec       q    Type
REMARK                         _______ _______ _______ _____ _____    ______ ____
ROOT
ATOM      1  C   UNL     1       5.380   6.638  17.403  0.00  0.00    +0.000 C 
ENDROOT
BRANCH   1   2
ATOM      2  C   UNL     1       4.233   5.657  17.520  0.00  0.00    +0.000 A 
ATOM      3  C   UNL     1       3.016   6.029  18.101  0.00  0.00    +0.000 A 
ATOM      4  C   UNL     1       1.983   5.097  18.234  0.00  0.00    +0.000 A 
ATOM      5  C   UNL     1       2.137   3.792  17.762  0.00  0.00    +0.000 A 
ATOM      6  C   UNL     1       3.340   3.417  17.168  0.00  0.00    +0.000 A 
ATOM      7  C   UNL     1       4.378   4.346  17.046  0.00  0.00    +0.000 A 
BRANCH   5   8
ATOM      8  O   UNL     1       1.069   2.966  17.989  0.00  0.00    +0.000 OA
BRANCH   8   9
ATOM      9  C   UNL     1       0.797   2.668  19.349  0.00  0.00    +0.000 C 
ATOM     10  F   UNL     1       1.932   2.117  19.861  0.00  0.00    +0.000 F 
ENDBRANCH   8   9
ENDBRANCH   5   8
ENDBRANCH   1   2
BRANCH   1  11
ATOM     11  CA  UNL     1       6.786   5.997  17.403  0.00  0.00    +0.000 C 
BRANCH  11  12
ATOM     12  N   UNL     1       7.713   6.691  16.480  0.00  0.00    +0.000 NA
ATOM     13  H1  UNL     1       7.344   7.559  16.110  0.00  0.00    +0.000 HD
ATOM     14  H2  UNL     1       7.913   6.088  15.681  0.00  0.00    +0.000 HD
ENDBRANCH  11  12
BRANCH  11  15
ATOM     15  C   UNL     1       7.357   6.010  18.833  0.00  0.00    +0.000 C 
ATOM     16  O   UNL     1       6.964   5.315  19.759  0.00  0.00    +0.000 OA
BRANCH  15  17
ATOM     17  OXT UNL     1       8.373   6.897  18.983  0.00  0.00    +0.000 OA
ATOM     18  HXT UNL     1       8.146   7.788  18.655  0.00  0.00    +0.000 HD
ENDBRANCH  15  17
ENDBRANCH  11  15
ENDBRANCH   1  11
TORSDOF 7
ENDMDL
MODEL 5
REMARK VINA RESULT:      -5.9      2.006      2.224
REMARK  Name = 
REMARK  7 active torsions:
REMARK  status: ('A' for Active; 'I' for Inactive)
REMARK    1  A    between atoms: N_1  and  CA_2
REMARK    2  A    between atoms: CA_2  and  C_3
REMARK    3  A    between atoms: CA_2  and  C_13
REMARK    4  A    between atoms: C_3  and  C_4
REMARK    5  A    between atoms: C_7  and  O_8
REMARK    6  A    between atoms: O_8  and  C_9
REMARK    7  A    between atoms: C_13  and  OXT_15
REMARK                            x       y       z     vdW  Elec       q    Type
REMARK                         _______ _______ _______ _____ _____    ______ ____
ROOT
ATOM      1  C   UNL     1       5.584   6.349  17.256  0.00  0.00    +0.000 C 
ENDROOT
BRANCH   1   2
ATOM      2  C   UNL     1       4.307   5.552  17.414  0.00  0.00    +0.000 A 
ATOM      3  C   UNL     1       3.173   6.108  18.016  0.00  0.00    +0.000 A 
ATOM      4  C   UNL     1       2.016   5.342  18.186  0.00  0.00    +0.000 A 
ATOM      5  C   UNL     1       1.963   4.023  17.733  0.00  0.00    +0.000 A 
ATOM      6  C   UNL     1       3.082   3.466  17.117  0.00  0.00    +0.000 A 
ATOM      7  C   UNL     1       4.243   4.228  16.958  0.00  0.00    +0.000 A 
BRANCH   5   8
ATOM      8  O   UNL     1       0.790   3.369  17.996  0.00  0.00    +0.000 OA
BRANCH   8   9
ATOM      9  C   UNL     1       0.874   2.304  18.929  0.00  0.00    +0.000 C 
ATOM     10  F   UNL     1       1.041   2.873  20.155  0.00  0.00    +0.000 F 
ENDBRANCH   8   9
ENDBRANCH   5   8
ENDBRANCH   1   2
BRANCH   1  11
ATOM     11  CA  UNL     1       6.797   5.795  18.036  0.00  0.00    +0.000 C 
BRANCH  11  12
ATOM     12  N   UNL     1       6.390   5.116  19.287  0.00  0.00    +0.000 NA
ATOM     13  H1  UNL     1       6.457   4.105  19.241  0.00  0.00    +0.000 HD
ATOM     14  H2  UNL     1       5.416   5.341  19.495  0.00  0.00    +0.000 HD
ENDBRANCH  11  12
BRANCH  11  15
ATOM     15  C   UNL     1       7.583   4.821  17.138  0.00  0.00    +0.000 C 
ATOM     16  O   UNL     1       7.536   4.788  15.917  0.00  0.00    +0.000 OA
BRANCH  15  17
ATOM     17  OXT UNL     1       8.362   3.966  17.849  0.00  0.00    +0.000 OA
ATOM     18  HXT UNL     1       8.238   3.036  17.583  0.00  0.00    +0.000 HD
ENDBRANCH  15  17
ENDBRANCH  11  15
ENDBRANCH   1  11
TORSDOF 7
ENDMDL
MODEL 6
REMARK VINA RESULT:      -5.9      1.815      2.074
REMARK  Name = 
REMARK  7 active torsions:
REMARK  status: ('A' for Active; 'I' for Inactive)
REMARK    1  A    between atoms: N_1  and  CA_2
REMARK    2  A    between atoms: CA_2  and  C_3
REMARK    3  A    between atoms: CA_2  and  C_13
REMARK    4  A    between atoms: C_3  and  C_4
REMARK    5  A    between atoms: C_7  and  O_8
REMARK    6  A    between atoms: O_8  and  C_9
REMARK    7  A    between atoms: C_13  and  OXT_15
REMARK                            x       y       z     vdW  Elec       q    Type
REMARK                         _______ _______ _______ _____ _____    ______ ____
ROOT
ATOM      1  C   UNL     1       5.869   4.583  16.906  0.00  0.00    +0.000 C 
ENDROOT
BRANCH   1   2
ATOM      2  C   UNL     1       4.728   3.973  17.691  0.00  0.00    +0.000 A 
ATOM      3  C   UNL     1       4.844   3.716  19.062  0.00  0.00    +0.000 A 
ATOM      4  C   UNL     1       3.791   3.118  19.760  0.00  0.00    +0.000 A 
ATOM      5  C   UNL     1       2.599   2.795  19.110  0.00  0.00    +0.000 A 
ATOM      6  C   UNL     1       2.468   3.062  17.748  0.00  0.00    +0.000 A 
ATOM      7  C   UNL     1       3.526   3.649  17.047  0.00  0.00    +0.000 A 
BRANCH   5   8
ATOM      8  O   UNL     1       1.662   2.177  19.893  0.00  0.00    +0.000 OA
BRANCH   8   9
ATOM      9  C   UNL     1       1.283   2.875  21.069  0.00  0.00    +0.000 C 
ATOM     10  F   UNL     1       0.669   4.019  20.661  0.00  0.00    +0.000 F 
ENDBRANCH   8   9
ENDBRANCH   5   8
ENDBRANCH   1   2
BRANCH   1  11
ATOM     11  CA  UNL     1       5.482   5.127  15.513  0.00  0.00    +0.000 C 
BRANCH  11  12
ATOM     12  N   UNL     1       5.360   6.603  15.506  0.00  0.00    +0.000 NA
ATOM     13  H1  UNL     1       5.022   6.986  16.382  0.00  0.00    +0.000 HD
ATOM     14  H2  UNL     1       4.697   6.885  14.782  0.00  0.00    +0.000 HD
ENDBRANCH  11  12
BRANCH  11  15
ATOM     15  C   UNL     1       6.531   4.680  14.477  0.00  0.00    +0.000 C 
ATOM     16  O   UNL     1       6.381   3.786  13.657  0.00  0.00    +0.000 OA
BRANCH  15  17
ATOM     17  OXT UNL     1       7.685   5.391  14.561  0.00  0.00    +0.000 OA
ATOM     18  HXT UNL     1       8.470   4.864  14.319  0.00  0.00    +0.000 HD
ENDBRANCH  15  17
ENDBRANCH  11  15
ENDBRANCH   1  11
TORSDOF 7
ENDMDL
MODEL 7
REMARK VINA RESULT:      -5.9      2.155      2.406
REMARK  Name = 
REMARK  7 active torsions:
REMARK  status: ('A' for Active; 'I' for Inactive)
REMARK    1  A    between atoms: N_1  and  CA_2
REMARK    2  A    between atoms: CA_2  and  C_3
REMARK    3  A    between atoms: CA_2  and  C_13
REMARK    4  A    between atoms: C_3  and  C_4
REMARK    5  A    between atoms: C_7  and  O_8
REMARK    6  A    between atoms: O_8  and  C_9
REMARK    7  A    between atoms: C_13  and  OXT_15
REMARK                            x       y       z     vdW  Elec       q    Type
REMARK                         _______ _______ _______ _____ _____    ______ ____
ROOT
ATOM      1  C   UNL     1       5.939   5.685  16.813  0.00  0.00    +0.000 C 
ENDROOT
BRANCH   1   2
ATOM      2  C   UNL     1       4.566   5.117  17.102  0.00  0.00    +0.000 A 
ATOM      3  C   UNL     1       3.569   5.895  17.699  0.00  0.00    +0.000 A 
ATOM      4  C   UNL     1       2.320   5.341  17.991  0.00  0.00    +0.000 A 
ATOM      5  C   UNL     1       2.037   4.013  17.665  0.00  0.00    +0.000 A 
ATOM      6  C   UNL     1       3.018   3.235  17.055  0.00  0.00    +0.000 A 
ATOM      7  C   UNL     1       4.272   3.786  16.774  0.00  0.00    +0.000 A 
BRANCH   5   8
ATOM      8  O   UNL     1       0.794   3.578  18.039  0.00  0.00    +0.000 OA
BRANCH   8   9
ATOM      9  C   UNL     1       0.769   2.557  19.025  0.00  0.00    +0.000 C 
ATOM     10  F   UNL     1       0.867   3.179  20.232  0.00  0.00    +0.000 F 
ENDBRANCH   8   9
ENDBRANCH   5   8
ENDBRANCH   1   2
BRANCH   1  11
ATOM     11  CA  UNL     1       6.861   5.814  18.047  0.00  0.00    +0.000 C 
BRANCH  11  12
ATOM     12  N   UNL     1       7.751   4.641  18.201  0.00  0.00    +0.000 NA
ATOM     13  H1  UNL     1       7.484   4.026  18.962  0.00  0.00    +0.000 HD
ATOM     14  H2  UNL     1       8.702   4.959  18.394  0.00  0.00    +0.000 HD
ENDBRANCH  11  12
BRANCH  11  15
ATOM     15  C   UNL     1       7.699   7.100  17.929  0.00  0.00    +0.000 C 
ATOM     16  O   UNL     1       7.654   7.894  16.999  0.00  0.00    +0.000 OA
BRANCH  15  17
ATOM     17  OXT UNL     1       8.530   7.283  18.987  0.00  0.00    +0.000 OA
ATOM     18  HXT UNL     1       8.645   8.224  19.216  0.00  0.00    +0.000 HD
ENDBRANCH  15  17
ENDBRANCH  11  15
ENDBRANCH   1  11
TORSDOF 7
ENDMDL
MODEL 8
REMARK VINA RESULT:      -5.9      1.077      1.327
REMARK  Name = 
REMARK  7 active torsions:
REMARK  status: ('A' for Active; 'I' for Inactive)
REMARK    1  A    between atoms: N_1  and  CA_2
REMARK    2  A    between atoms: CA_2  and  C_3
REMARK    3  A    between atoms: CA_2  and  C_13
REMARK    4  A    between atoms: C_3  and  C_4
REMARK    5  A    between atoms: C_7  and  O_8
REMARK    6  A    between atoms: O_8  and  C_9
REMARK    7  A    between atoms: C_13  and  OXT_15
REMARK                            x       y       z     vdW  Elec       q    Type
REMARK                         _______ _______ _______ _____ _____    ______ ____
ROOT
ATOM      1  C   UNL     1       4.849   5.066  16.461  0.00  0.00    +0.000 C 
ENDROOT
BRANCH   1   2
ATOM      2  C   UNL     1       4.019   4.300  17.469  0.00  0.00    +0.000 A 
ATOM      3  C   UNL     1       4.579   3.829  18.662  0.00  0.00    +0.000 A 
ATOM      4  C   UNL     1       3.804   3.092  19.562  0.00  0.00    +0.000 A 
ATOM      5  C   UNL     1       2.456   2.841  19.302  0.00  0.00    +0.000 A 
ATOM      6  C   UNL     1       1.886   3.320  18.124  0.00  0.00    +0.000 A 
ATOM      7  C   UNL     1       2.664   4.047  17.218  0.00  0.00    +0.000 A 
BRANCH   5   8
ATOM      8  O   UNL     1       1.819   2.074  20.239  0.00  0.00    +0.000 OA
BRANCH   8   9
ATOM      9  C   UNL     1       1.535   2.716  21.472  0.00  0.00    +0.000 C 
ATOM     10  F   UNL     1       1.022   3.939  21.165  0.00  0.00    +0.000 F 
ENDBRANCH   8   9
ENDBRANCH   5   8
ENDBRANCH   1   2
BRANCH   1  11
ATOM     11  CA  UNL     1       5.818   4.200  15.625  0.00  0.00    +0.000 C 
BRANCH  11  12
ATOM     12  N   UNL     1       5.406   4.117  14.205  0.00  0.00    +0.000 NA
ATOM     13  H1  UNL     1       6.173   4.224  13.552  0.00  0.00    +0.000 HD
ATOM     14  H2  UNL     1       4.735   4.860  14.002  0.00  0.00    +0.000 HD
ENDBRANCH  11  12
BRANCH  11  15
ATOM     15  C   UNL     1       7.242   4.776  15.728  0.00  0.00    +0.000 C 
ATOM     16  O   UNL     1       7.769   5.514  14.907  0.00  0.00    +0.000 OA
BRANCH  15  17
ATOM     17  OXT UNL     1       7.889   4.376  16.852  0.00  0.00    +0.000 OA
ATOM     18  HXT UNL     1       8.546   5.029  17.160  0.00  0.00    +0.000 HD
ENDBRANCH  15  17
ENDBRANCH  11  15
ENDBRANCH   1  11
TORSDOF 7
ENDMDL
MODEL 9
REMARK VINA RESULT:      -5.9      2.030      2.449
REMARK  Name = 
REMARK  7 active torsions:
REMARK  status: ('A' for Active; 'I' for Inactive)
REMARK    1  A    between atoms: N_1  and  CA_2
REMARK    2  A    between atoms: CA_2  and  C_3
REMARK    3  A    between atoms: CA_2  and  C_13
REMARK    4  A    between atoms: C_3  and  C_4
REMARK    5  A    between atoms: C_7  and  O_8
REMARK    6  A    between atoms: O_8  and  C_9
REMARK    7  A    between atoms: C_13  and  OXT_15
REMARK                            x       y       z     vdW  Elec       q    Type
REMARK                         _______ _______ _______ _____ _____    ______ ____
ROOT
ATOM      1  C   UNL     1       5.507   6.366  17.583  0.00  0.00    +0.000 C 
ENDROOT
BRANCH   1   2
ATOM      2  C   UNL     1       4.630   5.202  17.994  0.00  0.00    +0.000 A 
ATOM      3  C   UNL     1       4.205   4.249  17.061  0.00  0.00    +0.000 A 
ATOM      4  C   UNL     1       3.366   3.202  17.453  0.00  0.00    +0.000 A 
ATOM      5  C   UNL     1       2.964   3.073  18.784  0.00  0.00    +0.000 A 
ATOM      6  C   UNL     1       3.395   4.008  19.723  0.00  0.00    +0.000 A 
ATOM      7  C   UNL     1       4.225   5.062  19.328  0.00  0.00    +0.000 A 
BRANCH   5   8
ATOM      8  O   UNL     1       2.110   2.032  19.031  0.00  0.00    +0.000 OA
BRANCH   8   9
ATOM      9  C   UNL     1       0.731   2.307  18.842  0.00  0.00    +0.000 C 
ATOM     10  F   UNL     1       0.351   3.116  19.869  0.00  0.00    +0.000 F 
ENDBRANCH   8   9
ENDBRANCH   5   8
ENDBRANCH   1   2
BRANCH   1  11
ATOM     11  CA  UNL     1       6.910   5.974  17.071  0.00  0.00    +0.000 C 
BRANCH  11  12
ATOM     12  N   UNL     1       7.718   7.159  16.701  0.00  0.00    +0.000 NA
ATOM     13  H1  UNL     1       8.718   7.007  16.771  0.00  0.00    +0.000 HD
ATOM     14  H2  UNL     1       7.490   7.933  17.326  0.00  0.00    +0.000 HD
ENDBRANCH  11  12
BRANCH  11  15
ATOM     15  C   UNL     1       7.641   5.153  18.149  0.00  0.00    +0.000 C 
ATOM     16  O   UNL     1       7.722   5.450  19.333  0.00  0.00    +0.000 OA
BRANCH  15  17
ATOM     17  OXT UNL     1       8.215   4.027  17.652  0.00  0.00    +0.000 OA
ATOM     18  HXT UNL     1       8.577   3.450  18.350  0.00  0.00    +0.000 HD
ENDBRANCH  15  17
ENDBRANCH  11  15
ENDBRANCH   1  11
TORSDOF 7
ENDMDL
