MODEL 1
REMARK VINA RESULT:      -8.0      0.000      0.000
REMARK  Name = 
REMARK  12 active torsions:
REMARK  status: ('A' for Active; 'I' for Inactive)
REMARK    1  A    between atoms: C_1  and  C_2
REMARK    2  A    between atoms: C_2  and  O_3
REMARK    3  A    between atoms: O_3  and  C_4
REMARK    4  A    between atoms: C_9  and  C_10
REMARK    5  A    between atoms: N_12  and  C_13
REMARK    6  A    between atoms: C_13  and  C_14
REMARK    7  A    between atoms: C_13  and  C_25
REMARK    8  A    between atoms: N_16  and  C_17
REMARK    9  A    between atoms: C_17  and  C_18
REMARK   10  A    between atoms: C_18  and  C_19
REMARK   11  A    between atoms: C_25  and  C_26
REMARK   12  A    between atoms: C_25  and  C_27
REMARK                            x       y       z     vdW  Elec       q    Type
REMARK                         _______ _______ _______ _____ _____    ______ ____
ROOT
ATOM      1  C   UNL     1       6.038   5.715  16.690  0.00  0.00    +0.000 C 
ENDROOT
BRANCH   1   4
ATOM      2  C   UNL     1       3.836   5.984  17.847  0.00  0.00    +0.000 C 
ATOM      3  O   UNL     1       3.675   7.118  17.405  0.00  0.00    +0.000 OA
ATOM      4  N   UNL     1       4.973   5.252  17.582  0.00  0.00    +0.000 N 
ATOM      5  H   UNL     1       5.016   4.300  17.930  0.00  0.00    +0.000 HD
BRANCH   2  11
ATOM      6  C   UNL     1       2.101   4.162  18.431  0.00  0.00    +0.000 A 
ATOM      7  C   UNL     1       1.203   3.631  19.372  0.00  0.00    +0.000 A 
ATOM      8  C   UNL     1       0.905   4.321  20.546  0.00  0.00    +0.000 A 
ATOM      9  C   UNL     1       1.523   5.537  20.807  0.00  0.00    +0.000 A 
ATOM     10  C   UNL     1       2.466   6.045  19.909  0.00  0.00    +0.000 A 
ATOM     11  C   UNL     1       2.781   5.361  18.720  0.00  0.00    +0.000 A 
BRANCH   6  12
ATOM     12  O   UNL     1       2.347   3.541  17.232  0.00  0.00    +0.000 OA
BRANCH  12  14
ATOM     13  C   UNL     1       3.705   1.885  18.288  0.00  0.00    +0.000 C 
ATOM     14  C   UNL     1       2.582   2.130  17.298  0.00  0.00    +0.000 C 
ENDBRANCH  12  14
ENDBRANCH   6  12
ENDBRANCH   2  11
ENDBRANCH   1   4
BRANCH   1  15
ATOM     15  C   UNL     1       7.168   6.377  17.517  0.00  0.00    +0.000 C 
ATOM     16  O   UNL     1       7.891   5.742  18.279  0.00  0.00    +0.000 OA
ATOM     17  N   UNL     1       7.374   7.718  17.269  0.00  0.00    +0.000 N 
ATOM     18  H   UNL     1       6.673   8.204  16.720  0.00  0.00    +0.000 HD
BRANCH  17  19
ATOM     19  C   UNL     1       8.318   8.501  18.062  0.00  0.00    +0.000 C 
BRANCH  19  20
ATOM     20  C   UNL     1       8.244  10.017  17.830  0.00  0.00    +0.000 C 
BRANCH  20  21
ATOM     21  C   UNL     1       9.350  10.755  18.539  0.00  0.00    +0.000 A 
ATOM     22  C   UNL     1       9.370  10.831  19.932  0.00  0.00    +0.000 A 
ATOM     23  C   UNL     1      10.435  11.476  20.556  0.00  0.00    +0.000 A 
ATOM     24  C   UNL     1      11.446  12.024  19.777  0.00  0.00    +0.000 A 
ATOM     25  C   UNL     1      11.347  11.909  18.401  0.00  0.00    +0.000 A 
ATOM     26  N   UNL     1      10.326  11.291  17.767  0.00  0.00    +0.000 NA
ENDBRANCH  20  21
ENDBRANCH  19  20
ENDBRANCH  17  19
ENDBRANCH   1  15
BRANCH   1  27
ATOM     27  C   UNL     1       6.625   4.603  15.779  0.00  0.00    +0.000 C 
ATOM     28  C   UNL     1       5.670   3.425  15.556  0.00  0.00    +0.000 C 
ATOM     29  C   UNL     1       7.098   5.131  14.425  0.00  0.00    +0.000 C 
ENDBRANCH   1  27
TORSDOF 9
ENDMDL
MODEL 2
REMARK VINA RESULT:      -7.4      1.251      1.426
REMARK  Name = 
REMARK  12 active torsions:
REMARK  status: ('A' for Active; 'I' for Inactive)
REMARK    1  A    between atoms: C_1  and  C_2
REMARK    2  A    between atoms: C_2  and  O_3
REMARK    3  A    between atoms: O_3  and  C_4
REMARK    4  A    between atoms: C_9  and  C_10
REMARK    5  A    between atoms: N_12  and  C_13
REMARK    6  A    between atoms: C_13  and  C_14
REMARK    7  A    between atoms: C_13  and  C_25
REMARK    8  A    between atoms: N_16  and  C_17
REMARK    9  A    between atoms: C_17  and  C_18
REMARK   10  A    between atoms: C_18  and  C_19
REMARK   11  A    between atoms: C_25  and  C_26
REMARK   12  A    between atoms: C_25  and  C_27
REMARK                            x       y       z     vdW  Elec       q    Type
REMARK                         _______ _______ _______ _____ _____    ______ ____
ROOT
ATOM      1  C   UNL     1       6.335   6.649  17.242  0.00  0.00    +0.000 C 
ENDROOT
BRANCH   1   4
ATOM      2  C   UNL     1       4.088   6.095  18.191  0.00  0.00    +0.000 C 
ATOM      3  O   UNL     1       3.501   6.777  17.356  0.00  0.00    +0.000 OA
ATOM      4  N   UNL     1       5.463   6.014  18.231  0.00  0.00    +0.000 N 
ATOM      5  H   UNL     1       5.880   5.386  18.910  0.00  0.00    +0.000 HD
BRANCH   2  11
ATOM      6  C   UNL     1       3.464   3.960  19.504  0.00  0.00    +0.000 A 
ATOM      7  C   UNL     1       2.737   3.380  20.557  0.00  0.00    +0.000 A 
ATOM      8  C   UNL     1       1.792   4.118  21.267  0.00  0.00    +0.000 A 
ATOM      9  C   UNL     1       1.580   5.454  20.951  0.00  0.00    +0.000 A 
ATOM     10  C   UNL     1       2.342   6.060  19.948  0.00  0.00    +0.000 A 
ATOM     11  C   UNL     1       3.303   5.331  19.223  0.00  0.00    +0.000 A 
BRANCH   6  12
ATOM     12  O   UNL     1       4.340   3.231  18.739  0.00  0.00    +0.000 OA
BRANCH  12  14
ATOM     13  C   UNL     1       2.689   2.529  17.163  0.00  0.00    +0.000 C 
ATOM     14  C   UNL     1       3.794   2.074  18.098  0.00  0.00    +0.000 C 
ENDBRANCH  12  14
ENDBRANCH   6  12
ENDBRANCH   2  11
ENDBRANCH   1   4
BRANCH   1  15
ATOM     15  C   UNL     1       7.499   7.380  17.958  0.00  0.00    +0.000 C 
ATOM     16  O   UNL     1       8.245   6.817  18.754  0.00  0.00    +0.000 OA
ATOM     17  N   UNL     1       7.704   8.687  17.570  0.00  0.00    +0.000 N 
ATOM     18  H   UNL     1       6.986   9.123  17.000  0.00  0.00    +0.000 HD
BRANCH  17  19
ATOM     19  C   UNL     1       8.680   9.536  18.247  0.00  0.00    +0.000 C 
BRANCH  19  20
ATOM     20  C   UNL     1       8.612  11.021  17.861  0.00  0.00    +0.000 C 
BRANCH  20  21
ATOM     21  C   UNL     1       9.617  11.851  18.616  0.00  0.00    +0.000 A 
ATOM     22  C   UNL     1      10.600  11.238  19.394  0.00  0.00    +0.000 A 
ATOM     23  C   UNL     1      11.545  12.035  20.036  0.00  0.00    +0.000 A 
ATOM     24  C   UNL     1      11.484  13.414  19.885  0.00  0.00    +0.000 A 
ATOM     25  C   UNL     1      10.475  13.941  19.100  0.00  0.00    +0.000 A 
ATOM     26  N   UNL     1       9.542  13.195  18.466  0.00  0.00    +0.000 NA
ENDBRANCH  20  21
ENDBRANCH  19  20
ENDBRANCH  17  19
ENDBRANCH   1  15
BRANCH   1  27
ATOM     27  C   UNL     1       6.896   5.671  16.175  0.00  0.00    +0.000 C 
ATOM     28  C   UNL     1       7.418   4.355  16.763  0.00  0.00    +0.000 C 
ATOM     29  C   UNL     1       5.893   5.364  15.063  0.00  0.00    +0.000 C 
ENDBRANCH   1  27
TORSDOF 9
ENDMDL
MODEL 3
REMARK VINA RESULT:      -7.4      1.009      2.363
REMARK  Name = 
REMARK  12 active torsions:
REMARK  status: ('A' for Active; 'I' for Inactive)
REMARK    1  A    between atoms: C_1  and  C_2
REMARK    2  A    between atoms: C_2  and  O_3
REMARK    3  A    between atoms: O_3  and  C_4
REMARK    4  A    between atoms: C_9  and  C_10
REMARK    5  A    between atoms: N_12  and  C_13
REMARK    6  A    between atoms: C_13  and  C_14
REMARK    7  A    between atoms: C_13  and  C_25
REMARK    8  A    between atoms: N_16  and  C_17
REMARK    9  A    between atoms: C_17  and  C_18
REMARK   10  A    between atoms: C_18  and  C_19
REMARK   11  A    between atoms: C_25  and  C_26
REMARK   12  A    between atoms: C_25  and  C_27
REMARK                            x       y       z     vdW  Elec       q    Type
REMARK                         _______ _______ _______ _____ _____    ______ ____
ROOT
ATOM      1  C   UNL     1       5.986   5.969  16.708  0.00  0.00    +0.000 C 
ENDROOT
BRANCH   1   4
ATOM      2  C   UNL     1       3.738   5.954  17.807  0.00  0.00    +0.000 C 
ATOM      3  O   UNL     1       3.446   7.060  17.362  0.00  0.00    +0.000 OA
ATOM      4  N   UNL     1       4.965   5.373  17.572  0.00  0.00    +0.000 N 
ATOM      5  H   UNL     1       5.118   4.432  17.920  0.00  0.00    +0.000 HD
BRANCH   2  11
ATOM      6  C   UNL     1       2.171   5.682  19.842  0.00  0.00    +0.000 A 
ATOM      7  C   UNL     1       1.186   4.920  20.493  0.00  0.00    +0.000 A 
ATOM      8  C   UNL     1       0.839   3.652  20.030  0.00  0.00    +0.000 A 
ATOM      9  C   UNL     1       1.453   3.140  18.894  0.00  0.00    +0.000 A 
ATOM     10  C   UNL     1       2.388   3.914  18.201  0.00  0.00    +0.000 A 
ATOM     11  C   UNL     1       2.748   5.199  18.652  0.00  0.00    +0.000 A 
BRANCH   6  12
ATOM     12  O   UNL     1       2.585   6.898  20.327  0.00  0.00    +0.000 OA
BRANCH  12  14
ATOM     13  C   UNL     1       1.221   8.465  21.502  0.00  0.00    +0.000 C 
ATOM     14  C   UNL     1       1.677   7.987  20.136  0.00  0.00    +0.000 C 
ENDBRANCH  12  14
ENDBRANCH   6  12
ENDBRANCH   2  11
ENDBRANCH   1   4
BRANCH   1  15
ATOM     15  C   UNL     1       7.116   6.581  17.574  0.00  0.00    +0.000 C 
ATOM     16  O   UNL     1       7.744   5.927  18.402  0.00  0.00    +0.000 OA
ATOM     17  N   UNL     1       7.440   7.890  17.284  0.00  0.00    +0.000 N 
ATOM     18  H   UNL     1       6.811   8.403  16.676  0.00  0.00    +0.000 HD
BRANCH  17  19
ATOM     19  C   UNL     1       8.396   8.633  18.100  0.00  0.00    +0.000 C 
BRANCH  19  20
ATOM     20  C   UNL     1       8.290  10.160  17.976  0.00  0.00    +0.000 C 
BRANCH  20  21
ATOM     21  C   UNL     1       9.454  10.865  18.624  0.00  0.00    +0.000 A 
ATOM     22  C   UNL     1       9.484  11.061  20.004  0.00  0.00    +0.000 A 
ATOM     23  C   UNL     1      10.599  11.669  20.575  0.00  0.00    +0.000 A 
ATOM     24  C   UNL     1      11.650  12.063  19.756  0.00  0.00    +0.000 A 
ATOM     25  C   UNL     1      11.538  11.836  18.396  0.00  0.00    +0.000 A 
ATOM     26  N   UNL     1      10.468  11.250  17.813  0.00  0.00    +0.000 NA
ENDBRANCH  20  21
ENDBRANCH  19  20
ENDBRANCH  17  19
ENDBRANCH   1  15
BRANCH   1  27
ATOM     27  C   UNL     1       6.583   4.987  15.666  0.00  0.00    +0.000 C 
ATOM     28  C   UNL     1       6.173   3.527  15.893  0.00  0.00    +0.000 C 
ATOM     29  C   UNL     1       6.264   5.382  14.224  0.00  0.00    +0.000 C 
ENDBRANCH   1  27
TORSDOF 9
ENDMDL
MODEL 4
REMARK VINA RESULT:      -7.4      1.117      2.446
REMARK  Name = 
REMARK  12 active torsions:
REMARK  status: ('A' for Active; 'I' for Inactive)
REMARK    1  A    between atoms: C_1  and  C_2
REMARK    2  A    between atoms: C_2  and  O_3
REMARK    3  A    between atoms: O_3  and  C_4
REMARK    4  A    between atoms: C_9  and  C_10
REMARK    5  A    between atoms: N_12  and  C_13
REMARK    6  A    between atoms: C_13  and  C_14
REMARK    7  A    between atoms: C_13  and  C_25
REMARK    8  A    between atoms: N_16  and  C_17
REMARK    9  A    between atoms: C_17  and  C_18
REMARK   10  A    between atoms: C_18  and  C_19
REMARK   11  A    between atoms: C_25  and  C_26
REMARK   12  A    between atoms: C_25  and  C_27
REMARK                            x       y       z     vdW  Elec       q    Type
REMARK                         _______ _______ _______ _____ _____    ______ ____
ROOT
ATOM      1  C   UNL     1       6.137   5.514  16.157  0.00  0.00    +0.000 C 
ENDROOT
BRANCH   1   4
ATOM      2  C   UNL     1       3.954   5.362  17.368  0.00  0.00    +0.000 C 
ATOM      3  O   UNL     1       3.704   6.551  17.192  0.00  0.00    +0.000 OA
ATOM      4  N   UNL     1       5.130   4.791  16.935  0.00  0.00    +0.000 N 
ATOM      5  H   UNL     1       5.246   3.791  17.062  0.00  0.00    +0.000 HD
BRANCH   2  11
ATOM      6  C   UNL     1       2.137   4.910  19.148  0.00  0.00    +0.000 A 
ATOM      7  C   UNL     1       1.188   4.022  19.683  0.00  0.00    +0.000 A 
ATOM      8  C   UNL     1       1.119   2.700  19.246  0.00  0.00    +0.000 A 
ATOM      9  C   UNL     1       1.980   2.256  18.251  0.00  0.00    +0.000 A 
ATOM     10  C   UNL     1       2.885   3.146  17.667  0.00  0.00    +0.000 A 
ATOM     11  C   UNL     1       2.967   4.486  18.093  0.00  0.00    +0.000 A 
BRANCH   6  12
ATOM     12  O   UNL     1       2.277   6.192  19.620  0.00  0.00    +0.000 OA
BRANCH  12  14
ATOM     13  C   UNL     1       1.454   8.000  20.943  0.00  0.00    +0.000 C 
ATOM     14  C   UNL     1       1.568   6.492  20.826  0.00  0.00    +0.000 C 
ENDBRANCH  12  14
ENDBRANCH   6  12
ENDBRANCH   2  11
ENDBRANCH   1   4
BRANCH   1  15
ATOM     15  C   UNL     1       7.177   6.157  17.109  0.00  0.00    +0.000 C 
ATOM     16  O   UNL     1       7.933   5.492  17.810  0.00  0.00    +0.000 OA
ATOM     17  N   UNL     1       7.266   7.532  17.046  0.00  0.00    +0.000 N 
ATOM     18  H   UNL     1       6.539   8.024  16.537  0.00  0.00    +0.000 HD
BRANCH  17  19
ATOM     19  C   UNL     1       8.110   8.281  17.972  0.00  0.00    +0.000 C 
BRANCH  19  20
ATOM     20  C   UNL     1       8.103   9.801  17.755  0.00  0.00    +0.000 C 
BRANCH  20  21
ATOM     21  C   UNL     1       9.215  10.487  18.506  0.00  0.00    +0.000 A 
ATOM     22  C   UNL     1      10.264  11.096  17.817  0.00  0.00    +0.000 A 
ATOM     23  C   UNL     1      11.247  11.766  18.541  0.00  0.00    +0.000 A 
ATOM     24  C   UNL     1      11.157  11.809  19.927  0.00  0.00    +0.000 A 
ATOM     25  C   UNL     1      10.087  11.174  20.532  0.00  0.00    +0.000 A 
ATOM     26  N   UNL     1       9.120  10.515  19.857  0.00  0.00    +0.000 NA
ENDBRANCH  20  21
ENDBRANCH  19  20
ENDBRANCH  17  19
ENDBRANCH   1  15
BRANCH   1  27
ATOM     27  C   UNL     1       6.855   4.645  15.090  0.00  0.00    +0.000 C 
ATOM     28  C   UNL     1       5.927   3.649  14.385  0.00  0.00    +0.000 C 
ATOM     29  C   UNL     1       7.592   5.477  14.042  0.00  0.00    +0.000 C 
ENDBRANCH   1  27
TORSDOF 9
ENDMDL
MODEL 5
REMARK VINA RESULT:      -7.3      3.665      7.646
REMARK  Name = 
REMARK  12 active torsions:
REMARK  status: ('A' for Active; 'I' for Inactive)
REMARK    1  A    between atoms: C_1  and  C_2
REMARK    2  A    between atoms: C_2  and  O_3
REMARK    3  A    between atoms: O_3  and  C_4
REMARK    4  A    between atoms: C_9  and  C_10
REMARK    5  A    between atoms: N_12  and  C_13
REMARK    6  A    between atoms: C_13  and  C_14
REMARK    7  A    between atoms: C_13  and  C_25
REMARK    8  A    between atoms: N_16  and  C_17
REMARK    9  A    between atoms: C_17  and  C_18
REMARK   10  A    between atoms: C_18  and  C_19
REMARK   11  A    between atoms: C_25  and  C_26
REMARK   12  A    between atoms: C_25  and  C_27
REMARK                            x       y       z     vdW  Elec       q    Type
REMARK                         _______ _______ _______ _____ _____    ______ ____
ROOT
ATOM      1  C   UNL     1       2.701   5.625  19.567  0.00  0.00    +0.000 C 
ENDROOT
BRANCH   1   4
ATOM      2  C   UNL     1       4.634   4.754  18.240  0.00  0.00    +0.000 C 
ATOM      3  O   UNL     1       4.974   3.981  19.131  0.00  0.00    +0.000 OA
ATOM      4  N   UNL     1       3.569   5.615  18.388  0.00  0.00    +0.000 N 
ATOM      5  H   UNL     1       3.306   6.185  17.591  0.00  0.00    +0.000 HD
BRANCH   2  11
ATOM      6  C   UNL     1       6.248   5.842  16.541  0.00  0.00    +0.000 A 
ATOM      7  C   UNL     1       6.983   5.719  15.350  0.00  0.00    +0.000 A 
ATOM      8  C   UNL     1       6.815   4.615  14.516  0.00  0.00    +0.000 A 
ATOM      9  C   UNL     1       5.930   3.607  14.875  0.00  0.00    +0.000 A 
ATOM     10  C   UNL     1       5.241   3.687  16.088  0.00  0.00    +0.000 A 
ATOM     11  C   UNL     1       5.400   4.792  16.945  0.00  0.00    +0.000 A 
BRANCH   6  12
ATOM     12  O   UNL     1       6.336   6.957  17.337  0.00  0.00    +0.000 OA
BRANCH  12  14
ATOM     13  C   UNL     1       7.991   6.308  18.931  0.00  0.00    +0.000 C 
ATOM     14  C   UNL     1       7.646   7.278  17.816  0.00  0.00    +0.000 C 
ENDBRANCH  12  14
ENDBRANCH   6  12
ENDBRANCH   2  11
ENDBRANCH   1   4
BRANCH   1  15
ATOM     15  C   UNL     1       2.189   7.064  19.832  0.00  0.00    +0.000 C 
ATOM     16  O   UNL     1       2.118   7.914  18.950  0.00  0.00    +0.000 OA
ATOM     17  N   UNL     1       1.725   7.300  21.109  0.00  0.00    +0.000 N 
ATOM     18  H   UNL     1       1.918   6.597  21.813  0.00  0.00    +0.000 HD
BRANCH  17  19
ATOM     19  C   UNL     1       1.330   8.639  21.538  0.00  0.00    +0.000 C 
BRANCH  19  20
ATOM     20  C   UNL     1      -0.185   8.886  21.549  0.00  0.00    +0.000 C 
BRANCH  20  21
ATOM     21  C   UNL     1      -0.558  10.157  20.831  0.00  0.00    +0.000 A 
ATOM     22  C   UNL     1      -0.821  11.324  21.548  0.00  0.00    +0.000 A 
ATOM     23  C   UNL     1      -1.112  12.494  20.849  0.00  0.00    +0.000 A 
ATOM     24  C   UNL     1      -1.132  12.466  19.460  0.00  0.00    +0.000 A 
ATOM     25  C   UNL     1      -0.865  11.266  18.827  0.00  0.00    +0.000 A 
ATOM     26  N   UNL     1      -0.582  10.115  19.477  0.00  0.00    +0.000 NA
ENDBRANCH  20  21
ENDBRANCH  19  20
ENDBRANCH  17  19
ENDBRANCH   1  15
BRANCH   1  27
ATOM     27  C   UNL     1       1.504   4.641  19.477  0.00  0.00    +0.000 C 
ATOM     28  C   UNL     1       1.367   3.964  18.108  0.00  0.00    +0.000 C 
ATOM     29  C   UNL     1       1.530   3.571  20.568  0.00  0.00    +0.000 C 
ENDBRANCH   1  27
TORSDOF 9
ENDMDL
MODEL 6
REMARK VINA RESULT:      -7.3      3.801      7.778
REMARK  Name = 
REMARK  12 active torsions:
REMARK  status: ('A' for Active; 'I' for Inactive)
REMARK    1  A    between atoms: C_1  and  C_2
REMARK    2  A    between atoms: C_2  and  O_3
REMARK    3  A    between atoms: O_3  and  C_4
REMARK    4  A    between atoms: C_9  and  C_10
REMARK    5  A    between atoms: N_12  and  C_13
REMARK    6  A    between atoms: C_13  and  C_14
REMARK    7  A    between atoms: C_13  and  C_25
REMARK    8  A    between atoms: N_16  and  C_17
REMARK    9  A    between atoms: C_17  and  C_18
REMARK   10  A    between atoms: C_18  and  C_19
REMARK   11  A    between atoms: C_25  and  C_26
REMARK   12  A    between atoms: C_25  and  C_27
REMARK                            x       y       z     vdW  Elec       q    Type
REMARK                         _______ _______ _______ _____ _____    ______ ____
ROOT
ATOM      1  C   UNL     1       2.894   6.053  19.626  0.00  0.00    +0.000 C 
ENDROOT
BRANCH   1   4
ATOM      2  C   UNL     1       4.896   5.202  18.392  0.00  0.00    +0.000 C 
ATOM      3  O   UNL     1       5.444   4.820  19.423  0.00  0.00    +0.000 OA
ATOM      4  N   UNL     1       3.679   5.846  18.408  0.00  0.00    +0.000 N 
ATOM      5  H   UNL     1       3.256   6.082  17.516  0.00  0.00    +0.000 HD
BRANCH   2  11
ATOM      6  C   UNL     1       6.816   5.515  16.692  0.00  0.00    +0.000 A 
ATOM      7  C   UNL     1       7.379   5.164  15.454  0.00  0.00    +0.000 A 
ATOM      8  C   UNL     1       6.676   4.373  14.546  0.00  0.00    +0.000 A 
ATOM      9  C   UNL     1       5.413   3.901  14.877  0.00  0.00    +0.000 A 
ATOM     10  C   UNL     1       4.868   4.191  16.131  0.00  0.00    +0.000 A 
ATOM     11  C   UNL     1       5.565   4.985  17.061  0.00  0.00    +0.000 A 
BRANCH   6  12
ATOM     12  O   UNL     1       7.455   6.359  17.567  0.00  0.00    +0.000 OA
BRANCH  12  14
ATOM     13  C   UNL     1       8.301   8.521  18.123  0.00  0.00    +0.000 C 
ATOM     14  C   UNL     1       7.241   7.757  17.352  0.00  0.00    +0.000 C 
ENDBRANCH  12  14
ENDBRANCH   6  12
ENDBRANCH   2  11
ENDBRANCH   1   4
BRANCH   1  15
ATOM     15  C   UNL     1       2.245   7.460  19.602  0.00  0.00    +0.000 C 
ATOM     16  O   UNL     1       1.676   7.944  20.576  0.00  0.00    +0.000 OA
ATOM     17  N   UNL     1       2.431   8.177  18.439  0.00  0.00    +0.000 N 
ATOM     18  H   UNL     1       2.805   7.679  17.639  0.00  0.00    +0.000 HD
BRANCH  17  19
ATOM     19  C   UNL     1       1.772   9.463  18.227  0.00  0.00    +0.000 C 
BRANCH  19  20
ATOM     20  C   UNL     1       0.311   9.363  17.765  0.00  0.00    +0.000 C 
BRANCH  20  21
ATOM     21  C   UNL     1      -0.572  10.368  18.458  0.00  0.00    +0.000 A 
ATOM     22  C   UNL     1      -1.766  10.786  17.869  0.00  0.00    +0.000 A 
ATOM     23  C   UNL     1      -2.583  11.676  18.561  0.00  0.00    +0.000 A 
ATOM     24  C   UNL     1      -2.190  12.123  19.816  0.00  0.00    +0.000 A 
ATOM     25  C   UNL     1      -0.988  11.663  20.326  0.00  0.00    +0.000 A 
ATOM     26  N   UNL     1      -0.173  10.801  19.678  0.00  0.00    +0.000 NA
ENDBRANCH  20  21
ENDBRANCH  19  20
ENDBRANCH  17  19
ENDBRANCH   1  15
BRANCH   1  27
ATOM     27  C   UNL     1       1.810   4.969  19.870  0.00  0.00    +0.000 C 
ATOM     28  C   UNL     1       1.563   4.065  18.656  0.00  0.00    +0.000 C 
ATOM     29  C   UNL     1       2.099   4.102  21.094  0.00  0.00    +0.000 C 
ENDBRANCH   1  27
TORSDOF 9
ENDMDL
MODEL 7
REMARK VINA RESULT:      -7.2      3.723      7.671
REMARK  Name = 
REMARK  12 active torsions:
REMARK  status: ('A' for Active; 'I' for Inactive)
REMARK    1  A    between atoms: C_1  and  C_2
REMARK    2  A    between atoms: C_2  and  O_3
REMARK    3  A    between atoms: O_3  and  C_4
REMARK    4  A    between atoms: C_9  and  C_10
REMARK    5  A    between atoms: N_12  and  C_13
REMARK    6  A    between atoms: C_13  and  C_14
REMARK    7  A    between atoms: C_13  and  C_25
REMARK    8  A    between atoms: N_16  and  C_17
REMARK    9  A    between atoms: C_17  and  C_18
REMARK   10  A    between atoms: C_18  and  C_19
REMARK   11  A    between atoms: C_25  and  C_26
REMARK   12  A    between atoms: C_25  and  C_27
REMARK                            x       y       z     vdW  Elec       q    Type
REMARK                         _______ _______ _______ _____ _____    ______ ____
ROOT
ATOM      1  C   UNL     1       2.759   5.537  19.796  0.00  0.00    +0.000 C 
ENDROOT
BRANCH   1   4
ATOM      2  C   UNL     1       4.728   4.615  18.559  0.00  0.00    +0.000 C 
ATOM      3  O   UNL     1       5.051   3.888  19.494  0.00  0.00    +0.000 OA
ATOM      4  N   UNL     1       3.655   5.475  18.640  0.00  0.00    +0.000 N 
ATOM      5  H   UNL     1       3.408   6.004  17.810  0.00  0.00    +0.000 HD
BRANCH   2  11
ATOM      6  C   UNL     1       6.898   4.884  17.185  0.00  0.00    +0.000 A 
ATOM      7  C   UNL     1       7.551   4.740  15.949  0.00  0.00    +0.000 A 
ATOM      8  C   UNL     1       6.839   4.405  14.798  0.00  0.00    +0.000 A 
ATOM      9  C   UNL     1       5.470   4.183  14.874  0.00  0.00    +0.000 A 
ATOM     10  C   UNL     1       4.821   4.261  16.109  0.00  0.00    +0.000 A 
ATOM     11  C   UNL     1       5.524   4.595  17.282  0.00  0.00    +0.000 A 
BRANCH   6  12
ATOM     12  O   UNL     1       7.565   5.293  18.314  0.00  0.00    +0.000 OA
BRANCH  12  14
ATOM     13  C   UNL     1       7.015   7.434  17.412  0.00  0.00    +0.000 C 
ATOM     14  C   UNL     1       7.929   6.676  18.356  0.00  0.00    +0.000 C 
ENDBRANCH  12  14
ENDBRANCH   6  12
ENDBRANCH   2  11
ENDBRANCH   1   4
BRANCH   1  15
ATOM     15  C   UNL     1       2.240   6.985  19.984  0.00  0.00    +0.000 C 
ATOM     16  O   UNL     1       2.204   7.800  19.067  0.00  0.00    +0.000 OA
ATOM     17  N   UNL     1       1.728   7.273  21.231  0.00  0.00    +0.000 N 
ATOM     18  H   UNL     1       1.893   6.598  21.971  0.00  0.00    +0.000 HD
BRANCH  17  19
ATOM     19  C   UNL     1       1.320   8.628  21.591  0.00  0.00    +0.000 C 
BRANCH  19  20
ATOM     20  C   UNL     1      -0.187   8.895  21.468  0.00  0.00    +0.000 C 
BRANCH  20  21
ATOM     21  C   UNL     1      -0.479  10.147  20.681  0.00  0.00    +0.000 A 
ATOM     22  C   UNL     1      -0.395  10.144  19.289  0.00  0.00    +0.000 A 
ATOM     23  C   UNL     1      -0.723  11.304  18.591  0.00  0.00    +0.000 A 
ATOM     24  C   UNL     1      -1.125  12.430  19.299  0.00  0.00    +0.000 A 
ATOM     25  C   UNL     1      -1.176  12.350  20.679  0.00  0.00    +0.000 A 
ATOM     26  N   UNL     1      -0.862  11.240  21.384  0.00  0.00    +0.000 NA
ENDBRANCH  20  21
ENDBRANCH  19  20
ENDBRANCH  17  19
ENDBRANCH   1  15
BRANCH   1  27
ATOM     27  C   UNL     1       1.565   4.548  19.724  0.00  0.00    +0.000 C 
ATOM     28  C   UNL     1       1.388   3.901  18.345  0.00  0.00    +0.000 C 
ATOM     29  C   UNL     1       1.633   3.454  20.789  0.00  0.00    +0.000 C 
ENDBRANCH   1  27
TORSDOF 9
ENDMDL
MODEL 8
REMARK VINA RESULT:      -7.2      3.627      7.555
REMARK  Name = 
REMARK  12 active torsions:
REMARK  status: ('A' for Active; 'I' for Inactive)
REMARK    1  A    between atoms: C_1  and  C_2
REMARK    2  A    between atoms: C_2  and  O_3
REMARK    3  A    between atoms: O_3  and  C_4
REMARK    4  A    between atoms: C_9  and  C_10
REMARK    5  A    between atoms: N_12  and  C_13
REMARK    6  A    between atoms: C_13  and  C_14
REMARK    7  A    between atoms: C_13  and  C_25
REMARK    8  A    between atoms: N_16  and  C_17
REMARK    9  A    between atoms: C_17  and  C_18
REMARK   10  A    between atoms: C_18  and  C_19
REMARK   11  A    between atoms: C_25  and  C_26
REMARK   12  A    between atoms: C_25  and  C_27
REMARK                            x       y       z     vdW  Elec       q    Type
REMARK                         _______ _______ _______ _____ _____    ______ ____
ROOT
ATOM      1  C   UNL     1       2.615   4.860  19.625  0.00  0.00    +0.000 C 
ENDROOT
BRANCH   1   4
ATOM      2  C   UNL     1       4.749   4.361  18.419  0.00  0.00    +0.000 C 
ATOM      3  O   UNL     1       5.214   3.744  19.372  0.00  0.00    +0.000 OA
ATOM      4  N   UNL     1       3.514   4.969  18.475  0.00  0.00    +0.000 N 
ATOM      5  H   UNL     1       3.166   5.413  17.631  0.00  0.00    +0.000 HD
BRANCH   2  11
ATOM      6  C   UNL     1       6.861   4.972  17.063  0.00  0.00    +0.000 A 
ATOM      7  C   UNL     1       7.530   4.953  15.827  0.00  0.00    +0.000 A 
ATOM      8  C   UNL     1       6.876   4.548  14.665  0.00  0.00    +0.000 A 
ATOM      9  C   UNL     1       5.552   4.130  14.728  0.00  0.00    +0.000 A 
ATOM     10  C   UNL     1       4.896   4.084  15.961  0.00  0.00    +0.000 A 
ATOM     11  C   UNL     1       5.542   4.487  17.146  0.00  0.00    +0.000 A 
BRANCH   6  12
ATOM     12  O   UNL     1       7.460   5.444  18.204  0.00  0.00    +0.000 OA
BRANCH  12  14
ATOM     13  C   UNL     1       6.847   7.639  17.491  0.00  0.00    +0.000 C 
ATOM     14  C   UNL     1       7.923   6.797  18.151  0.00  0.00    +0.000 C 
ENDBRANCH  12  14
ENDBRANCH   6  12
ENDBRANCH   2  11
ENDBRANCH   1   4
BRANCH   1  15
ATOM     15  C   UNL     1       2.071   6.261  20.003  0.00  0.00    +0.000 C 
ATOM     16  O   UNL     1       1.476   6.480  21.053  0.00  0.00    +0.000 OA
ATOM     17  N   UNL     1       2.384   7.274  19.121  0.00  0.00    +0.000 N 
ATOM     18  H   UNL     1       2.774   7.008  18.223  0.00  0.00    +0.000 HD
BRANCH  17  19
ATOM     19  C   UNL     1       1.834   8.618  19.281  0.00  0.00    +0.000 C 
BRANCH  19  20
ATOM     20  C   UNL     1       1.289   9.243  17.989  0.00  0.00    +0.000 C 
BRANCH  20  21
ATOM     21  C   UNL     1       0.171  10.216  18.257  0.00  0.00    +0.000 A 
ATOM     22  C   UNL     1      -1.110   9.978  17.760  0.00  0.00    +0.000 A 
ATOM     23  C   UNL     1      -2.131  10.872  18.071  0.00  0.00    +0.000 A 
ATOM     24  C   UNL     1      -1.848  11.975  18.867  0.00  0.00    +0.000 A 
ATOM     25  C   UNL     1      -0.550  12.140  19.316  0.00  0.00    +0.000 A 
ATOM     26  N   UNL     1       0.462  11.291  19.029  0.00  0.00    +0.000 NA
ENDBRANCH  20  21
ENDBRANCH  19  20
ENDBRANCH  17  19
ENDBRANCH   1  15
BRANCH   1  27
ATOM     27  C   UNL     1       1.439   3.869  19.416  0.00  0.00    +0.000 C 
ATOM     28  C   UNL     1       1.639   2.923  18.227  0.00  0.00    +0.000 C 
ATOM     29  C   UNL     1       1.123   3.048  20.666  0.00  0.00    +0.000 C 
ENDBRANCH   1  27
TORSDOF 9
ENDMDL
MODEL 9
REMARK VINA RESULT:      -7.2      3.829      7.887
REMARK  Name = 
REMARK  12 active torsions:
REMARK  status: ('A' for Active; 'I' for Inactive)
REMARK    1  A    between atoms: C_1  and  C_2
REMARK    2  A    between atoms: C_2  and  O_3
REMARK    3  A    between atoms: O_3  and  C_4
REMARK    4  A    between atoms: C_9  and  C_10
REMARK    5  A    between atoms: N_12  and  C_13
REMARK    6  A    between atoms: C_13  and  C_14
REMARK    7  A    between atoms: C_13  and  C_25
REMARK    8  A    between atoms: N_16  and  C_17
REMARK    9  A    between atoms: C_17  and  C_18
REMARK   10  A    between atoms: C_18  and  C_19
REMARK   11  A    between atoms: C_25  and  C_26
REMARK   12  A    between atoms: C_25  and  C_27
REMARK                            x       y       z     vdW  Elec       q    Type
REMARK                         _______ _______ _______ _____ _____    ______ ____
ROOT
ATOM      1  C   UNL     1       2.904   5.688  19.617  0.00  0.00    +0.000 C 
ENDROOT
BRANCH   1   4
ATOM      2  C   UNL     1       4.866   4.909  18.274  0.00  0.00    +0.000 C 
ATOM      3  O   UNL     1       5.376   4.342  19.236  0.00  0.00    +0.000 OA
ATOM      4  N   UNL     1       3.690   5.619  18.384  0.00  0.00    +0.000 N 
ATOM      5  H   UNL     1       3.294   6.013  17.537  0.00  0.00    +0.000 HD
BRANCH   2  11
ATOM      6  C   UNL     1       6.331   5.881  16.381  0.00  0.00    +0.000 A 
ATOM      7  C   UNL     1       6.981   5.674  15.153  0.00  0.00    +0.000 A 
ATOM      8  C   UNL     1       6.777   4.504  14.423  0.00  0.00    +0.000 A 
ATOM      9  C   UNL     1       5.941   3.514  14.925  0.00  0.00    +0.000 A 
ATOM     10  C   UNL     1       5.339   3.681  16.174  0.00  0.00    +0.000 A 
ATOM     11  C   UNL     1       5.536   4.855  16.927  0.00  0.00    +0.000 A 
BRANCH   6  12
ATOM     12  O   UNL     1       6.453   7.058  17.077  0.00  0.00    +0.000 OA
BRANCH  12  14
ATOM     13  C   UNL     1       8.035   8.704  17.777  0.00  0.00    +0.000 C 
ATOM     14  C   UNL     1       7.677   7.230  17.799  0.00  0.00    +0.000 C 
ENDBRANCH  12  14
ENDBRANCH   6  12
ENDBRANCH   2  11
ENDBRANCH   1   4
BRANCH   1  15
ATOM     15  C   UNL     1       2.358   7.125  19.814  0.00  0.00    +0.000 C 
ATOM     16  O   UNL     1       2.375   7.968  18.923  0.00  0.00    +0.000 OA
ATOM     17  N   UNL     1       1.759   7.367  21.032  0.00  0.00    +0.000 N 
ATOM     18  H   UNL     1       1.881   6.671  21.760  0.00  0.00    +0.000 HD
BRANCH  17  19
ATOM     19  C   UNL     1       1.313   8.707  21.406  0.00  0.00    +0.000 C 
BRANCH  19  20
ATOM     20  C   UNL     1       0.212   9.287  20.506  0.00  0.00    +0.000 C 
BRANCH  20  21
ATOM     21  C   UNL     1      -0.589  10.354  21.206  0.00  0.00    +0.000 A 
ATOM     22  C   UNL     1      -0.688  10.368  22.597  0.00  0.00    +0.000 A 
ATOM     23  C   UNL     1      -1.393  11.399  23.213  0.00  0.00    +0.000 A 
ATOM     24  C   UNL     1      -1.977  12.384  22.427  0.00  0.00    +0.000 A 
ATOM     25  C   UNL     1      -1.836  12.293  21.053  0.00  0.00    +0.000 A 
ATOM     26  N   UNL     1      -1.160  11.305  20.427  0.00  0.00    +0.000 NA
ENDBRANCH  20  21
ENDBRANCH  19  20
ENDBRANCH  17  19
ENDBRANCH   1  15
BRANCH   1  27
ATOM     27  C   UNL     1       1.742   4.661  19.682  0.00  0.00    +0.000 C 
ATOM     28  C   UNL     1       1.476   3.951  18.350  0.00  0.00    +0.000 C 
ATOM     29  C   UNL     1       1.932   3.617  20.782  0.00  0.00    +0.000 C 
ENDBRANCH   1  27
TORSDOF 9
ENDMDL
