MODEL 1
REMARK VINA RESULT:      -7.7      0.000      0.000
REMARK  Name = 
REMARK  6 active torsions:
REMARK  status: ('A' for Active; 'I' for Inactive)
REMARK    1  A    between atoms: C_1  and  N_2
REMARK    2  A    between atoms: C_8  and  O_9
REMARK    3  A    between atoms: O_9  and  C_10
REMARK    4  A    between atoms: N_12  and  C_13
REMARK    5  A    between atoms: N_12  and  C_19
REMARK    6  A    between atoms: C_13  and  C_14
REMARK                            x       y       z     vdW  Elec       q    Type
REMARK                         _______ _______ _______ _____ _____    ______ ____
ROOT
ATOM      1  C   UNL     1       4.210   4.655  16.859  0.00  0.00    +0.000 C 
ATOM      2  O   UNL     1       3.583   5.692  17.049  0.00  0.00    +0.000 OA
ATOM      3  N   UNL     1       5.592   4.580  16.618  0.00  0.00    +0.000 N 
ENDROOT
BRANCH   3   4
ATOM      4  C   UNL     1       6.524   5.488  17.265  0.00  0.00    +0.000 A 
ATOM      5  C   UNL     1       6.656   6.822  16.838  0.00  0.00    +0.000 A 
ATOM      6  C   UNL     1       7.496   7.733  17.493  0.00  0.00    +0.000 A 
ATOM      7  C   UNL     1       8.227   7.340  18.605  0.00  0.00    +0.000 A 
ATOM      8  C   UNL     1       8.114   6.032  19.060  0.00  0.00    +0.000 A 
ATOM      9  C   UNL     1       7.276   5.117  18.400  0.00  0.00    +0.000 A 
ENDBRANCH   3   4
BRANCH   1  10
ATOM     10  O   UNL     1       3.598   3.428  16.935  0.00  0.00    +0.000 OA
BRANCH  10  18
ATOM     11  C   UNL     1       1.585   5.990  20.921  0.00  0.00    +0.000 C 
ATOM     12  N   UNL     1       2.052   4.915  20.067  0.00  0.00    +0.000 NA
ATOM     13  C   UNL     1       3.132   4.079  20.597  0.00  0.00    +0.000 C 
ATOM     14  C   UNL     1       2.472   2.884  21.292  0.00  0.00    +0.000 C 
ATOM     15  C   UNL     1       1.033   2.911  20.807  0.00  0.00    +0.000 C 
ATOM     16  C   UNL     1       1.033   3.941  19.676  0.00  0.00    +0.000 C 
ATOM     17  C   UNL     1       1.509   3.371  18.326  0.00  0.00    +0.000 C 
ATOM     18  C   UNL     1       3.024   3.026  18.228  0.00  0.00    +0.000 C 
ATOM     19  C   UNL     1       3.901   3.668  19.331  0.00  0.00    +0.000 C 
ENDBRANCH  10  18
ENDBRANCH   1  10
BRANCH   3  20
ATOM     20  C   UNL     1       6.098   3.546  15.707  0.00  0.00    +0.000 C 
BRANCH  20  21
ATOM     21  C   UNL     1       6.658   4.117  14.412  0.00  0.00    +0.000 A 
ATOM     22  C   UNL     1       7.606   5.098  14.170  0.00  0.00    +0.000 A 
ATOM     23  C   UNL     1       7.806   5.338  12.775  0.00  0.00    +0.000 A 
ATOM     24  C   UNL     1       7.015   4.532  11.985  0.00  0.00    +0.000 A 
ATOM     25  S   UNL     1       6.047   3.488  12.925  0.00  0.00    +0.000 S 
ENDBRANCH  20  21
ENDBRANCH   3  20
TORSDOF 5
ENDMDL
MODEL 2
REMARK VINA RESULT:      -7.3      1.795      4.123
REMARK  Name = 
REMARK  6 active torsions:
REMARK  status: ('A' for Active; 'I' for Inactive)
REMARK    1  A    between atoms: C_1  and  N_2
REMARK    2  A    between atoms: C_8  and  O_9
REMARK    3  A    between atoms: O_9  and  C_10
REMARK    4  A    between atoms: N_12  and  C_13
REMARK    5  A    between atoms: N_12  and  C_19
REMARK    6  A    between atoms: C_13  and  C_14
REMARK                            x       y       z     vdW  Elec       q    Type
REMARK                         _______ _______ _______ _____ _____    ______ ____
ROOT
ATOM      1  C   UNL     1       4.708   4.549  16.672  0.00  0.00    +0.000 C 
ATOM      2  O   UNL     1       3.730   3.971  16.210  0.00  0.00    +0.000 OA
ATOM      3  N   UNL     1       6.012   4.468  16.155  0.00  0.00    +0.000 N 
ENDROOT
BRANCH   3   4
ATOM      4  C   UNL     1       6.254   4.369  14.725  0.00  0.00    +0.000 A 
ATOM      5  C   UNL     1       7.333   5.040  14.120  0.00  0.00    +0.000 A 
ATOM      6  C   UNL     1       7.626   4.902  12.757  0.00  0.00    +0.000 A 
ATOM      7  C   UNL     1       6.852   4.078  11.952  0.00  0.00    +0.000 A 
ATOM      8  C   UNL     1       5.784   3.392  12.518  0.00  0.00    +0.000 A 
ATOM      9  C   UNL     1       5.486   3.536  13.884  0.00  0.00    +0.000 A 
ENDBRANCH   3   4
BRANCH   1  10
ATOM     10  O   UNL     1       4.591   5.409  17.736  0.00  0.00    +0.000 OA
BRANCH  10  18
ATOM     11  C   UNL     1       0.724   2.179  18.794  0.00  0.00    +0.000 C 
ATOM     12  N   UNL     1       1.835   3.098  18.950  0.00  0.00    +0.000 NA
ATOM     13  C   UNL     1       1.559   4.346  19.666  0.00  0.00    +0.000 C 
ATOM     14  C   UNL     1       1.898   4.101  21.139  0.00  0.00    +0.000 C 
ATOM     15  C   UNL     1       2.704   2.814  21.133  0.00  0.00    +0.000 C 
ATOM     16  C   UNL     1       2.998   2.557  19.655  0.00  0.00    +0.000 C 
ATOM     17  C   UNL     1       4.206   3.352  19.120  0.00  0.00    +0.000 C 
ATOM     18  C   UNL     1       4.001   4.888  18.978  0.00  0.00    +0.000 C 
ATOM     19  C   UNL     1       2.521   5.343  19.002  0.00  0.00    +0.000 C 
ENDBRANCH  10  18
ENDBRANCH   1  10
BRANCH   3  20
ATOM     20  C   UNL     1       7.148   4.506  17.084  0.00  0.00    +0.000 C 
BRANCH  20  21
ATOM     21  C   UNL     1       7.506   5.918  17.527  0.00  0.00    +0.000 A 
ATOM     22  C   UNL     1       7.441   7.135  16.870  0.00  0.00    +0.000 A 
ATOM     23  C   UNL     1       7.913   8.220  17.673  0.00  0.00    +0.000 A 
ATOM     24  C   UNL     1       8.319   7.808  18.924  0.00  0.00    +0.000 A 
ATOM     25  S   UNL     1       8.121   6.126  19.126  0.00  0.00    +0.000 S 
ENDBRANCH  20  21
ENDBRANCH   3  20
TORSDOF 5
ENDMDL
MODEL 3
REMARK VINA RESULT:      -7.3      3.583      6.136
REMARK  Name = 
REMARK  6 active torsions:
REMARK  status: ('A' for Active; 'I' for Inactive)
REMARK    1  A    between atoms: C_1  and  N_2
REMARK    2  A    between atoms: C_8  and  O_9
REMARK    3  A    between atoms: O_9  and  C_10
REMARK    4  A    between atoms: N_12  and  C_13
REMARK    5  A    between atoms: N_12  and  C_19
REMARK    6  A    between atoms: C_13  and  C_14
REMARK                            x       y       z     vdW  Elec       q    Type
REMARK                         _______ _______ _______ _____ _____    ______ ____
ROOT
ATOM      1  C   UNL     1       3.004   7.068  18.002  0.00  0.00    +0.000 C 
ATOM      2  O   UNL     1       3.558   7.973  17.386  0.00  0.00    +0.000 OA
ATOM      3  N   UNL     1       3.340   5.707  17.913  0.00  0.00    +0.000 N 
ENDROOT
BRANCH   3   4
ATOM      4  C   UNL     1       4.718   5.278  17.739  0.00  0.00    +0.000 A 
ATOM      5  C   UNL     1       5.142   4.652  16.552  0.00  0.00    +0.000 A 
ATOM      6  C   UNL     1       6.480   4.293  16.336  0.00  0.00    +0.000 A 
ATOM      7  C   UNL     1       7.442   4.558  17.300  0.00  0.00    +0.000 A 
ATOM      8  C   UNL     1       7.061   5.183  18.481  0.00  0.00    +0.000 A 
ATOM      9  C   UNL     1       5.718   5.537  18.700  0.00  0.00    +0.000 A 
ENDBRANCH   3   4
BRANCH   1  10
ATOM     10  O   UNL     1       2.014   7.330  18.917  0.00  0.00    +0.000 OA
BRANCH  10  18
ATOM     11  C   UNL     1      -1.831  10.750  19.089  0.00  0.00    +0.000 C 
ATOM     12  N   UNL     1      -0.528  10.132  19.239  0.00  0.00    +0.000 NA
ATOM     13  C   UNL     1       0.589  10.777  18.545  0.00  0.00    +0.000 C 
ATOM     14  C   UNL     1       1.230  11.751  19.537  0.00  0.00    +0.000 C 
ATOM     15  C   UNL     1       0.662  11.347  20.886  0.00  0.00    +0.000 C 
ATOM     16  C   UNL     1      -0.046  10.018  20.617  0.00  0.00    +0.000 C 
ATOM     17  C   UNL     1       0.904   8.804  20.619  0.00  0.00    +0.000 C 
ATOM     18  C   UNL     1       1.889   8.708  19.417  0.00  0.00    +0.000 C 
ATOM     19  C   UNL     1       1.512   9.596  18.205  0.00  0.00    +0.000 C 
ENDBRANCH  10  18
ENDBRANCH   1  10
BRANCH   3  20
ATOM     20  C   UNL     1       2.274   4.704  18.018  0.00  0.00    +0.000 C 
BRANCH  20  21
ATOM     21  C   UNL     1       2.224   4.030  19.382  0.00  0.00    +0.000 A 
ATOM     22  C   UNL     1       1.461   4.286  20.509  0.00  0.00    +0.000 A 
ATOM     23  C   UNL     1       1.769   3.406  21.593  0.00  0.00    +0.000 A 
ATOM     24  C   UNL     1       2.751   2.495  21.267  0.00  0.00    +0.000 A 
ATOM     25  S   UNL     1       3.287   2.700  19.660  0.00  0.00    +0.000 S 
ENDBRANCH  20  21
ENDBRANCH   3  20
TORSDOF 5
ENDMDL
MODEL 4
REMARK VINA RESULT:      -7.2      4.292      6.750
REMARK  Name = 
REMARK  6 active torsions:
REMARK  status: ('A' for Active; 'I' for Inactive)
REMARK    1  A    between atoms: C_1  and  N_2
REMARK    2  A    between atoms: C_8  and  O_9
REMARK    3  A    between atoms: O_9  and  C_10
REMARK    4  A    between atoms: N_12  and  C_13
REMARK    5  A    between atoms: N_12  and  C_19
REMARK    6  A    between atoms: C_13  and  C_14
REMARK                            x       y       z     vdW  Elec       q    Type
REMARK                         _______ _______ _______ _____ _____    ______ ____
ROOT
ATOM      1  C   UNL     1       1.916   7.692  19.799  0.00  0.00    +0.000 C 
ATOM      2  O   UNL     1       1.608   7.571  20.980  0.00  0.00    +0.000 OA
ATOM      3  N   UNL     1       2.504   6.689  19.011  0.00  0.00    +0.000 N 
ENDROOT
BRANCH   3   4
ATOM      4  C   UNL     1       2.154   5.288  19.184  0.00  0.00    +0.000 A 
ATOM      5  C   UNL     1       2.213   4.673  20.448  0.00  0.00    +0.000 A 
ATOM      6  C   UNL     1       1.813   3.345  20.648  0.00  0.00    +0.000 A 
ATOM      7  C   UNL     1       1.333   2.589  19.589  0.00  0.00    +0.000 A 
ATOM      8  C   UNL     1       1.253   3.167  18.328  0.00  0.00    +0.000 A 
ATOM      9  C   UNL     1       1.659   4.497  18.126  0.00  0.00    +0.000 A 
ENDBRANCH   3   4
BRANCH   1  10
ATOM     10  O   UNL     1       1.638   8.844  19.105  0.00  0.00    +0.000 OA
BRANCH  10  18
ATOM     11  C   UNL     1       0.211  13.761  18.561  0.00  0.00    +0.000 C 
ATOM     12  N   UNL     1       0.211  12.357  18.925  0.00  0.00    +0.000 NA
ATOM     13  C   UNL     1       0.156  12.051  20.357  0.00  0.00    +0.000 C 
ATOM     14  C   UNL     1      -1.321  11.873  20.720  0.00  0.00    +0.000 C 
ATOM     15  C   UNL     1      -2.026  11.731  19.382  0.00  0.00    +0.000 C 
ATOM     16  C   UNL     1      -0.891  11.568  18.370  0.00  0.00    +0.000 C 
ATOM     17  C   UNL     1      -0.353  10.127  18.276  0.00  0.00    +0.000 C 
ATOM     18  C   UNL     1       0.454   9.618  19.506  0.00  0.00    +0.000 C 
ATOM     19  C   UNL     1       0.945  10.736  20.458  0.00  0.00    +0.000 C 
ENDBRANCH  10  18
ENDBRANCH   1  10
BRANCH   3  20
ATOM     20  C   UNL     1       3.477   7.074  17.981  0.00  0.00    +0.000 C 
BRANCH  20  21
ATOM     21  C   UNL     1       4.657   6.117  17.891  0.00  0.00    +0.000 A 
ATOM     22  C   UNL     1       5.511   5.611  18.857  0.00  0.00    +0.000 A 
ATOM     23  C   UNL     1       6.513   4.751  18.310  0.00  0.00    +0.000 A 
ATOM     24  C   UNL     1       6.397   4.613  16.944  0.00  0.00    +0.000 A 
ATOM     25  S   UNL     1       5.082   5.510  16.332  0.00  0.00    +0.000 S 
ENDBRANCH  20  21
ENDBRANCH   3  20
TORSDOF 5
ENDMDL
MODEL 5
REMARK VINA RESULT:      -7.2      3.479      5.566
REMARK  Name = 
REMARK  6 active torsions:
REMARK  status: ('A' for Active; 'I' for Inactive)
REMARK    1  A    between atoms: C_1  and  N_2
REMARK    2  A    between atoms: C_8  and  O_9
REMARK    3  A    between atoms: O_9  and  C_10
REMARK    4  A    between atoms: N_12  and  C_13
REMARK    5  A    between atoms: N_12  and  C_19
REMARK    6  A    between atoms: C_13  and  C_14
REMARK                            x       y       z     vdW  Elec       q    Type
REMARK                         _______ _______ _______ _____ _____    ______ ____
ROOT
ATOM      1  C   UNL     1       2.808   6.402  19.546  0.00  0.00    +0.000 C 
ATOM      2  O   UNL     1       2.033   6.023  20.418  0.00  0.00    +0.000 OA
ATOM      3  N   UNL     1       3.817   5.616  18.966  0.00  0.00    +0.000 N 
ENDROOT
BRANCH   3   4
ATOM      4  C   UNL     1       3.626   4.194  18.730  0.00  0.00    +0.000 A 
ATOM      5  C   UNL     1       4.310   3.230  19.495  0.00  0.00    +0.000 A 
ATOM      6  C   UNL     1       4.088   1.856  19.331  0.00  0.00    +0.000 A 
ATOM      7  C   UNL     1       3.166   1.400  18.399  0.00  0.00    +0.000 A 
ATOM      8  C   UNL     1       2.467   2.323  17.633  0.00  0.00    +0.000 A 
ATOM      9  C   UNL     1       2.694   3.701  17.792  0.00  0.00    +0.000 A 
ENDBRANCH   3   4
BRANCH   1  10
ATOM     10  O   UNL     1       2.706   7.657  18.998  0.00  0.00    +0.000 OA
BRANCH  10  18
ATOM     11  C   UNL     1       1.436  12.588  19.761  0.00  0.00    +0.000 C 
ATOM     12  N   UNL     1       1.341  11.154  19.563  0.00  0.00    +0.000 NA
ATOM     13  C   UNL     1       0.726  10.381  20.645  0.00  0.00    +0.000 C 
ATOM     14  C   UNL     1      -0.764  10.258  20.316  0.00  0.00    +0.000 C 
ATOM     15  C   UNL     1      -0.866  10.668  18.857  0.00  0.00    +0.000 C 
ATOM     16  C   UNL     1       0.586  10.736  18.380  0.00  0.00    +0.000 C 
ATOM     17  C   UNL     1       1.170   9.365  17.987  0.00  0.00    +0.000 C 
ATOM     18  C   UNL     1       1.433   8.375  19.159  0.00  0.00    +0.000 C 
ATOM     19  C   UNL     1       1.457   9.032  20.561  0.00  0.00    +0.000 C 
ENDBRANCH  10  18
ENDBRANCH   1  10
BRANCH   3  20
ATOM     20  C   UNL     1       5.079   6.255  18.574  0.00  0.00    +0.000 C 
BRANCH  20  21
ATOM     21  C   UNL     1       5.601   5.766  17.230  0.00  0.00    +0.000 A 
ATOM     22  C   UNL     1       5.130   5.940  15.939  0.00  0.00    +0.000 A 
ATOM     23  C   UNL     1       5.934   5.270  14.965  0.00  0.00    +0.000 A 
ATOM     24  C   UNL     1       7.001   4.607  15.532  0.00  0.00    +0.000 A 
ATOM     25  S   UNL     1       7.033   4.804  17.226  0.00  0.00    +0.000 S 
ENDBRANCH  20  21
ENDBRANCH   3  20
TORSDOF 5
ENDMDL
MODEL 6
REMARK VINA RESULT:      -7.2      3.885      5.934
REMARK  Name = 
REMARK  6 active torsions:
REMARK  status: ('A' for Active; 'I' for Inactive)
REMARK    1  A    between atoms: C_1  and  N_2
REMARK    2  A    between atoms: C_8  and  O_9
REMARK    3  A    between atoms: O_9  and  C_10
REMARK    4  A    between atoms: N_12  and  C_13
REMARK    5  A    between atoms: N_12  and  C_19
REMARK    6  A    between atoms: C_13  and  C_14
REMARK                            x       y       z     vdW  Elec       q    Type
REMARK                         _______ _______ _______ _____ _____    ______ ____
ROOT
ATOM      1  C   UNL     1       2.329   6.927  19.216  0.00  0.00    +0.000 C 
ATOM      2  O   UNL     1       2.005   6.667  20.370  0.00  0.00    +0.000 OA
ATOM      3  N   UNL     1       3.171   6.137  18.416  0.00  0.00    +0.000 N 
ENDROOT
BRANCH   3   4
ATOM      4  C   UNL     1       3.151   4.686  18.500  0.00  0.00    +0.000 A 
ATOM      5  C   UNL     1       2.340   3.918  17.644  0.00  0.00    +0.000 A 
ATOM      6  C   UNL     1       2.358   2.517  17.660  0.00  0.00    +0.000 A 
ATOM      7  C   UNL     1       3.198   1.836  18.530  0.00  0.00    +0.000 A 
ATOM      8  C   UNL     1       4.019   2.562  19.383  0.00  0.00    +0.000 A 
ATOM      9  C   UNL     1       3.997   3.968  19.371  0.00  0.00    +0.000 A 
ENDBRANCH   3   4
BRANCH   1  10
ATOM     10  O   UNL     1       1.821   8.024  18.564  0.00  0.00    +0.000 OA
BRANCH  10  18
ATOM     11  C   UNL     1      -1.379  12.046  18.267  0.00  0.00    +0.000 C 
ATOM     12  N   UNL     1      -0.316  11.159  18.698  0.00  0.00    +0.000 NA
ATOM     13  C   UNL     1       1.047  11.691  18.639  0.00  0.00    +0.000 C 
ATOM     14  C   UNL     1       1.352  12.293  20.014  0.00  0.00    +0.000 C 
ATOM     15  C   UNL     1       0.260  11.747  20.917  0.00  0.00    +0.000 C 
ATOM     16  C   UNL     1      -0.428  10.673  20.074  0.00  0.00    +0.000 C 
ATOM     17  C   UNL     1       0.304   9.316  20.089  0.00  0.00    +0.000 C 
ATOM     18  C   UNL     1       1.663   9.268  19.332  0.00  0.00    +0.000 C 
ATOM     19  C   UNL     1       1.892  10.441  18.347  0.00  0.00    +0.000 C 
ENDBRANCH  10  18
ENDBRANCH   1  10
BRANCH   3  20
ATOM     20  C   UNL     1       4.072   6.799  17.465  0.00  0.00    +0.000 C 
BRANCH  20  21
ATOM     21  C   UNL     1       5.196   5.893  16.983  0.00  0.00    +0.000 A 
ATOM     22  C   UNL     1       5.278   5.011  15.918  0.00  0.00    +0.000 A 
ATOM     23  C   UNL     1       6.537   4.337  15.857  0.00  0.00    +0.000 A 
ATOM     24  C   UNL     1       7.389   4.724  16.869  0.00  0.00    +0.000 A 
ATOM     25  S   UNL     1       6.673   5.899  17.877  0.00  0.00    +0.000 S 
ENDBRANCH  20  21
ENDBRANCH   3  20
TORSDOF 5
ENDMDL
MODEL 7
REMARK VINA RESULT:      -7.2      4.340      6.708
REMARK  Name = 
REMARK  6 active torsions:
REMARK  status: ('A' for Active; 'I' for Inactive)
REMARK    1  A    between atoms: C_1  and  N_2
REMARK    2  A    between atoms: C_8  and  O_9
REMARK    3  A    between atoms: O_9  and  C_10
REMARK    4  A    between atoms: N_12  and  C_13
REMARK    5  A    between atoms: N_12  and  C_19
REMARK    6  A    between atoms: C_13  and  C_14
REMARK                            x       y       z     vdW  Elec       q    Type
REMARK                         _______ _______ _______ _____ _____    ______ ____
ROOT
ATOM      1  C   UNL     1       2.549   7.891  18.344  0.00  0.00    +0.000 C 
ATOM      2  O   UNL     1       2.629   8.284  17.185  0.00  0.00    +0.000 OA
ATOM      3  N   UNL     1       3.002   6.645  18.807  0.00  0.00    +0.000 N 
ENDROOT
BRANCH   3   4
ATOM      4  C   UNL     1       4.201   6.027  18.266  0.00  0.00    +0.000 A 
ATOM      5  C   UNL     1       5.276   5.670  19.101  0.00  0.00    +0.000 A 
ATOM      6  C   UNL     1       6.412   5.010  18.611  0.00  0.00    +0.000 A 
ATOM      7  C   UNL     1       6.505   4.677  17.267  0.00  0.00    +0.000 A 
ATOM      8  C   UNL     1       5.458   5.006  16.416  0.00  0.00    +0.000 A 
ATOM      9  C   UNL     1       4.322   5.674  16.906  0.00  0.00    +0.000 A 
ENDBRANCH   3   4
BRANCH   1  10
ATOM     10  O   UNL     1       2.048   8.698  19.336  0.00  0.00    +0.000 OA
BRANCH  10  18
ATOM     11  C   UNL     1       0.197  13.006  21.463  0.00  0.00    +0.000 C 
ATOM     12  N   UNL     1       0.391  11.886  20.563  0.00  0.00    +0.000 NA
ATOM     13  C   UNL     1      -0.738  10.965  20.408  0.00  0.00    +0.000 C 
ATOM     14  C   UNL     1      -1.550  11.451  19.205  0.00  0.00    +0.000 C 
ATOM     15  C   UNL     1      -0.632  12.434  18.499  0.00  0.00    +0.000 C 
ATOM     16  C   UNL     1       0.723  12.244  19.183  0.00  0.00    +0.000 C 
ATOM     17  C   UNL     1       1.528  11.050  18.633  0.00  0.00    +0.000 C 
ATOM     18  C   UNL     1       0.974   9.638  18.981  0.00  0.00    +0.000 C 
ATOM     19  C   UNL     1      -0.049   9.617  20.143  0.00  0.00    +0.000 C 
ENDBRANCH  10  18
ENDBRANCH   1  10
BRANCH   3  20
ATOM     20  C   UNL     1       2.253   5.969  19.874  0.00  0.00    +0.000 C 
BRANCH  20  21
ATOM     21  C   UNL     1       1.934   4.517  19.548  0.00  0.00    +0.000 A 
ATOM     22  C   UNL     1       1.353   3.927  18.438  0.00  0.00    +0.000 A 
ATOM     23  C   UNL     1       1.219   2.511  18.574  0.00  0.00    +0.000 A 
ATOM     24  C   UNL     1       1.707   2.051  19.778  0.00  0.00    +0.000 A 
ATOM     25  S   UNL     1       2.329   3.323  20.730  0.00  0.00    +0.000 S 
ENDBRANCH  20  21
ENDBRANCH   3  20
TORSDOF 5
ENDMDL
MODEL 8
REMARK VINA RESULT:      -7.1      3.935      6.192
REMARK  Name = 
REMARK  6 active torsions:
REMARK  status: ('A' for Active; 'I' for Inactive)
REMARK    1  A    between atoms: C_1  and  N_2
REMARK    2  A    between atoms: C_8  and  O_9
REMARK    3  A    between atoms: O_9  and  C_10
REMARK    4  A    between atoms: N_12  and  C_13
REMARK    5  A    between atoms: N_12  and  C_19
REMARK    6  A    between atoms: C_13  and  C_14
REMARK                            x       y       z     vdW  Elec       q    Type
REMARK                         _______ _______ _______ _____ _____    ______ ____
ROOT
ATOM      1  C   UNL     1       3.074   7.509  17.942  0.00  0.00    +0.000 C 
ATOM      2  O   UNL     1       2.882   7.838  16.776  0.00  0.00    +0.000 OA
ATOM      3  N   UNL     1       3.732   6.337  18.353  0.00  0.00    +0.000 N 
ENDROOT
BRANCH   3   4
ATOM      4  C   UNL     1       4.854   5.797  17.603  0.00  0.00    +0.000 A 
ATOM      5  C   UNL     1       4.692   4.696  16.742  0.00  0.00    +0.000 A 
ATOM      6  C   UNL     1       5.744   4.204  15.957  0.00  0.00    +0.000 A 
ATOM      7  C   UNL     1       6.995   4.805  16.002  0.00  0.00    +0.000 A 
ATOM      8  C   UNL     1       7.187   5.900  16.835  0.00  0.00    +0.000 A 
ATOM      9  C   UNL     1       6.134   6.390  17.627  0.00  0.00    +0.000 A 
ENDBRANCH   3   4
BRANCH   1  10
ATOM     10  O   UNL     1       2.705   8.325  18.983  0.00  0.00    +0.000 OA
BRANCH  10  18
ATOM     11  C   UNL     1       0.930  12.683  21.072  0.00  0.00    +0.000 C 
ATOM     12  N   UNL     1       1.025  11.474  20.277  0.00  0.00    +0.000 NA
ATOM     13  C   UNL     1       0.026  10.435  20.539  0.00  0.00    +0.000 C 
ATOM     14  C   UNL     1      -1.130  10.670  19.563  0.00  0.00    +0.000 C 
ATOM     15  C   UNL     1      -0.566  11.632  18.531  0.00  0.00    +0.000 C 
ATOM     16  C   UNL     1       0.934  11.671  18.829  0.00  0.00    +0.000 C 
ATOM     17  C   UNL     1       1.715  10.497  18.207  0.00  0.00    +0.000 C 
ATOM     18  C   UNL     1       1.462   9.098  18.842  0.00  0.00    +0.000 C 
ATOM     19  C   UNL     1       0.792   9.138  20.237  0.00  0.00    +0.000 C 
ENDBRANCH  10  18
ENDBRANCH   1  10
BRANCH   3  20
ATOM     20  C   UNL     1       3.282   5.662  19.576  0.00  0.00    +0.000 C 
BRANCH  20  21
ATOM     21  C   UNL     1       2.545   4.359  19.299  0.00  0.00    +0.000 A 
ATOM     22  C   UNL     1       1.441   4.073  18.514  0.00  0.00    +0.000 A 
ATOM     23  C   UNL     1       1.068   2.694  18.571  0.00  0.00    +0.000 A 
ATOM     24  C   UNL     1       1.898   1.959  19.389  0.00  0.00    +0.000 A 
ATOM     25  S   UNL     1       3.123   2.929  20.074  0.00  0.00    +0.000 S 
ENDBRANCH  20  21
ENDBRANCH   3  20
TORSDOF 5
ENDMDL
MODEL 9
REMARK VINA RESULT:      -7.0      4.155      6.820
REMARK  Name = 
REMARK  6 active torsions:
REMARK  status: ('A' for Active; 'I' for Inactive)
REMARK    1  A    between atoms: C_1  and  N_2
REMARK    2  A    between atoms: C_8  and  O_9
REMARK    3  A    between atoms: O_9  and  C_10
REMARK    4  A    between atoms: N_12  and  C_13
REMARK    5  A    between atoms: N_12  and  C_19
REMARK    6  A    between atoms: C_13  and  C_14
REMARK                            x       y       z     vdW  Elec       q    Type
REMARK                         _______ _______ _______ _____ _____    ______ ____
ROOT
ATOM      1  C   UNL     1       2.046   7.474  19.830  0.00  0.00    +0.000 C 
ATOM      2  O   UNL     1       1.911   7.564  21.046  0.00  0.00    +0.000 OA
ATOM      3  N   UNL     1       2.466   6.320  19.148  0.00  0.00    +0.000 N 
ENDROOT
BRANCH   3   4
ATOM      4  C   UNL     1       2.082   4.993  19.599  0.00  0.00    +0.000 A 
ATOM      5  C   UNL     1       2.238   4.607  20.943  0.00  0.00    +0.000 A 
ATOM      6  C   UNL     1       1.811   3.358  21.414  0.00  0.00    +0.000 A 
ATOM      7  C   UNL     1       1.203   2.454  20.554  0.00  0.00    +0.000 A 
ATOM      8  C   UNL     1       1.024   2.805  19.221  0.00  0.00    +0.000 A 
ATOM      9  C   UNL     1       1.459   4.056  18.748  0.00  0.00    +0.000 A 
ENDBRANCH   3   4
BRANCH   1  10
ATOM     10  O   UNL     1       1.721   8.517  18.998  0.00  0.00    +0.000 OA
BRANCH  10  18
ATOM     11  C   UNL     1      -1.908  11.955  17.767  0.00  0.00    +0.000 C 
ATOM     12  N   UNL     1      -0.834  11.274  18.463  0.00  0.00    +0.000 NA
ATOM     13  C   UNL     1       0.423  12.012  18.613  0.00  0.00    +0.000 C 
ATOM     14  C   UNL     1       0.360  12.731  19.964  0.00  0.00    +0.000 C 
ATOM     15  C   UNL     1      -0.798  12.071  20.692  0.00  0.00    +0.000 C 
ATOM     16  C   UNL     1      -1.143  10.854  19.831  0.00  0.00    +0.000 C 
ATOM     17  C   UNL     1      -0.238   9.635  20.098  0.00  0.00    +0.000 C 
ATOM     18  C   UNL     1       1.236   9.761  19.614  0.00  0.00    +0.000 C 
ATOM     19  C   UNL     1       1.481  10.898  18.592  0.00  0.00    +0.000 C 
ENDBRANCH  10  18
ENDBRANCH   1  10
BRANCH   3  20
ATOM     20  C   UNL     1       3.291   6.468  17.943  0.00  0.00    +0.000 C 
BRANCH  20  21
ATOM     21  C   UNL     1       4.760   6.152  18.187  0.00  0.00    +0.000 A 
ATOM     22  C   UNL     1       5.398   5.459  19.202  0.00  0.00    +0.000 A 
ATOM     23  C   UNL     1       6.818   5.430  19.040  0.00  0.00    +0.000 A 
ATOM     24  C   UNL     1       7.230   6.093  17.904  0.00  0.00    +0.000 A 
ATOM     25  S   UNL     1       5.909   6.736  17.038  0.00  0.00    +0.000 S 
ENDBRANCH  20  21
ENDBRANCH   3  20
TORSDOF 5
ENDMDL
