MODEL 1
REMARK VINA RESULT:      -7.3      0.000      0.000
REMARK  Name = 
REMARK  11 active torsions:
REMARK  status: ('A' for Active; 'I' for Inactive)
REMARK    1  A    between atoms: C_1  and  O_2
REMARK    2  A    between atoms: O_2  and  C_3
REMARK    3  A    between atoms: C_6  and  N_7
REMARK    4  A    between atoms: C_8  and  C_10
REMARK    5  A    between atoms: C_13  and  C_14
REMARK    6  A    between atoms: C_14  and  N_15
REMARK    7  A    between atoms: N_15  and  S_16
REMARK    8  A    between atoms: S_16  and  C_19
REMARK    9  A    between atoms: C_22  and  C_23
REMARK   10  A    between atoms: C_30  and  O_31
REMARK   11  A    between atoms: O_31  and  C_32
REMARK                            x       y       z     vdW  Elec       q    Type
REMARK                         _______ _______ _______ _____ _____    ______ ____
ROOT
ATOM      1  C   UNL     1       0.246   9.753  19.147  0.00  0.00    +0.000 C 
ATOM      2  C   UNL     1       0.756   9.348  17.748  0.00  0.00    +0.000 C 
ATOM      3  C   UNL     1       2.220   8.893  17.774  0.00  0.00    +0.000 C 
ATOM      4  C   UNL     1       2.470   7.755  18.774  0.00  0.00    +0.000 C 
ATOM      5  C   UNL     1       1.943   8.150  20.165  0.00  0.00    +0.000 C 
ATOM      6  C   UNL     1       0.485   8.614  20.145  0.00  0.00    +0.000 C 
ENDROOT
BRANCH   1   8
ATOM      7  N   UNL     1       1.041  12.006  18.520  0.00  0.00    +0.000 N 
ATOM      8  C   UNL     1       0.868  11.099  19.550  0.00  0.00    +0.000 C 
ATOM      9  O   UNL     1       1.215  11.294  20.713  0.00  0.00    +0.000 OA
ATOM     10  H   UNL     1       0.622  11.806  17.622  0.00  0.00    +0.000 HD
BRANCH   7  14
ATOM     11  C   UNL     1       2.928  15.794  18.742  0.00  0.00    +0.000 A 
ATOM     12  C   UNL     1       3.662  14.663  18.374  0.00  0.00    +0.000 A 
ATOM     13  C   UNL     1       3.056  13.411  18.297  0.00  0.00    +0.000 A 
ATOM     14  C   UNL     1       1.715  13.245  18.631  0.00  0.00    +0.000 A 
ATOM     15  C   UNL     1       1.000  14.360  19.074  0.00  0.00    +0.000 A 
ATOM     16  C   UNL     1       1.596  15.634  19.156  0.00  0.00    +0.000 A 
BRANCH  11  18
ATOM     17  C   UNL     1       4.298  17.368  19.843  0.00  0.00    +0.000 C 
ATOM     18  O   UNL     1       3.501  17.038  18.705  0.00  0.00    +0.000 OA
ENDBRANCH  11  18
BRANCH  16  19
ATOM     19  O   UNL     1       0.731  16.579  19.640  0.00  0.00    +0.000 OA
ATOM     20  C   UNL     1      -0.666  16.338  19.562  0.00  0.00    +0.000 C 
ENDBRANCH  16  19
ENDBRANCH   7  14
ENDBRANCH   1   8
BRANCH   4  21
ATOM     21  C   UNL     1       1.861   6.420  18.308  0.00  0.00    +0.000 C 
BRANCH  21  22
ATOM     22  N   UNL     1       2.291   5.336  19.214  0.00  0.00    +0.000 NA
ATOM     23  H   UNL     1       1.598   5.094  19.924  0.00  0.00    +0.000 HD
BRANCH  22  24
ATOM     24  S   UNL     1       2.829   3.920  18.473  0.00  0.00    +0.000 S 
ATOM     25  O   UNL     1       3.020   2.934  19.513  0.00  0.00    +0.000 OA
ATOM     26  O   UNL     1       1.992   3.683  17.319  0.00  0.00    +0.000 OA
BRANCH  24  27
ATOM     27  C   UNL     1       4.414   4.211  17.847  0.00  0.00    +0.000 A 
ATOM     28  C   UNL     1       5.494   4.542  18.634  0.00  0.00    +0.000 A 
ATOM     29  S   UNL     1       6.905   4.794  17.702  0.00  0.00    +0.000 S 
ATOM     30  C   UNL     1       6.083   4.467  16.231  0.00  0.00    +0.000 A 
ATOM     31  C   UNL     1       4.751   4.171  16.462  0.00  0.00    +0.000 A 
BRANCH  30  32
ATOM     32  C   UNL     1       6.742   4.511  14.935  0.00  0.00    +0.000 C 
ATOM     33  N   UNL     1       6.339   3.601  14.000  0.00  0.00    +0.000 N 
ATOM     34  O   UNL     1       7.626   5.311  14.645  0.00  0.00    +0.000 OA
ATOM     35  H   UNL     1       5.593   2.942  14.175  0.00  0.00    +0.000 HD
ATOM     36  H   UNL     1       6.768   3.643  13.085  0.00  0.00    +0.000 HD
ENDBRANCH  30  32
ENDBRANCH  24  27
ENDBRANCH  22  24
ENDBRANCH  21  22
ENDBRANCH   4  21
TORSDOF 9
ENDMDL
MODEL 2
REMARK VINA RESULT:      -7.2      3.128      4.692
REMARK  Name = 
REMARK  11 active torsions:
REMARK  status: ('A' for Active; 'I' for Inactive)
REMARK    1  A    between atoms: C_1  and  O_2
REMARK    2  A    between atoms: O_2  and  C_3
REMARK    3  A    between atoms: C_6  and  N_7
REMARK    4  A    between atoms: C_8  and  C_10
REMARK    5  A    between atoms: C_13  and  C_14
REMARK    6  A    between atoms: C_14  and  N_15
REMARK    7  A    between atoms: N_15  and  S_16
REMARK    8  A    between atoms: S_16  and  C_19
REMARK    9  A    between atoms: C_22  and  C_23
REMARK   10  A    between atoms: C_30  and  O_31
REMARK   11  A    between atoms: O_31  and  C_32
REMARK                            x       y       z     vdW  Elec       q    Type
REMARK                         _______ _______ _______ _____ _____    ______ ____
ROOT
ATOM      1  C   UNL     1       2.852   6.450  19.495  0.00  0.00    +0.000 C 
ATOM      2  C   UNL     1       2.543   5.396  20.578  0.00  0.00    +0.000 C 
ATOM      3  C   UNL     1       1.151   4.777  20.404  0.00  0.00    +0.000 C 
ATOM      4  C   UNL     1       0.940   4.173  19.008  0.00  0.00    +0.000 C 
ATOM      5  C   UNL     1       1.268   5.218  17.927  0.00  0.00    +0.000 C 
ATOM      6  C   UNL     1       2.652   5.846  18.099  0.00  0.00    +0.000 C 
ENDROOT
BRANCH   1   8
ATOM      7  N   UNL     1       1.754   7.974  21.097  0.00  0.00    +0.000 N 
ATOM      8  C   UNL     1       2.032   7.720  19.767  0.00  0.00    +0.000 C 
ATOM      9  O   UNL     1       1.632   8.408  18.830  0.00  0.00    +0.000 OA
ATOM     10  H   UNL     1       2.219   7.421  21.804  0.00  0.00    +0.000 HD
BRANCH   7  14
ATOM     11  C   UNL     1      -0.638  11.166  22.531  0.00  0.00    +0.000 A 
ATOM     12  C   UNL     1      -0.730   9.900  23.115  0.00  0.00    +0.000 A 
ATOM     13  C   UNL     1       0.049   8.841  22.655  0.00  0.00    +0.000 A 
ATOM     14  C   UNL     1       0.905   9.004  21.570  0.00  0.00    +0.000 A 
ATOM     15  C   UNL     1       0.941  10.247  20.935  0.00  0.00    +0.000 A 
ATOM     16  C   UNL     1       0.162  11.329  21.389  0.00  0.00    +0.000 A 
BRANCH  11  18
ATOM     17  C   UNL     1      -2.675  12.353  22.625  0.00  0.00    +0.000 C 
ATOM     18  O   UNL     1      -1.320  12.229  23.061  0.00  0.00    +0.000 OA
ENDBRANCH  11  18
BRANCH  16  19
ATOM     19  O   UNL     1       0.325  12.446  20.611  0.00  0.00    +0.000 OA
ATOM     20  C   UNL     1       0.731  12.290  19.260  0.00  0.00    +0.000 C 
ENDBRANCH  16  19
ENDBRANCH   7  14
ENDBRANCH   1   8
BRANCH   4  21
ATOM     21  C   UNL     1       1.753   2.882  18.797  0.00  0.00    +0.000 C 
BRANCH  21  22
ATOM     22  N   UNL     1       2.785   2.769  19.846  0.00  0.00    +0.000 NA
ATOM     23  H   UNL     1       2.479   2.250  20.671  0.00  0.00    +0.000 HD
BRANCH  22  24
ATOM     24  S   UNL     1       4.283   2.173  19.351  0.00  0.00    +0.000 S 
ATOM     25  O   UNL     1       5.130   2.108  20.522  0.00  0.00    +0.000 OA
ATOM     26  O   UNL     1       4.041   1.031  18.500  0.00  0.00    +0.000 OA
BRANCH  24  27
ATOM     27  C   UNL     1       5.025   3.361  18.338  0.00  0.00    +0.000 A 
ATOM     28  C   UNL     1       4.855   3.409  16.972  0.00  0.00    +0.000 A 
ATOM     29  S   UNL     1       5.750   4.684  16.266  0.00  0.00    +0.000 S 
ATOM     30  C   UNL     1       6.379   5.183  17.783  0.00  0.00    +0.000 A 
ATOM     31  C   UNL     1       5.905   4.381  18.806  0.00  0.00    +0.000 A 
BRANCH  30  32
ATOM     32  C   UNL     1       7.291   6.307  17.925  0.00  0.00    +0.000 C 
ATOM     33  N   UNL     1       8.040   6.362  19.066  0.00  0.00    +0.000 N 
ATOM     34  O   UNL     1       7.420   7.193  17.085  0.00  0.00    +0.000 OA
ATOM     35  H   UNL     1       7.996   5.643  19.774  0.00  0.00    +0.000 HD
ATOM     36  H   UNL     1       8.700   7.122  19.161  0.00  0.00    +0.000 HD
ENDBRANCH  30  32
ENDBRANCH  24  27
ENDBRANCH  22  24
ENDBRANCH  21  22
ENDBRANCH   4  21
TORSDOF 9
ENDMDL
MODEL 3
REMARK VINA RESULT:      -7.2      3.833      5.934
REMARK  Name = 
REMARK  11 active torsions:
REMARK  status: ('A' for Active; 'I' for Inactive)
REMARK    1  A    between atoms: C_1  and  O_2
REMARK    2  A    between atoms: O_2  and  C_3
REMARK    3  A    between atoms: C_6  and  N_7
REMARK    4  A    between atoms: C_8  and  C_10
REMARK    5  A    between atoms: C_13  and  C_14
REMARK    6  A    between atoms: C_14  and  N_15
REMARK    7  A    between atoms: N_15  and  S_16
REMARK    8  A    between atoms: S_16  and  C_19
REMARK    9  A    between atoms: C_22  and  C_23
REMARK   10  A    between atoms: C_30  and  O_31
REMARK   11  A    between atoms: O_31  and  C_32
REMARK                            x       y       z     vdW  Elec       q    Type
REMARK                         _______ _______ _______ _____ _____    ______ ____
ROOT
ATOM      1  C   UNL     1       1.474   9.896  19.548  0.00  0.00    +0.000 C 
ATOM      2  C   UNL     1       1.864   8.586  20.265  0.00  0.00    +0.000 C 
ATOM      3  C   UNL     1       1.668   7.355  19.371  0.00  0.00    +0.000 C 
ATOM      4  C   UNL     1       2.417   7.467  18.036  0.00  0.00    +0.000 C 
ATOM      5  C   UNL     1       2.044   8.782  17.330  0.00  0.00    +0.000 C 
ATOM      6  C   UNL     1       2.229  10.013  18.218  0.00  0.00    +0.000 C 
ENDROOT
BRANCH   1   8
ATOM      7  N   UNL     1      -0.528  10.650  18.314  0.00  0.00    +0.000 N 
ATOM      8  C   UNL     1      -0.055   9.977  19.426  0.00  0.00    +0.000 C 
ATOM      9  O   UNL     1      -0.770   9.502  20.307  0.00  0.00    +0.000 OA
ATOM     10  H   UNL     1       0.126  10.905  17.587  0.00  0.00    +0.000 HD
BRANCH   7  14
ATOM     11  C   UNL     1      -4.543  11.671  17.420  0.00  0.00    +0.000 A 
ATOM     12  C   UNL     1      -3.984  12.025  18.651  0.00  0.00    +0.000 A 
ATOM     13  C   UNL     1      -2.666  11.696  18.959  0.00  0.00    +0.000 A 
ATOM     14  C   UNL     1      -1.886  10.965  18.069  0.00  0.00    +0.000 A 
ATOM     15  C   UNL     1      -2.467  10.542  16.871  0.00  0.00    +0.000 A 
ATOM     16  C   UNL     1      -3.797  10.868  16.542  0.00  0.00    +0.000 A 
BRANCH  11  18
ATOM     17  C   UNL     1      -6.839  11.680  17.964  0.00  0.00    +0.000 C 
ATOM     18  O   UNL     1      -5.799  12.097  17.077  0.00  0.00    +0.000 OA
ENDBRANCH  11  18
BRANCH  16  19
ATOM     19  O   UNL     1      -4.177  10.334  15.339  0.00  0.00    +0.000 OA
ATOM     20  C   UNL     1      -3.201  10.160  14.323  0.00  0.00    +0.000 C 
ENDBRANCH  16  19
ENDBRANCH   7  14
ENDBRANCH   1   8
BRANCH   4  21
ATOM     21  C   UNL     1       3.942   7.340  18.206  0.00  0.00    +0.000 C 
BRANCH  21  22
ATOM     22  N   UNL     1       4.505   6.572  17.078  0.00  0.00    +0.000 NA
ATOM     23  H   UNL     1       5.099   7.125  16.458  0.00  0.00    +0.000 HD
BRANCH  22  24
ATOM     24  S   UNL     1       5.316   5.150  17.482  0.00  0.00    +0.000 S 
ATOM     25  O   UNL     1       5.749   4.534  16.247  0.00  0.00    +0.000 OA
ATOM     26  O   UNL     1       6.228   5.455  18.561  0.00  0.00    +0.000 OA
BRANCH  24  27
ATOM     27  C   UNL     1       4.164   4.044  18.144  0.00  0.00    +0.000 A 
ATOM     28  C   UNL     1       3.496   3.102  17.395  0.00  0.00    +0.000 A 
ATOM     29  S   UNL     1       2.405   2.191  18.347  0.00  0.00    +0.000 S 
ATOM     30  C   UNL     1       2.814   3.053  19.774  0.00  0.00    +0.000 A 
ATOM     31  C   UNL     1       3.769   4.019  19.515  0.00  0.00    +0.000 A 
BRANCH  30  32
ATOM     32  C   UNL     1       2.204   2.771  21.064  0.00  0.00    +0.000 C 
ATOM     33  N   UNL     1       0.853   2.947  21.167  0.00  0.00    +0.000 N 
ATOM     34  O   UNL     1       2.831   2.391  22.048  0.00  0.00    +0.000 OA
ATOM     35  H   UNL     1       0.285   3.227  20.380  0.00  0.00    +0.000 HD
ATOM     36  H   UNL     1       0.414   2.724  22.050  0.00  0.00    +0.000 HD
ENDBRANCH  30  32
ENDBRANCH  24  27
ENDBRANCH  22  24
ENDBRANCH  21  22
ENDBRANCH   4  21
TORSDOF 9
ENDMDL
MODEL 4
REMARK VINA RESULT:      -7.1      0.781      1.691
REMARK  Name = 
REMARK  11 active torsions:
REMARK  status: ('A' for Active; 'I' for Inactive)
REMARK    1  A    between atoms: C_1  and  O_2
REMARK    2  A    between atoms: O_2  and  C_3
REMARK    3  A    between atoms: C_6  and  N_7
REMARK    4  A    between atoms: C_8  and  C_10
REMARK    5  A    between atoms: C_13  and  C_14
REMARK    6  A    between atoms: C_14  and  N_15
REMARK    7  A    between atoms: N_15  and  S_16
REMARK    8  A    between atoms: S_16  and  C_19
REMARK    9  A    between atoms: C_22  and  C_23
REMARK   10  A    between atoms: C_30  and  O_31
REMARK   11  A    between atoms: O_31  and  C_32
REMARK                            x       y       z     vdW  Elec       q    Type
REMARK                         _______ _______ _______ _____ _____    ______ ____
ROOT
ATOM      1  C   UNL     1       0.129   9.949  19.451  0.00  0.00    +0.000 C 
ATOM      2  C   UNL     1       0.640   9.533  18.056  0.00  0.00    +0.000 C 
ATOM      3  C   UNL     1       2.118   9.123  18.079  0.00  0.00    +0.000 C 
ATOM      4  C   UNL     1       2.409   8.012  19.099  0.00  0.00    +0.000 C 
ATOM      5  C   UNL     1       1.881   8.419  20.486  0.00  0.00    +0.000 C 
ATOM      6  C   UNL     1       0.410   8.838  20.469  0.00  0.00    +0.000 C 
ENDROOT
BRANCH   1   8
ATOM      7  N   UNL     1       0.652  12.282  18.830  0.00  0.00    +0.000 N 
ATOM      8  C   UNL     1       0.713  11.321  19.823  0.00  0.00    +0.000 C 
ATOM      9  O   UNL     1       1.231  11.492  20.925  0.00  0.00    +0.000 OA
ATOM     10  H   UNL     1       0.108  12.089  18.001  0.00  0.00    +0.000 HD
BRANCH   7  14
ATOM     11  C   UNL     1       2.592  16.040  19.096  0.00  0.00    +0.000 A 
ATOM     12  C   UNL     1       1.369  15.832  19.741  0.00  0.00    +0.000 A 
ATOM     13  C   UNL     1       0.720  14.602  19.662  0.00  0.00    +0.000 A 
ATOM     14  C   UNL     1       1.247  13.564  18.900  0.00  0.00    +0.000 A 
ATOM     15  C   UNL     1       2.428  13.796  18.192  0.00  0.00    +0.000 A 
ATOM     16  C   UNL     1       3.099  15.032  18.262  0.00  0.00    +0.000 A 
BRANCH  11  18
ATOM     17  C   UNL     1       2.845  18.007  20.376  0.00  0.00    +0.000 C 
ATOM     18  O   UNL     1       3.280  17.212  19.272  0.00  0.00    +0.000 OA
ENDBRANCH  11  18
BRANCH  16  19
ATOM     19  O   UNL     1       4.219  15.058  17.472  0.00  0.00    +0.000 OA
ATOM     20  C   UNL     1       5.481  14.778  18.057  0.00  0.00    +0.000 C 
ENDBRANCH  16  19
ENDBRANCH   7  14
ENDBRANCH   1   8
BRANCH   4  21
ATOM     21  C   UNL     1       1.837   6.650  18.663  0.00  0.00    +0.000 C 
BRANCH  21  22
ATOM     22  N   UNL     1       2.490   5.570  19.429  0.00  0.00    +0.000 NA
ATOM     23  H   UNL     1       1.990   5.308  20.280  0.00  0.00    +0.000 HD
BRANCH  22  24
ATOM     24  S   UNL     1       2.867   4.172  18.566  0.00  0.00    +0.000 S 
ATOM     25  O   UNL     1       2.991   3.094  19.521  0.00  0.00    +0.000 OA
ATOM     26  O   UNL     1       1.978   4.106  17.428  0.00  0.00    +0.000 OA
BRANCH  24  27
ATOM     27  C   UNL     1       4.454   4.360  17.906  0.00  0.00    +0.000 A 
ATOM     28  C   UNL     1       5.572   4.610  18.671  0.00  0.00    +0.000 A 
ATOM     29  S   UNL     1       6.976   4.773  17.709  0.00  0.00    +0.000 S 
ATOM     30  C   UNL     1       6.101   4.514  16.255  0.00  0.00    +0.000 A 
ATOM     31  C   UNL     1       4.758   4.308  16.513  0.00  0.00    +0.000 A 
BRANCH  30  32
ATOM     32  C   UNL     1       6.733   4.524  14.945  0.00  0.00    +0.000 C 
ATOM     33  N   UNL     1       6.291   3.608  14.033  0.00  0.00    +0.000 N 
ATOM     34  O   UNL     1       7.627   5.299  14.624  0.00  0.00    +0.000 OA
ATOM     35  H   UNL     1       5.535   2.968  14.235  0.00  0.00    +0.000 HD
ATOM     36  H   UNL     1       6.701   3.626  13.109  0.00  0.00    +0.000 HD
ENDBRANCH  30  32
ENDBRANCH  24  27
ENDBRANCH  22  24
ENDBRANCH  21  22
ENDBRANCH   4  21
TORSDOF 9
ENDMDL
MODEL 5
REMARK VINA RESULT:      -7.1      1.673      1.824
REMARK  Name = 
REMARK  11 active torsions:
REMARK  status: ('A' for Active; 'I' for Inactive)
REMARK    1  A    between atoms: C_1  and  O_2
REMARK    2  A    between atoms: O_2  and  C_3
REMARK    3  A    between atoms: C_6  and  N_7
REMARK    4  A    between atoms: C_8  and  C_10
REMARK    5  A    between atoms: C_13  and  C_14
REMARK    6  A    between atoms: C_14  and  N_15
REMARK    7  A    between atoms: N_15  and  S_16
REMARK    8  A    between atoms: S_16  and  C_19
REMARK    9  A    between atoms: C_22  and  C_23
REMARK   10  A    between atoms: C_30  and  O_31
REMARK   11  A    between atoms: O_31  and  C_32
REMARK                            x       y       z     vdW  Elec       q    Type
REMARK                         _______ _______ _______ _____ _____    ______ ____
ROOT
ATOM      1  C   UNL     1      -0.078   9.830  19.980  0.00  0.00    +0.000 C 
ATOM      2  C   UNL     1       0.520   9.099  18.759  0.00  0.00    +0.000 C 
ATOM      3  C   UNL     1       1.961   8.636  19.010  0.00  0.00    +0.000 C 
ATOM      4  C   UNL     1       2.093   7.760  20.264  0.00  0.00    +0.000 C 
ATOM      5  C   UNL     1       1.479   8.480  21.477  0.00  0.00    +0.000 C 
ATOM      6  C   UNL     1       0.045   8.953  21.232  0.00  0.00    +0.000 C 
ENDROOT
BRANCH   1   8
ATOM      7  N   UNL     1       0.505  12.009  18.972  0.00  0.00    +0.000 N 
ATOM      8  C   UNL     1       0.562  11.221  20.108  0.00  0.00    +0.000 C 
ATOM      9  O   UNL     1       1.116  11.551  21.155  0.00  0.00    +0.000 OA
ATOM     10  H   UNL     1      -0.069  11.703  18.199  0.00  0.00    +0.000 HD
BRANCH   7  14
ATOM     11  C   UNL     1       2.278  15.814  18.394  0.00  0.00    +0.000 A 
ATOM     12  C   UNL     1       3.028  14.651  18.198  0.00  0.00    +0.000 A 
ATOM     13  C   UNL     1       2.459  13.393  18.385  0.00  0.00    +0.000 A 
ATOM     14  C   UNL     1       1.143  13.262  18.818  0.00  0.00    +0.000 A 
ATOM     15  C   UNL     1       0.416  14.423  19.090  0.00  0.00    +0.000 A 
ATOM     16  C   UNL     1       0.975  15.703  18.904  0.00  0.00    +0.000 A 
BRANCH  11  18
ATOM     17  C   UNL     1       2.582  17.490  16.762  0.00  0.00    +0.000 C 
ATOM     18  O   UNL     1       2.808  17.042  18.099  0.00  0.00    +0.000 OA
ENDBRANCH  11  18
BRANCH  16  19
ATOM     19  O   UNL     1       0.105  16.702  19.255  0.00  0.00    +0.000 OA
ATOM     20  C   UNL     1      -0.819  17.181  18.290  0.00  0.00    +0.000 C 
ENDBRANCH  16  19
ENDBRANCH   7  14
ENDBRANCH   1   8
BRANCH   4  21
ATOM     21  C   UNL     1       1.472   6.364  20.073  0.00  0.00    +0.000 C 
BRANCH  21  22
ATOM     22  N   UNL     1       2.285   5.358  20.783  0.00  0.00    +0.000 NA
ATOM     23  H   UNL     1       1.972   5.175  21.738  0.00  0.00    +0.000 HD
BRANCH  22  24
ATOM     24  S   UNL     1       2.504   3.886  19.990  0.00  0.00    +0.000 S 
ATOM     25  O   UNL     1       3.125   2.978  20.928  0.00  0.00    +0.000 OA
ATOM     26  O   UNL     1       1.274   3.573  19.300  0.00  0.00    +0.000 OA
BRANCH  24  27
ATOM     27  C   UNL     1       3.688   4.115  18.751  0.00  0.00    +0.000 A 
ATOM     28  C   UNL     1       3.439   3.906  17.413  0.00  0.00    +0.000 A 
ATOM     29  S   UNL     1       4.828   4.191  16.457  0.00  0.00    +0.000 S 
ATOM     30  C   UNL     1       5.780   4.593  17.827  0.00  0.00    +0.000 A 
ATOM     31  C   UNL     1       5.038   4.507  18.991  0.00  0.00    +0.000 A 
BRANCH  30  32
ATOM     32  C   UNL     1       7.183   4.965  17.728  0.00  0.00    +0.000 C 
ATOM     33  N   UNL     1       7.468   6.176  17.164  0.00  0.00    +0.000 N 
ATOM     34  O   UNL     1       8.107   4.257  18.117  0.00  0.00    +0.000 OA
ATOM     35  H   UNL     1       6.744   6.811  16.857  0.00  0.00    +0.000 HD
ATOM     36  H   UNL     1       8.438   6.459  17.118  0.00  0.00    +0.000 HD
ENDBRANCH  30  32
ENDBRANCH  24  27
ENDBRANCH  22  24
ENDBRANCH  21  22
ENDBRANCH   4  21
TORSDOF 9
ENDMDL
MODEL 6
REMARK VINA RESULT:      -7.0      5.169     10.629
REMARK  Name = 
REMARK  11 active torsions:
REMARK  status: ('A' for Active; 'I' for Inactive)
REMARK    1  A    between atoms: C_1  and  O_2
REMARK    2  A    between atoms: O_2  and  C_3
REMARK    3  A    between atoms: C_6  and  N_7
REMARK    4  A    between atoms: C_8  and  C_10
REMARK    5  A    between atoms: C_13  and  C_14
REMARK    6  A    between atoms: C_14  and  N_15
REMARK    7  A    between atoms: N_15  and  S_16
REMARK    8  A    between atoms: S_16  and  C_19
REMARK    9  A    between atoms: C_22  and  C_23
REMARK   10  A    between atoms: C_30  and  O_31
REMARK   11  A    between atoms: O_31  and  C_32
REMARK                            x       y       z     vdW  Elec       q    Type
REMARK                         _______ _______ _______ _____ _____    ______ ____
ROOT
ATOM      1  C   UNL     1       1.482   9.739  21.641  0.00  0.00    +0.000 C 
ATOM      2  C   UNL     1       1.029  11.064  20.993  0.00  0.00    +0.000 C 
ATOM      3  C   UNL     1      -0.491  11.120  20.790  0.00  0.00    +0.000 C 
ATOM      4  C   UNL     1      -1.272  10.876  22.089  0.00  0.00    +0.000 C 
ATOM      5  C   UNL     1      -0.806   9.564  22.745  0.00  0.00    +0.000 C 
ATOM      6  C   UNL     1       0.709   9.497  22.943  0.00  0.00    +0.000 C 
ENDROOT
BRANCH   1   8
ATOM      7  N   UNL     1       1.839   7.371  21.035  0.00  0.00    +0.000 N 
ATOM      8  C   UNL     1       1.375   8.603  20.612  0.00  0.00    +0.000 C 
ATOM      9  O   UNL     1       0.942   8.832  19.484  0.00  0.00    +0.000 OA
ATOM     10  H   UNL     1       2.068   7.249  22.012  0.00  0.00    +0.000 HD
BRANCH   7  14
ATOM     11  C   UNL     1       2.161   4.036  18.440  0.00  0.00    +0.000 A 
ATOM     12  C   UNL     1       1.399   3.948  19.608  0.00  0.00    +0.000 A 
ATOM     13  C   UNL     1       1.284   5.035  20.471  0.00  0.00    +0.000 A 
ATOM     14  C   UNL     1       1.964   6.223  20.218  0.00  0.00    +0.000 A 
ATOM     15  C   UNL     1       2.788   6.287  19.092  0.00  0.00    +0.000 A 
ATOM     16  C   UNL     1       2.914   5.198  18.208  0.00  0.00    +0.000 A 
BRANCH  11  18
ATOM     17  C   UNL     1       2.940   1.865  17.942  0.00  0.00    +0.000 C 
ATOM     18  O   UNL     1       2.177   3.004  17.540  0.00  0.00    +0.000 OA
ENDBRANCH  11  18
BRANCH  16  19
ATOM     19  O   UNL     1       3.791   5.460  17.187  0.00  0.00    +0.000 OA
ATOM     20  C   UNL     1       5.172   5.593  17.484  0.00  0.00    +0.000 C 
ENDBRANCH  16  19
ENDBRANCH   7  14
ENDBRANCH   1   8
BRANCH   4  21
ATOM     21  C   UNL     1      -1.165  12.057  23.070  0.00  0.00    +0.000 C 
BRANCH  21  22
ATOM     22  N   UNL     1      -1.723  13.273  22.446  0.00  0.00    +0.000 NA
ATOM     23  H   UNL     1      -1.564  13.328  21.438  0.00  0.00    +0.000 HD
BRANCH  22  24
ATOM     24  S   UNL     1      -3.349  13.589  22.759  0.00  0.00    +0.000 S 
ATOM     25  O   UNL     1      -3.729  12.797  23.908  0.00  0.00    +0.000 OA
ATOM     26  O   UNL     1      -3.536  15.021  22.704  0.00  0.00    +0.000 OA
BRANCH  24  27
ATOM     27  C   UNL     1      -4.282  12.947  21.454  0.00  0.00    +0.000 A 
ATOM     28  C   UNL     1      -5.614  12.616  21.562  0.00  0.00    +0.000 A 
ATOM     29  S   UNL     1      -6.230  11.978  20.099  0.00  0.00    +0.000 S 
ATOM     30  C   UNL     1      -4.716  12.135  19.306  0.00  0.00    +0.000 A 
ATOM     31  C   UNL     1      -3.763  12.667  20.155  0.00  0.00    +0.000 A 
BRANCH  30  32
ATOM     32  C   UNL     1      -4.510  11.742  17.920  0.00  0.00    +0.000 C 
ATOM     33  N   UNL     1      -3.255  11.905  17.407  0.00  0.00    +0.000 N 
ATOM     34  O   UNL     1      -5.391  11.280  17.203  0.00  0.00    +0.000 OA
ATOM     35  H   UNL     1      -2.486  12.251  17.963  0.00  0.00    +0.000 HD
ATOM     36  H   UNL     1      -3.092  11.607  16.454  0.00  0.00    +0.000 HD
ENDBRANCH  30  32
ENDBRANCH  24  27
ENDBRANCH  22  24
ENDBRANCH  21  22
ENDBRANCH   4  21
TORSDOF 9
ENDMDL
MODEL 7
REMARK VINA RESULT:      -7.0      1.627      1.738
REMARK  Name = 
REMARK  11 active torsions:
REMARK  status: ('A' for Active; 'I' for Inactive)
REMARK    1  A    between atoms: C_1  and  O_2
REMARK    2  A    between atoms: O_2  and  C_3
REMARK    3  A    between atoms: C_6  and  N_7
REMARK    4  A    between atoms: C_8  and  C_10
REMARK    5  A    between atoms: C_13  and  C_14
REMARK    6  A    between atoms: C_14  and  N_15
REMARK    7  A    between atoms: N_15  and  S_16
REMARK    8  A    between atoms: S_16  and  C_19
REMARK    9  A    between atoms: C_22  and  C_23
REMARK   10  A    between atoms: C_30  and  O_31
REMARK   11  A    between atoms: O_31  and  C_32
REMARK                            x       y       z     vdW  Elec       q    Type
REMARK                         _______ _______ _______ _____ _____    ______ ____
ROOT
ATOM      1  C   UNL     1       0.162   9.862  19.353  0.00  0.00    +0.000 C 
ATOM      2  C   UNL     1       0.826   9.188  18.134  0.00  0.00    +0.000 C 
ATOM      3  C   UNL     1       2.223   8.644  18.461  0.00  0.00    +0.000 C 
ATOM      4  C   UNL     1       2.219   7.681  19.657  0.00  0.00    +0.000 C 
ATOM      5  C   UNL     1       1.539   8.345  20.867  0.00  0.00    +0.000 C 
ATOM      6  C   UNL     1       0.149   8.898  20.545  0.00  0.00    +0.000 C 
ENDROOT
BRANCH   1   8
ATOM      7  N   UNL     1       1.080  11.996  18.514  0.00  0.00    +0.000 N 
ATOM      8  C   UNL     1       0.844  11.211  19.628  0.00  0.00    +0.000 C 
ATOM      9  O   UNL     1       1.182  11.509  20.772  0.00  0.00    +0.000 OA
ATOM     10  H   UNL     1       0.667  11.723  17.632  0.00  0.00    +0.000 HD
BRANCH   7  14
ATOM     11  C   UNL     1       3.148  15.692  18.386  0.00  0.00    +0.000 A 
ATOM     12  C   UNL     1       3.827  14.497  18.133  0.00  0.00    +0.000 A 
ATOM     13  C   UNL     1       3.161  13.274  18.171  0.00  0.00    +0.000 A 
ATOM     14  C   UNL     1       1.813  13.206  18.511  0.00  0.00    +0.000 A 
ATOM     15  C   UNL     1       1.152  14.391  18.840  0.00  0.00    +0.000 A 
ATOM     16  C   UNL     1       1.810  15.637  18.804  0.00  0.00    +0.000 A 
BRANCH  11  18
ATOM     17  C   UNL     1       5.109  16.951  18.758  0.00  0.00    +0.000 C 
ATOM     18  O   UNL     1       3.781  16.897  18.235  0.00  0.00    +0.000 OA
ENDBRANCH  11  18
BRANCH  16  19
ATOM     19  O   UNL     1       0.990  16.665  19.189  0.00  0.00    +0.000 OA
ATOM     20  C   UNL     1       0.215  17.333  18.206  0.00  0.00    +0.000 C 
ENDBRANCH  16  19
ENDBRANCH   7  14
ENDBRANCH   1   8
BRANCH   4  21
ATOM     21  C   UNL     1       1.560   6.330  19.321  0.00  0.00    +0.000 C 
BRANCH  21  22
ATOM     22  N   UNL     1       2.032   5.862  18.003  0.00  0.00    +0.000 NA
ATOM     23  H   UNL     1       2.549   6.568  17.476  0.00  0.00    +0.000 HD
BRANCH  22  24
ATOM     24  S   UNL     1       2.915   4.426  17.999  0.00  0.00    +0.000 S 
ATOM     25  O   UNL     1       3.022   3.980  19.370  0.00  0.00    +0.000 OA
ATOM     26  O   UNL     1       2.386   3.589  16.947  0.00  0.00    +0.000 OA
BRANCH  24  27
ATOM     27  C   UNL     1       4.537   4.794  17.529  0.00  0.00    +0.000 A 
ATOM     28  C   UNL     1       5.272   4.019  16.660  0.00  0.00    +0.000 A 
ATOM     29  S   UNL     1       6.848   4.643  16.431  0.00  0.00    +0.000 S 
ATOM     30  C   UNL     1       6.564   5.956  17.498  0.00  0.00    +0.000 A 
ATOM     31  C   UNL     1       5.282   5.909  18.015  0.00  0.00    +0.000 A 
BRANCH  30  32
ATOM     32  C   UNL     1       7.573   6.962  17.793  0.00  0.00    +0.000 C 
ATOM     33  N   UNL     1       8.285   6.810  18.949  0.00  0.00    +0.000 N 
ATOM     34  O   UNL     1       7.813   7.922  17.068  0.00  0.00    +0.000 OA
ATOM     35  H   UNL     1       8.150   6.021  19.565  0.00  0.00    +0.000 HD
ATOM     36  H   UNL     1       9.010   7.486  19.149  0.00  0.00    +0.000 HD
ENDBRANCH  30  32
ENDBRANCH  24  27
ENDBRANCH  22  24
ENDBRANCH  21  22
ENDBRANCH   4  21
TORSDOF 9
ENDMDL
MODEL 8
REMARK VINA RESULT:      -6.9      1.017      1.113
REMARK  Name = 
REMARK  11 active torsions:
REMARK  status: ('A' for Active; 'I' for Inactive)
REMARK    1  A    between atoms: C_1  and  O_2
REMARK    2  A    between atoms: O_2  and  C_3
REMARK    3  A    between atoms: C_6  and  N_7
REMARK    4  A    between atoms: C_8  and  C_10
REMARK    5  A    between atoms: C_13  and  C_14
REMARK    6  A    between atoms: C_14  and  N_15
REMARK    7  A    between atoms: N_15  and  S_16
REMARK    8  A    between atoms: S_16  and  C_19
REMARK    9  A    between atoms: C_22  and  C_23
REMARK   10  A    between atoms: C_30  and  O_31
REMARK   11  A    between atoms: O_31  and  C_32
REMARK                            x       y       z     vdW  Elec       q    Type
REMARK                         _______ _______ _______ _____ _____    ______ ____
ROOT
ATOM      1  C   UNL     1       0.018   9.836  19.272  0.00  0.00    +0.000 C 
ATOM      2  C   UNL     1       0.523   9.400  17.881  0.00  0.00    +0.000 C 
ATOM      3  C   UNL     1       2.026   9.091  17.880  0.00  0.00    +0.000 C 
ATOM      4  C   UNL     1       2.416   8.045  18.934  0.00  0.00    +0.000 C 
ATOM      5  C   UNL     1       1.896   8.470  20.318  0.00  0.00    +0.000 C 
ATOM      6  C   UNL     1       0.399   8.788  20.324  0.00  0.00    +0.000 C 
ENDROOT
BRANCH   1   8
ATOM      7  N   UNL     1       0.360  12.174  18.550  0.00  0.00    +0.000 N 
ATOM      8  C   UNL     1       0.516  11.258  19.575  0.00  0.00    +0.000 C 
ATOM      9  O   UNL     1       1.052  11.506  20.653  0.00  0.00    +0.000 OA
ATOM     10  H   UNL     1      -0.194  11.912  17.747  0.00  0.00    +0.000 HD
BRANCH   7  14
ATOM     11  C   UNL     1       1.740  16.179  18.444  0.00  0.00    +0.000 A 
ATOM     12  C   UNL     1       2.625  15.123  18.211  0.00  0.00    +0.000 A 
ATOM     13  C   UNL     1       2.187  13.802  18.243  0.00  0.00    +0.000 A 
ATOM     14  C   UNL     1       0.866  13.495  18.555  0.00  0.00    +0.000 A 
ATOM     15  C   UNL     1      -0.002  14.545  18.866  0.00  0.00    +0.000 A 
ATOM     16  C   UNL     1       0.424  15.887  18.836  0.00  0.00    +0.000 A 
BRANCH  11  18
ATOM     17  C   UNL     1       1.714  18.117  17.098  0.00  0.00    +0.000 C 
ATOM     18  O   UNL     1       2.151  17.477  18.299  0.00  0.00    +0.000 OA
ENDBRANCH  11  18
BRANCH  16  19
ATOM     19  O   UNL     1      -0.573  16.754  19.199  0.00  0.00    +0.000 OA
ATOM     20  C   UNL     1      -1.512  16.350  20.184  0.00  0.00    +0.000 C 
ENDBRANCH  16  19
ENDBRANCH   7  14
ENDBRANCH   1   8
BRANCH   4  21
ATOM     21  C   UNL     1       1.929   6.631  18.566  0.00  0.00    +0.000 C 
BRANCH  21  22
ATOM     22  N   UNL     1       2.640   5.632  19.388  0.00  0.00    +0.000 NA
ATOM     23  H   UNL     1       2.172   5.416  20.269  0.00  0.00    +0.000 HD
BRANCH  22  24
ATOM     24  S   UNL     1       3.043   4.188  18.616  0.00  0.00    +0.000 S 
ATOM     25  O   UNL     1       3.262   3.195  19.644  0.00  0.00    +0.000 OA
ATOM     26  O   UNL     1       2.106   3.993  17.533  0.00  0.00    +0.000 OA
BRANCH  24  27
ATOM     27  C   UNL     1       4.586   4.393  17.865  0.00  0.00    +0.000 A 
ATOM     28  C   UNL     1       5.733   4.714  18.558  0.00  0.00    +0.000 A 
ATOM     29  S   UNL     1       7.079   4.874  17.516  0.00  0.00    +0.000 S 
ATOM     30  C   UNL     1       6.140   4.518  16.124  0.00  0.00    +0.000 A 
ATOM     31  C   UNL     1       4.819   4.283  16.463  0.00  0.00    +0.000 A 
BRANCH  30  32
ATOM     32  C   UNL     1       6.703   4.484  14.784  0.00  0.00    +0.000 C 
ATOM     33  N   UNL     1       7.746   5.328  14.524  0.00  0.00    +0.000 N 
ATOM     34  O   UNL     1       6.296   3.749  13.890  0.00  0.00    +0.000 OA
ATOM     35  H   UNL     1       8.140   5.930  15.233  0.00  0.00    +0.000 HD
ATOM     36  H   UNL     1       8.165   5.291  13.605  0.00  0.00    +0.000 HD
ENDBRANCH  30  32
ENDBRANCH  24  27
ENDBRANCH  22  24
ENDBRANCH  21  22
ENDBRANCH   4  21
TORSDOF 9
ENDMDL
MODEL 9
REMARK VINA RESULT:      -6.9      1.395      1.502
REMARK  Name = 
REMARK  11 active torsions:
REMARK  status: ('A' for Active; 'I' for Inactive)
REMARK    1  A    between atoms: C_1  and  O_2
REMARK    2  A    between atoms: O_2  and  C_3
REMARK    3  A    between atoms: C_6  and  N_7
REMARK    4  A    between atoms: C_8  and  C_10
REMARK    5  A    between atoms: C_13  and  C_14
REMARK    6  A    between atoms: C_14  and  N_15
REMARK    7  A    between atoms: N_15  and  S_16
REMARK    8  A    between atoms: S_16  and  C_19
REMARK    9  A    between atoms: C_22  and  C_23
REMARK   10  A    between atoms: C_30  and  O_31
REMARK   11  A    between atoms: O_31  and  C_32
REMARK                            x       y       z     vdW  Elec       q    Type
REMARK                         _______ _______ _______ _____ _____    ______ ____
ROOT
ATOM      1  C   UNL     1       0.208   9.886  19.163  0.00  0.00    +0.000 C 
ATOM      2  C   UNL     1       0.947   9.241  17.972  0.00  0.00    +0.000 C 
ATOM      3  C   UNL     1       2.332   8.712  18.368  0.00  0.00    +0.000 C 
ATOM      4  C   UNL     1       2.277   7.730  19.547  0.00  0.00    +0.000 C 
ATOM      5  C   UNL     1       1.522   8.366  20.728  0.00  0.00    +0.000 C 
ATOM      6  C   UNL     1       0.144   8.904  20.339  0.00  0.00    +0.000 C 
ENDROOT
BRANCH   1   8
ATOM      7  N   UNL     1       1.127  12.051  18.408  0.00  0.00    +0.000 N 
ATOM      8  C   UNL     1       0.854  11.240  19.495  0.00  0.00    +0.000 C 
ATOM      9  O   UNL     1       1.134  11.521  20.659  0.00  0.00    +0.000 OA
ATOM     10  H   UNL     1       0.758  11.790  17.504  0.00  0.00    +0.000 HD
BRANCH   7  14
ATOM     11  C   UNL     1       3.136  15.782  18.447  0.00  0.00    +0.000 A 
ATOM     12  C   UNL     1       3.844  14.604  18.198  0.00  0.00    +0.000 A 
ATOM     13  C   UNL     1       3.198  13.370  18.182  0.00  0.00    +0.000 A 
ATOM     14  C   UNL     1       1.838  13.273  18.462  0.00  0.00    +0.000 A 
ATOM     15  C   UNL     1       1.144  14.440  18.788  0.00  0.00    +0.000 A 
ATOM     16  C   UNL     1       1.782  15.696  18.806  0.00  0.00    +0.000 A 
BRANCH  11  18
ATOM     17  C   UNL     1       4.775  17.239  19.319  0.00  0.00    +0.000 C 
ATOM     18  O   UNL     1       3.754  17.000  18.348  0.00  0.00    +0.000 OA
ENDBRANCH  11  18
BRANCH  16  19
ATOM     19  O   UNL     1       0.929  16.702  19.177  0.00  0.00    +0.000 OA
ATOM     20  C   UNL     1       0.053  17.256  18.207  0.00  0.00    +0.000 C 
ENDBRANCH  16  19
ENDBRANCH   7  14
ENDBRANCH   1   8
BRANCH   4  21
ATOM     21  C   UNL     1       1.657   6.376  19.155  0.00  0.00    +0.000 C 
BRANCH  21  22
ATOM     22  N   UNL     1       1.993   5.363  20.176  0.00  0.00    +0.000 NA
ATOM     23  H   UNL     1       1.271   5.241  20.887  0.00  0.00    +0.000 HD
BRANCH  22  24
ATOM     24  S   UNL     1       2.447   3.847  19.595  0.00  0.00    +0.000 S 
ATOM     25  O   UNL     1       3.039   3.122  20.697  0.00  0.00    +0.000 OA
ATOM     26  O   UNL     1       1.343   3.325  18.822  0.00  0.00    +0.000 OA
BRANCH  24  27
ATOM     27  C   UNL     1       3.740   4.069  18.469  0.00  0.00    +0.000 A 
ATOM     28  C   UNL     1       3.664   3.708  17.142  0.00  0.00    +0.000 A 
ATOM     29  S   UNL     1       5.124   4.032  16.312  0.00  0.00    +0.000 S 
ATOM     30  C   UNL     1       5.875   4.656  17.724  0.00  0.00    +0.000 A 
ATOM     31  C   UNL     1       5.015   4.612  18.806  0.00  0.00    +0.000 A 
BRANCH  30  32
ATOM     32  C   UNL     1       7.243   5.151  17.732  0.00  0.00    +0.000 C 
ATOM     33  N   UNL     1       8.243   4.220  17.743  0.00  0.00    +0.000 N 
ATOM     34  O   UNL     1       7.539   6.342  17.730  0.00  0.00    +0.000 OA
ATOM     35  H   UNL     1       8.055   3.228  17.712  0.00  0.00    +0.000 HD
ATOM     36  H   UNL     1       9.197   4.552  17.718  0.00  0.00    +0.000 HD
ENDBRANCH  30  32
ENDBRANCH  24  27
ENDBRANCH  22  24
ENDBRANCH  21  22
ENDBRANCH   4  21
TORSDOF 9
ENDMDL
