MODEL 1
REMARK VINA RESULT:      -7.2      0.000      0.000
REMARK  Name = 
REMARK  7 active torsions:
REMARK  status: ('A' for Active; 'I' for Inactive)
REMARK    1  A    between atoms: C_2  and  C_3
REMARK    2  A    between atoms: N_5  and  C_6
REMARK    3  A    between atoms: C_9  and  C_10
REMARK    4  A    between atoms: C_9  and  C_11
REMARK    5  A    between atoms: C_11  and  O_12
REMARK    6  A    between atoms: C_13  and  O_14
REMARK    7  A    between atoms: C_15  and  O_16
REMARK                            x       y       z     vdW  Elec       q    Type
REMARK                         _______ _______ _______ _____ _____    ______ ____
ROOT
ATOM      1  C   UNL     1       6.461   5.652  17.443  0.00  0.00    +0.000 A 
ATOM      2  C   UNL     1       5.475   5.136  18.252  0.00  0.00    +0.000 A 
ATOM      3  N   UNL     1       4.744   4.241  17.505  0.00  0.00    +0.000 N 
ATOM      4  C   UNL     1       5.269   4.169  16.236  0.00  0.00    +0.000 A 
ATOM      5  N   UNL     1       4.809   3.394  15.236  0.00  0.00    +0.000 NA
ATOM      6  C   UNL     1       5.513   3.577  14.107  0.00  0.00    +0.000 A 
ATOM      7  N   UNL     1       6.569   4.388  13.899  0.00  0.00    +0.000 NA
ATOM      8  C   UNL     1       7.019   5.127  14.934  0.00  0.00    +0.000 A 
ATOM      9  N   UNL     1       8.133   5.917  14.710  0.00  0.00    +0.000 N 
ATOM     10  C   UNL     1       6.346   5.044  16.164  0.00  0.00    +0.000 A 
ATOM     11  H   UNL     1       8.326   6.067  13.729  0.00  0.00    +0.000 HD
ATOM     12  H   UNL     1       8.293   6.682  15.349  0.00  0.00    +0.000 HD
ENDROOT
BRANCH   3  13
ATOM     13  C   UNL     1       3.551   3.569  18.004  0.00  0.00    +0.000 C 
ATOM     14  C   UNL     1       2.536   4.430  18.737  0.00  0.00    +0.000 C 
ATOM     15  C   UNL     1       2.275   5.726  18.488  0.00  0.00    +0.000 C 
ATOM     16  C   UNL     1       1.893   3.609  19.865  0.00  0.00    +0.000 C 
ATOM     17  C   UNL     1       0.355   3.603  19.777  0.00  0.00    +0.000 C 
ATOM     18  C   UNL     1       2.485   2.183  19.645  0.00  0.00    +0.000 C 
ATOM     19  C   UNL     1       3.850   2.419  18.977  0.00  0.00    +0.000 C 
BRANCH  18  20
ATOM     20  O   UNL     1       1.711   1.342  18.767  0.00  0.00    +0.000 OA
ATOM     21  H   UNL     1       1.207   1.899  18.149  0.00  0.00    +0.000 HD
ENDBRANCH  18  20
BRANCH  19  22
ATOM     22  O   UNL     1       4.282   1.247  18.280  0.00  0.00    +0.000 OA
ATOM     23  H   UNL     1       4.314   0.532  18.948  0.00  0.00    +0.000 HD
ENDBRANCH  19  22
BRANCH  16  24
ATOM     24  C   UNL     1       2.348   4.173  21.233  0.00  0.00    +0.000 C 
BRANCH  24  25
ATOM     25  O   UNL     1       2.244   3.179  22.247  0.00  0.00    +0.000 OA
ATOM     26  H   UNL     1       2.659   3.542  23.049  0.00  0.00    +0.000 HD
ENDBRANCH  24  25
ENDBRANCH  16  24
ENDBRANCH   3  13
BRANCH   1  28
ATOM     27  C   UNL     1       8.159   7.502  18.211  0.00  0.00    +0.000 C 
ATOM     28  C   UNL     1       7.388   6.645  17.861  0.00  0.00    +0.000 C 
ENDBRANCH   1  28
TORSDOF 6
ENDMDL
MODEL 2
REMARK VINA RESULT:      -6.9      1.637      3.525
REMARK  Name = 
REMARK  7 active torsions:
REMARK  status: ('A' for Active; 'I' for Inactive)
REMARK    1  A    between atoms: C_2  and  C_3
REMARK    2  A    between atoms: N_5  and  C_6
REMARK    3  A    between atoms: C_9  and  C_10
REMARK    4  A    between atoms: C_9  and  C_11
REMARK    5  A    between atoms: C_11  and  O_12
REMARK    6  A    between atoms: C_13  and  O_14
REMARK    7  A    between atoms: C_15  and  O_16
REMARK                            x       y       z     vdW  Elec       q    Type
REMARK                         _______ _______ _______ _____ _____    ______ ____
ROOT
ATOM      1  C   UNL     1       5.167   4.382  15.594  0.00  0.00    +0.000 A 
ATOM      2  C   UNL     1       4.187   4.129  16.526  0.00  0.00    +0.000 A 
ATOM      3  N   UNL     1       4.517   4.809  17.677  0.00  0.00    +0.000 N 
ATOM      4  C   UNL     1       5.686   5.506  17.477  0.00  0.00    +0.000 A 
ATOM      5  N   UNL     1       6.305   6.282  18.386  0.00  0.00    +0.000 NA
ATOM      6  C   UNL     1       7.446   6.796  17.899  0.00  0.00    +0.000 A 
ATOM      7  N   UNL     1       7.982   6.636  16.673  0.00  0.00    +0.000 NA
ATOM      8  C   UNL     1       7.317   5.874  15.781  0.00  0.00    +0.000 A 
ATOM      9  N   UNL     1       7.862   5.763  14.514  0.00  0.00    +0.000 N 
ATOM     10  C   UNL     1       6.121   5.257  16.181  0.00  0.00    +0.000 A 
ATOM     11  H   UNL     1       8.835   6.037  14.471  0.00  0.00    +0.000 HD
ATOM     12  H   UNL     1       7.562   4.981  13.948  0.00  0.00    +0.000 HD
ENDROOT
BRANCH   3  13
ATOM     13  C   UNL     1       3.758   4.698  18.916  0.00  0.00    +0.000 C 
ATOM     14  C   UNL     1       3.576   3.301  19.485  0.00  0.00    +0.000 C 
ATOM     15  C   UNL     1       4.452   2.286  19.380  0.00  0.00    +0.000 C 
ATOM     16  C   UNL     1       2.195   3.198  20.149  0.00  0.00    +0.000 C 
ATOM     17  C   UNL     1       2.283   2.714  21.608  0.00  0.00    +0.000 C 
ATOM     18  C   UNL     1       1.651   4.658  20.060  0.00  0.00    +0.000 C 
ATOM     19  C   UNL     1       2.332   5.260  18.820  0.00  0.00    +0.000 C 
BRANCH  18  20
ATOM     20  O   UNL     1       1.987   5.490  21.188  0.00  0.00    +0.000 OA
ATOM     21  H   UNL     1       2.209   4.928  21.949  0.00  0.00    +0.000 HD
ENDBRANCH  18  20
BRANCH  19  22
ATOM     22  O   UNL     1       2.331   6.689  18.886  0.00  0.00    +0.000 OA
ATOM     23  H   UNL     1       1.420   6.947  19.141  0.00  0.00    +0.000 HD
ENDBRANCH  19  22
BRANCH  16  24
ATOM     24  C   UNL     1       1.299   2.243  19.322  0.00  0.00    +0.000 C 
BRANCH  24  25
ATOM     25  O   UNL     1      -0.062   2.656  19.375  0.00  0.00    +0.000 OA
ATOM     26  H   UNL     1      -0.108   3.547  18.985  0.00  0.00    +0.000 HD
ENDBRANCH  24  25
ENDBRANCH  16  24
ENDBRANCH   3  13
BRANCH   1  28
ATOM     27  C   UNL     1       5.218   3.339  13.184  0.00  0.00    +0.000 C 
ATOM     28  C   UNL     1       5.186   3.811  14.292  0.00  0.00    +0.000 C 
ENDBRANCH   1  28
TORSDOF 6
ENDMDL
MODEL 3
REMARK VINA RESULT:      -6.9      1.106      1.106
REMARK  Name = 
REMARK  7 active torsions:
REMARK  status: ('A' for Active; 'I' for Inactive)
REMARK    1  A    between atoms: C_2  and  C_3
REMARK    2  A    between atoms: N_5  and  C_6
REMARK    3  A    between atoms: C_9  and  C_10
REMARK    4  A    between atoms: C_9  and  C_11
REMARK    5  A    between atoms: C_11  and  O_12
REMARK    6  A    between atoms: C_13  and  O_14
REMARK    7  A    between atoms: C_15  and  O_16
REMARK                            x       y       z     vdW  Elec       q    Type
REMARK                         _______ _______ _______ _____ _____    ______ ____
ROOT
ATOM      1  C   UNL     1       6.546   6.020  17.335  0.00  0.00    +0.000 A 
ATOM      2  C   UNL     1       5.675   5.531  18.282  0.00  0.00    +0.000 A 
ATOM      3  N   UNL     1       5.037   4.438  17.740  0.00  0.00    +0.000 N 
ATOM      4  C   UNL     1       5.509   4.218  16.466  0.00  0.00    +0.000 A 
ATOM      5  N   UNL     1       5.111   3.234  15.639  0.00  0.00    +0.000 NA
ATOM      6  C   UNL     1       5.731   3.309  14.450  0.00  0.00    +0.000 A 
ATOM      7  N   UNL     1       6.658   4.198  14.043  0.00  0.00    +0.000 NA
ATOM      8  C   UNL     1       7.053   5.152  14.912  0.00  0.00    +0.000 A 
ATOM      9  N   UNL     1       8.040   6.024  14.488  0.00  0.00    +0.000 N 
ATOM     10  C   UNL     1       6.454   5.196  16.181  0.00  0.00    +0.000 A 
ATOM     11  H   UNL     1       8.166   6.029  13.485  0.00  0.00    +0.000 HD
ATOM     12  H   UNL     1       8.126   6.901  14.983  0.00  0.00    +0.000 HD
ENDROOT
BRANCH   3  13
ATOM     13  C   UNL     1       3.969   3.718  18.421  0.00  0.00    +0.000 C 
ATOM     14  C   UNL     1       2.649   4.451  18.590  0.00  0.00    +0.000 C 
ATOM     15  C   UNL     1       2.135   5.356  17.740  0.00  0.00    +0.000 C 
ATOM     16  C   UNL     1       2.012   4.047  19.928  0.00  0.00    +0.000 C 
ATOM     17  C   UNL     1       0.572   3.528  19.756  0.00  0.00    +0.000 C 
ATOM     18  C   UNL     1       2.966   2.929  20.452  0.00  0.00    +0.000 C 
ATOM     19  C   UNL     1       4.338   3.261  19.840  0.00  0.00    +0.000 C 
BRANCH  18  20
ATOM     20  O   UNL     1       2.614   1.597  20.030  0.00  0.00    +0.000 OA
ATOM     21  H   UNL     1       1.655   1.469  20.132  0.00  0.00    +0.000 HD
ENDBRANCH  18  20
BRANCH  19  22
ATOM     22  O   UNL     1       5.174   2.101  19.812  0.00  0.00    +0.000 OA
ATOM     23  H   UNL     1       4.569   1.331  19.842  0.00  0.00    +0.000 HD
ENDBRANCH  19  22
BRANCH  16  24
ATOM     24  C   UNL     1       2.031   5.260  20.891  0.00  0.00    +0.000 C 
BRANCH  24  25
ATOM     25  O   UNL     1       2.898   6.278  20.403  0.00  0.00    +0.000 OA
ATOM     26  H   UNL     1       2.462   7.132  20.570  0.00  0.00    +0.000 HD
ENDBRANCH  24  25
ENDBRANCH  16  24
ENDBRANCH   3  13
BRANCH   1  28
ATOM     27  C   UNL     1       8.027   8.158  17.703  0.00  0.00    +0.000 C 
ATOM     28  C   UNL     1       7.350   7.177  17.523  0.00  0.00    +0.000 C 
ENDBRANCH   1  28
TORSDOF 6
ENDMDL
MODEL 4
REMARK VINA RESULT:      -6.8      1.563      2.501
REMARK  Name = 
REMARK  7 active torsions:
REMARK  status: ('A' for Active; 'I' for Inactive)
REMARK    1  A    between atoms: C_2  and  C_3
REMARK    2  A    between atoms: N_5  and  C_6
REMARK    3  A    between atoms: C_9  and  C_10
REMARK    4  A    between atoms: C_9  and  C_11
REMARK    5  A    between atoms: C_11  and  O_12
REMARK    6  A    between atoms: C_13  and  O_14
REMARK    7  A    between atoms: C_15  and  O_16
REMARK                            x       y       z     vdW  Elec       q    Type
REMARK                         _______ _______ _______ _____ _____    ______ ____
ROOT
ATOM      1  C   UNL     1       6.474   6.428  17.687  0.00  0.00    +0.000 A 
ATOM      2  C   UNL     1       5.601   6.297  18.743  0.00  0.00    +0.000 A 
ATOM      3  N   UNL     1       4.766   5.238  18.469  0.00  0.00    +0.000 N 
ATOM      4  C   UNL     1       5.113   4.684  17.258  0.00  0.00    +0.000 A 
ATOM      5  N   UNL     1       4.512   3.630  16.674  0.00  0.00    +0.000 NA
ATOM      6  C   UNL     1       5.058   3.354  15.479  0.00  0.00    +0.000 A 
ATOM      7  N   UNL     1       6.084   3.972  14.862  0.00  0.00    +0.000 NA
ATOM      8  C   UNL     1       6.679   5.005  15.492  0.00  0.00    +0.000 A 
ATOM      9  N   UNL     1       7.760   5.594  14.861  0.00  0.00    +0.000 N 
ATOM     10  C   UNL     1       6.179   5.410  16.741  0.00  0.00    +0.000 A 
ATOM     11  H   UNL     1       7.820   5.370  13.877  0.00  0.00    +0.000 HD
ATOM     12  H   UNL     1       8.014   6.527  15.153  0.00  0.00    +0.000 HD
ENDROOT
BRANCH   3  13
ATOM     13  C   UNL     1       3.645   4.862  19.321  0.00  0.00    +0.000 C 
ATOM     14  C   UNL     1       3.554   3.401  19.729  0.00  0.00    +0.000 C 
ATOM     15  C   UNL     1       4.594   2.573  19.930  0.00  0.00    +0.000 C 
ATOM     16  C   UNL     1       2.078   2.988  19.814  0.00  0.00    +0.000 C 
ATOM     17  C   UNL     1       1.722   2.371  21.179  0.00  0.00    +0.000 C 
ATOM     18  C   UNL     1       1.321   4.332  19.577  0.00  0.00    +0.000 C 
ATOM     19  C   UNL     1       2.272   5.175  18.710  0.00  0.00    +0.000 C 
BRANCH  18  20
ATOM     20  O   UNL     1       1.045   5.082  20.776  0.00  0.00    +0.000 OA
ATOM     21  H   UNL     1       0.293   4.680  21.243  0.00  0.00    +0.000 HD
ENDBRANCH  18  20
BRANCH  19  22
ATOM     22  O   UNL     1       1.957   6.566  18.821  0.00  0.00    +0.000 OA
ATOM     23  H   UNL     1       1.687   6.709  19.752  0.00  0.00    +0.000 HD
ENDBRANCH  19  22
BRANCH  16  24
ATOM     24  C   UNL     1       1.759   1.988  18.675  0.00  0.00    +0.000 C 
BRANCH  24  25
ATOM     25  O   UNL     1       0.358   1.930  18.432  0.00  0.00    +0.000 OA
ATOM     26  H   UNL     1       0.237   1.832  17.471  0.00  0.00    +0.000 HD
ENDBRANCH  24  25
ENDBRANCH  16  24
ENDBRANCH   3  13
BRANCH   1  28
ATOM     27  C   UNL     1       8.282   8.326  17.535  0.00  0.00    +0.000 C 
ATOM     28  C   UNL     1       7.459   7.449  17.598  0.00  0.00    +0.000 C 
ENDBRANCH   1  28
TORSDOF 6
ENDMDL
MODEL 5
REMARK VINA RESULT:      -6.7      1.498      2.915
REMARK  Name = 
REMARK  7 active torsions:
REMARK  status: ('A' for Active; 'I' for Inactive)
REMARK    1  A    between atoms: C_2  and  C_3
REMARK    2  A    between atoms: N_5  and  C_6
REMARK    3  A    between atoms: C_9  and  C_10
REMARK    4  A    between atoms: C_9  and  C_11
REMARK    5  A    between atoms: C_11  and  O_12
REMARK    6  A    between atoms: C_13  and  O_14
REMARK    7  A    between atoms: C_15  and  O_16
REMARK                            x       y       z     vdW  Elec       q    Type
REMARK                         _______ _______ _______ _____ _____    ______ ____
ROOT
ATOM      1  C   UNL     1       5.370   3.957  15.112  0.00  0.00    +0.000 A 
ATOM      2  C   UNL     1       4.374   3.372  15.860  0.00  0.00    +0.000 A 
ATOM      3  N   UNL     1       4.471   3.861  17.143  0.00  0.00    +0.000 N 
ATOM      4  C   UNL     1       5.505   4.765  17.211  0.00  0.00    +0.000 A 
ATOM      5  N   UNL     1       5.888   5.441  18.310  0.00  0.00    +0.000 NA
ATOM      6  C   UNL     1       6.954   6.220  18.063  0.00  0.00    +0.000 A 
ATOM      7  N   UNL     1       7.617   6.389  16.902  0.00  0.00    +0.000 NA
ATOM      8  C   UNL     1       7.185   5.716  15.816  0.00  0.00    +0.000 A 
ATOM      9  N   UNL     1       7.852   5.942  14.625  0.00  0.00    +0.000 N 
ATOM     10  C   UNL     1       6.092   4.845  15.954  0.00  0.00    +0.000 A 
ATOM     11  H   UNL     1       8.758   6.375  14.750  0.00  0.00    +0.000 HD
ATOM     12  H   UNL     1       7.752   5.246  13.900  0.00  0.00    +0.000 HD
ENDROOT
BRANCH   3  13
ATOM     13  C   UNL     1       3.637   3.390  18.242  0.00  0.00    +0.000 C 
ATOM     14  C   UNL     1       2.308   4.097  18.445  0.00  0.00    +0.000 C 
ATOM     15  C   UNL     1       1.546   4.637  17.477  0.00  0.00    +0.000 C 
ATOM     16  C   UNL     1       1.991   4.163  19.946  0.00  0.00    +0.000 C 
ATOM     17  C   UNL     1       0.607   3.574  20.277  0.00  0.00    +0.000 C 
ATOM     18  C   UNL     1       3.140   3.325  20.587  0.00  0.00    +0.000 C 
ATOM     19  C   UNL     1       4.323   3.464  19.614  0.00  0.00    +0.000 C 
BRANCH  18  20
ATOM     20  O   UNL     1       2.851   1.919  20.720  0.00  0.00    +0.000 OA
ATOM     21  H   UNL     1       3.582   1.402  20.341  0.00  0.00    +0.000 HD
ENDBRANCH  18  20
BRANCH  19  22
ATOM     22  O   UNL     1       5.252   2.391  19.790  0.00  0.00    +0.000 OA
ATOM     23  H   UNL     1       6.130   2.751  19.546  0.00  0.00    +0.000 HD
ENDBRANCH  19  22
BRANCH  16  24
ATOM     24  C   UNL     1       2.074   5.635  20.422  0.00  0.00    +0.000 C 
BRANCH  24  25
ATOM     25  O   UNL     1       3.299   6.230  20.009  0.00  0.00    +0.000 OA
ATOM     26  H   UNL     1       3.244   6.364  19.047  0.00  0.00    +0.000 HD
ENDBRANCH  24  25
ENDBRANCH  16  24
ENDBRANCH   3  13
BRANCH   1  28
ATOM     27  C   UNL     1       5.834   3.407  12.586  0.00  0.00    +0.000 C 
ATOM     28  C   UNL     1       5.610   3.659  13.743  0.00  0.00    +0.000 C 
ENDBRANCH   1  28
TORSDOF 6
ENDMDL
MODEL 6
REMARK VINA RESULT:      -6.7      1.143      2.626
REMARK  Name = 
REMARK  7 active torsions:
REMARK  status: ('A' for Active; 'I' for Inactive)
REMARK    1  A    between atoms: C_2  and  C_3
REMARK    2  A    between atoms: N_5  and  C_6
REMARK    3  A    between atoms: C_9  and  C_10
REMARK    4  A    between atoms: C_9  and  C_11
REMARK    5  A    between atoms: C_11  and  O_12
REMARK    6  A    between atoms: C_13  and  O_14
REMARK    7  A    between atoms: C_15  and  O_16
REMARK                            x       y       z     vdW  Elec       q    Type
REMARK                         _______ _______ _______ _____ _____    ______ ____
ROOT
ATOM      1  C   UNL     1       5.501   4.075  15.172  0.00  0.00    +0.000 A 
ATOM      2  C   UNL     1       4.350   3.448  15.593  0.00  0.00    +0.000 A 
ATOM      3  N   UNL     1       4.191   3.719  16.934  0.00  0.00    +0.000 N 
ATOM      4  C   UNL     1       5.219   4.528  17.362  0.00  0.00    +0.000 A 
ATOM      5  N   UNL     1       5.385   4.992  18.614  0.00  0.00    +0.000 NA
ATOM      6  C   UNL     1       6.505   5.725  18.722  0.00  0.00    +0.000 A 
ATOM      7  N   UNL     1       7.403   6.031  17.765  0.00  0.00    +0.000 NA
ATOM      8  C   UNL     1       7.186   5.571  16.516  0.00  0.00    +0.000 A 
ATOM      9  N   UNL     1       8.095   5.937  15.540  0.00  0.00    +0.000 N 
ATOM     10  C   UNL     1       6.059   4.766  16.281  0.00  0.00    +0.000 A 
ATOM     11  H   UNL     1       8.969   6.281  15.916  0.00  0.00    +0.000 HD
ATOM     12  H   UNL     1       8.126   5.374  14.702  0.00  0.00    +0.000 HD
ENDROOT
BRANCH   3  13
ATOM     13  C   UNL     1       3.130   3.138  17.746  0.00  0.00    +0.000 C 
ATOM     14  C   UNL     1       2.242   4.107  18.508  0.00  0.00    +0.000 C 
ATOM     15  C   UNL     1       1.903   5.345  18.110  0.00  0.00    +0.000 C 
ATOM     16  C   UNL     1       1.840   3.479  19.851  0.00  0.00    +0.000 C 
ATOM     17  C   UNL     1       0.313   3.460  20.051  0.00  0.00    +0.000 C 
ATOM     18  C   UNL     1       2.423   2.035  19.754  0.00  0.00    +0.000 C 
ATOM     19  C   UNL     1       3.636   2.159  18.815  0.00  0.00    +0.000 C 
BRANCH  18  20
ATOM     20  O   UNL     1       1.526   1.065  19.179  0.00  0.00    +0.000 OA
ATOM     21  H   UNL     1       1.782   0.174  19.473  0.00  0.00    +0.000 HD
ENDBRANCH  18  20
BRANCH  19  22
ATOM     22  O   UNL     1       3.966   0.890  18.245  0.00  0.00    +0.000 OA
ATOM     23  H   UNL     1       3.834   0.231  18.959  0.00  0.00    +0.000 HD
ENDBRANCH  19  22
BRANCH  16  24
ATOM     24  C   UNL     1       2.522   4.255  21.004  0.00  0.00    +0.000 C 
BRANCH  24  25
ATOM     25  O   UNL     1       2.442   3.522  22.221  0.00  0.00    +0.000 OA
ATOM     26  H   UNL     1       2.901   4.044  22.903  0.00  0.00    +0.000 HD
ENDBRANCH  24  25
ENDBRANCH  16  24
ENDBRANCH   3  13
BRANCH   1  28
ATOM     27  C   UNL     1       6.435   3.887  12.725  0.00  0.00    +0.000 C 
ATOM     28  C   UNL     1       6.012   3.983  13.849  0.00  0.00    +0.000 C 
ENDBRANCH   1  28
TORSDOF 6
ENDMDL
MODEL 7
REMARK VINA RESULT:      -6.5      4.153      6.229
REMARK  Name = 
REMARK  7 active torsions:
REMARK  status: ('A' for Active; 'I' for Inactive)
REMARK    1  A    between atoms: C_2  and  C_3
REMARK    2  A    between atoms: N_5  and  C_6
REMARK    3  A    between atoms: C_9  and  C_10
REMARK    4  A    between atoms: C_9  and  C_11
REMARK    5  A    between atoms: C_11  and  O_12
REMARK    6  A    between atoms: C_13  and  O_14
REMARK    7  A    between atoms: C_15  and  O_16
REMARK                            x       y       z     vdW  Elec       q    Type
REMARK                         _______ _______ _______ _____ _____    ______ ____
ROOT
ATOM      1  C   UNL     1       2.388   4.630  20.388  0.00  0.00    +0.000 A 
ATOM      2  C   UNL     1       1.793   5.868  20.296  0.00  0.00    +0.000 A 
ATOM      3  N   UNL     1       2.610   6.671  19.532  0.00  0.00    +0.000 N 
ATOM      4  C   UNL     1       3.707   5.948  19.122  0.00  0.00    +0.000 A 
ATOM      5  N   UNL     1       4.714   6.412  18.359  0.00  0.00    +0.000 NA
ATOM      6  C   UNL     1       5.655   5.474  18.164  0.00  0.00    +0.000 A 
ATOM      7  N   UNL     1       5.678   4.202  18.611  0.00  0.00    +0.000 NA
ATOM      8  C   UNL     1       4.636   3.767  19.348  0.00  0.00    +0.000 A 
ATOM      9  N   UNL     1       4.659   2.445  19.756  0.00  0.00    +0.000 N 
ATOM     10  C   UNL     1       3.599   4.665  19.646  0.00  0.00    +0.000 A 
ATOM     11  H   UNL     1       5.575   2.022  19.693  0.00  0.00    +0.000 HD
ATOM     12  H   UNL     1       4.070   2.191  20.537  0.00  0.00    +0.000 HD
ENDROOT
BRANCH   3  13
ATOM     13  C   UNL     1       2.350   8.086  19.301  0.00  0.00    +0.000 C 
ATOM     14  C   UNL     1       1.431   8.784  20.289  0.00  0.00    +0.000 C 
ATOM     15  C   UNL     1       1.313   8.493  21.597  0.00  0.00    +0.000 C 
ATOM     16  C   UNL     1       0.597   9.839  19.549  0.00  0.00    +0.000 C 
ATOM     17  C   UNL     1       0.722  11.235  20.188  0.00  0.00    +0.000 C 
ATOM     18  C   UNL     1       1.192   9.813  18.107  0.00  0.00    +0.000 C 
ATOM     19  C   UNL     1       1.733   8.384  17.927  0.00  0.00    +0.000 C 
BRANCH  18  20
ATOM     20  O   UNL     1       2.291  10.722  17.898  0.00  0.00    +0.000 OA
ATOM     21  H   UNL     1       2.756  10.866  18.740  0.00  0.00    +0.000 HD
ENDBRANCH  18  20
BRANCH  19  22
ATOM     22  O   UNL     1       2.719   8.343  16.892  0.00  0.00    +0.000 OA
ATOM     23  H   UNL     1       3.211   7.505  17.021  0.00  0.00    +0.000 HD
ENDBRANCH  19  22
BRANCH  16  24
ATOM     24  C   UNL     1      -0.886   9.394  19.522  0.00  0.00    +0.000 C 
BRANCH  24  25
ATOM     25  O   UNL     1      -1.600  10.079  18.499  0.00  0.00    +0.000 OA
ATOM     26  H   UNL     1      -1.014  10.128  17.723  0.00  0.00    +0.000 HD
ENDBRANCH  24  25
ENDBRANCH  16  24
ENDBRANCH   3  13
BRANCH   1  28
ATOM     27  C   UNL     1       1.391   2.626  21.761  0.00  0.00    +0.000 C 
ATOM     28  C   UNL     1       1.852   3.550  21.141  0.00  0.00    +0.000 C 
ENDBRANCH   1  28
TORSDOF 6
ENDMDL
MODEL 8
REMARK VINA RESULT:      -6.1      8.940     11.440
REMARK  Name = 
REMARK  7 active torsions:
REMARK  status: ('A' for Active; 'I' for Inactive)
REMARK    1  A    between atoms: C_2  and  C_3
REMARK    2  A    between atoms: N_5  and  C_6
REMARK    3  A    between atoms: C_9  and  C_10
REMARK    4  A    between atoms: C_9  and  C_11
REMARK    5  A    between atoms: C_11  and  O_12
REMARK    6  A    between atoms: C_13  and  O_14
REMARK    7  A    between atoms: C_15  and  O_16
REMARK                            x       y       z     vdW  Elec       q    Type
REMARK                         _______ _______ _______ _____ _____    ______ ____
ROOT
ATOM      1  C   UNL     1      -3.199  11.032  16.943  0.00  0.00    +0.000 A 
ATOM      2  C   UNL     1      -1.944  10.950  17.501  0.00  0.00    +0.000 A 
ATOM      3  N   UNL     1      -1.997  11.538  18.744  0.00  0.00    +0.000 N 
ATOM      4  C   UNL     1      -3.278  11.975  18.989  0.00  0.00    +0.000 A 
ATOM      5  N   UNL     1      -3.698  12.596  20.106  0.00  0.00    +0.000 NA
ATOM      6  C   UNL     1      -4.996  12.931  20.025  0.00  0.00    +0.000 A 
ATOM      7  N   UNL     1      -5.859  12.706  19.015  0.00  0.00    +0.000 NA
ATOM      8  C   UNL     1      -5.407  12.055  17.924  0.00  0.00    +0.000 A 
ATOM      9  N   UNL     1      -6.322  11.793  16.919  0.00  0.00    +0.000 N 
ATOM     10  C   UNL     1      -4.056  11.676  17.876  0.00  0.00    +0.000 A 
ATOM     11  H   UNL     1      -7.162  12.354  16.987  0.00  0.00    +0.000 HD
ATOM     12  H   UNL     1      -5.955  11.593  16.000  0.00  0.00    +0.000 HD
ENDROOT
BRANCH   3  13
ATOM     13  C   UNL     1      -0.826  11.724  19.591  0.00  0.00    +0.000 C 
ATOM     14  C   UNL     1       0.130  12.840  19.203  0.00  0.00    +0.000 C 
ATOM     15  C   UNL     1      -0.210  13.999  18.613  0.00  0.00    +0.000 C 
ATOM     16  C   UNL     1       1.569  12.413  19.529  0.00  0.00    +0.000 C 
ATOM     17  C   UNL     1       2.293  13.438  20.422  0.00  0.00    +0.000 C 
ATOM     18  C   UNL     1       1.375  11.049  20.263  0.00  0.00    +0.000 C 
ATOM     19  C   UNL     1       0.065  10.477  19.696  0.00  0.00    +0.000 C 
BRANCH  18  20
ATOM     20  O   UNL     1       1.221  11.156  21.692  0.00  0.00    +0.000 OA
ATOM     21  H   UNL     1       0.496  11.772  21.893  0.00  0.00    +0.000 HD
ENDBRANCH  18  20
BRANCH  19  22
ATOM     22  O   UNL     1      -0.494   9.512  20.592  0.00  0.00    +0.000 OA
ATOM     23  H   UNL     1       0.179   8.806  20.683  0.00  0.00    +0.000 HD
ENDBRANCH  19  22
BRANCH  16  24
ATOM     24  C   UNL     1       2.352  12.204  18.210  0.00  0.00    +0.000 C 
BRANCH  24  25
ATOM     25  O   UNL     1       3.178  13.329  17.931  0.00  0.00    +0.000 OA
ATOM     26  H   UNL     1       2.709  13.875  17.276  0.00  0.00    +0.000 HD
ENDBRANCH  24  25
ENDBRANCH  16  24
ENDBRANCH   3  13
BRANCH   1  28
ATOM     27  C   UNL     1      -3.767  10.179  14.525  0.00  0.00    +0.000 C 
ATOM     28  C   UNL     1      -3.517  10.567  15.638  0.00  0.00    +0.000 C 
ENDBRANCH   1  28
TORSDOF 6
ENDMDL
MODEL 9
REMARK VINA RESULT:      -6.0      4.572      6.597
REMARK  Name = 
REMARK  7 active torsions:
REMARK  status: ('A' for Active; 'I' for Inactive)
REMARK    1  A    between atoms: C_2  and  C_3
REMARK    2  A    between atoms: N_5  and  C_6
REMARK    3  A    between atoms: C_9  and  C_10
REMARK    4  A    between atoms: C_9  and  C_11
REMARK    5  A    between atoms: C_11  and  O_12
REMARK    6  A    between atoms: C_13  and  O_14
REMARK    7  A    between atoms: C_15  and  O_16
REMARK                            x       y       z     vdW  Elec       q    Type
REMARK                         _______ _______ _______ _____ _____    ______ ____
ROOT
ATOM      1  C   UNL     1       3.661   6.627  17.958  0.00  0.00    +0.000 A 
ATOM      2  C   UNL     1       2.962   7.781  18.231  0.00  0.00    +0.000 A 
ATOM      3  N   UNL     1       2.173   7.543  19.334  0.00  0.00    +0.000 N 
ATOM      4  C   UNL     1       2.380   6.257  19.775  0.00  0.00    +0.000 A 
ATOM      5  N   UNL     1       1.778   5.681  20.832  0.00  0.00    +0.000 NA
ATOM      6  C   UNL     1       2.163   4.403  20.983  0.00  0.00    +0.000 A 
ATOM      7  N   UNL     1       3.043   3.700  20.243  0.00  0.00    +0.000 NA
ATOM      8  C   UNL     1       3.647   4.321  19.209  0.00  0.00    +0.000 A 
ATOM      9  N   UNL     1       4.581   3.594  18.493  0.00  0.00    +0.000 N 
ATOM     10  C   UNL     1       3.306   5.655  18.931  0.00  0.00    +0.000 A 
ATOM     11  H   UNL     1       4.514   2.596  18.645  0.00  0.00    +0.000 HD
ATOM     12  H   UNL     1       4.808   3.920  17.564  0.00  0.00    +0.000 HD
ENDROOT
BRANCH   3  13
ATOM     13  C   UNL     1       1.217   8.511  19.856  0.00  0.00    +0.000 C 
ATOM     14  C   UNL     1       0.695   9.553  18.880  0.00  0.00    +0.000 C 
ATOM     15  C   UNL     1       0.508   9.374  17.561  0.00  0.00    +0.000 C 
ATOM     16  C   UNL     1       0.475  10.879  19.623  0.00  0.00    +0.000 C 
ATOM     17  C   UNL     1      -0.955  11.420  19.438  0.00  0.00    +0.000 C 
ATOM     18  C   UNL     1       0.757  10.502  21.110  0.00  0.00    +0.000 C 
ATOM     19  C   UNL     1       1.750   9.329  21.041  0.00  0.00    +0.000 C 
BRANCH  18  20
ATOM     20  O   UNL     1      -0.399  10.049  21.842  0.00  0.00    +0.000 OA
ATOM     21  H   UNL     1      -1.085   9.762  21.216  0.00  0.00    +0.000 HD
ENDBRANCH  18  20
BRANCH  19  22
ATOM     22  O   UNL     1       1.722   8.570  22.253  0.00  0.00    +0.000 OA
ATOM     23  H   UNL     1       1.267   7.730  22.035  0.00  0.00    +0.000 HD
ENDBRANCH  19  22
BRANCH  16  24
ATOM     24  C   UNL     1       1.509  11.921  19.130  0.00  0.00    +0.000 C 
BRANCH  24  25
ATOM     25  O   UNL     1       0.924  12.798  18.173  0.00  0.00    +0.000 OA
ATOM     26  H   UNL     1       0.187  12.319  17.756  0.00  0.00    +0.000 HD
ENDBRANCH  24  25
ENDBRANCH  16  24
ENDBRANCH   3  13
BRANCH   1  28
ATOM     27  C   UNL     1       5.297   6.337  15.925  0.00  0.00    +0.000 C 
ATOM     28  C   UNL     1       4.548   6.482  16.857  0.00  0.00    +0.000 C 
ENDBRANCH   1  28
TORSDOF 6
ENDMDL
