MODEL 1
REMARK VINA RESULT:      -8.4      0.000      0.000
REMARK  Name = 
REMARK  5 active torsions:
REMARK  status: ('A' for Active; 'I' for Inactive)
REMARK    1  A    between atoms: N_1  and  C_2
REMARK    2  A    between atoms: N_5  and  C_6
REMARK    3  A    between atoms: C_6  and  C_7
REMARK    4  A    between atoms: C_11  and  C_12
REMARK    5  A    between atoms: C_15  and  C_16
REMARK                            x       y       z     vdW  Elec       q    Type
REMARK                         _______ _______ _______ _____ _____    ______ ____
ROOT
ATOM      1  C   UNL     1       4.606   5.150  16.965  0.00  0.00    +0.000 A 
ATOM      2  C   UNL     1       3.930   3.929  16.815  0.00  0.00    +0.000 A 
ATOM      3  C   UNL     1       2.692   3.721  17.420  0.00  0.00    +0.000 A 
ATOM      4  C   UNL     1       2.112   4.721  18.197  0.00  0.00    +0.000 A 
ATOM      5  C   UNL     1       2.774   5.947  18.382  0.00  0.00    +0.000 A 
ATOM      6  C   UNL     1       4.021   6.152  17.758  0.00  0.00    +0.000 A 
ENDROOT
BRANCH   5   7
ATOM      7  C   UNL     1       2.172   6.986  19.225  0.00  0.00    +0.000 A 
ATOM      8  C   UNL     1       1.789   6.765  20.538  0.00  0.00    +0.000 A 
ATOM      9  S   UNL     1       1.159   8.165  21.289  0.00  0.00    +0.000 S 
ATOM     10  C   UNL     1       1.321   9.093  19.858  0.00  0.00    +0.000 A 
ATOM     11  C   UNL     1       1.894   8.342  18.850  0.00  0.00    +0.000 A 
BRANCH  10  12
ATOM     12  C   UNL     1       0.852  10.448  19.793  0.00  0.00    +0.000 A 
ATOM     13  N   UNL     1       0.260  10.998  18.751  0.00  0.00    +0.000 NA
ATOM     14  C   UNL     1       0.175  12.336  19.036  0.00  0.00    +0.000 A 
ATOM     15  C   UNL     1      -0.301  13.389  18.244  0.00  0.00    +0.000 A 
ATOM     16  C   UNL     1      -0.206  14.695  18.739  0.00  0.00    +0.000 A 
ATOM     17  C   UNL     1       0.336  14.943  20.004  0.00  0.00    +0.000 A 
ATOM     18  C   UNL     1       0.784  13.899  20.823  0.00  0.00    +0.000 A 
ATOM     19  C   UNL     1       0.686  12.608  20.299  0.00  0.00    +0.000 A 
ATOM     20  N   UNL     1       1.032  11.375  20.794  0.00  0.00    +0.000 N 
ATOM     21  H   UNL     1       1.415  11.190  21.713  0.00  0.00    +0.000 HD
ENDBRANCH  10  12
ENDBRANCH   5   7
BRANCH   1  22
ATOM     22  C   UNL     1       5.860   5.397  16.147  0.00  0.00    +0.000 C 
BRANCH  22  26
ATOM     23  C   UNL     1       7.596   5.894  19.270  0.00  0.00    +0.000 C 
ATOM     24  C   UNL     1       8.113   7.098  18.505  0.00  0.00    +0.000 C 
ATOM     25  C   UNL     1       7.284   7.095  17.221  0.00  0.00    +0.000 C 
ATOM     26  N   UNL     1       7.107   5.674  16.885  0.00  0.00    +0.000 NA
ATOM     27  C   UNL     1       7.059   4.952  18.181  0.00  0.00    +0.000 C 
BRANCH  23  28
ATOM     28  N   UNL     1       8.578   5.245  20.135  0.00  0.00    +0.000 NA
ATOM     29  H   UNL     1       8.352   5.417  21.113  0.00  0.00    +0.000 HD
ATOM     30  H   UNL     1       9.509   5.631  19.984  0.00  0.00    +0.000 HD
ENDBRANCH  23  28
ENDBRANCH  22  26
ENDBRANCH   1  22
TORSDOF 5
ENDMDL
MODEL 2
REMARK VINA RESULT:      -8.2      0.696      1.052
REMARK  Name = 
REMARK  5 active torsions:
REMARK  status: ('A' for Active; 'I' for Inactive)
REMARK    1  A    between atoms: N_1  and  C_2
REMARK    2  A    between atoms: N_5  and  C_6
REMARK    3  A    between atoms: C_6  and  C_7
REMARK    4  A    between atoms: C_11  and  C_12
REMARK    5  A    between atoms: C_15  and  C_16
REMARK                            x       y       z     vdW  Elec       q    Type
REMARK                         _______ _______ _______ _____ _____    ______ ____
ROOT
ATOM      1  C   UNL     1       4.830   4.967  16.837  0.00  0.00    +0.000 A 
ATOM      2  C   UNL     1       4.145   3.768  16.587  0.00  0.00    +0.000 A 
ATOM      3  C   UNL     1       2.876   3.548  17.119  0.00  0.00    +0.000 A 
ATOM      4  C   UNL     1       2.272   4.515  17.921  0.00  0.00    +0.000 A 
ATOM      5  C   UNL     1       2.942   5.717  18.205  0.00  0.00    +0.000 A 
ATOM      6  C   UNL     1       4.222   5.934  17.655  0.00  0.00    +0.000 A 
ENDROOT
BRANCH   5   7
ATOM      7  C   UNL     1       2.314   6.719  19.074  0.00  0.00    +0.000 A 
ATOM      8  C   UNL     1       1.817   6.422  20.333  0.00  0.00    +0.000 A 
ATOM      9  S   UNL     1       1.183   7.792  21.135  0.00  0.00    +0.000 S 
ATOM     10  C   UNL     1       1.498   8.811  19.795  0.00  0.00    +0.000 A 
ATOM     11  C   UNL     1       2.122   8.110  18.781  0.00  0.00    +0.000 A 
BRANCH  10  12
ATOM     12  C   UNL     1       1.089  10.187  19.795  0.00  0.00    +0.000 A 
ATOM     13  N   UNL     1       0.205  10.717  20.618  0.00  0.00    +0.000 NA
ATOM     14  C   UNL     1      -0.039  11.978  20.138  0.00  0.00    +0.000 A 
ATOM     15  C   UNL     1      -0.947  12.945  20.590  0.00  0.00    +0.000 A 
ATOM     16  C   UNL     1      -1.065  14.140  19.871  0.00  0.00    +0.000 A 
ATOM     17  C   UNL     1      -0.283  14.372  18.737  0.00  0.00    +0.000 A 
ATOM     18  C   UNL     1       0.655  13.432  18.291  0.00  0.00    +0.000 A 
ATOM     19  C   UNL     1       0.744  12.245  19.022  0.00  0.00    +0.000 A 
ATOM     20  N   UNL     1       1.515  11.118  18.876  0.00  0.00    +0.000 N 
ATOM     21  H   UNL     1       2.228  10.974  18.172  0.00  0.00    +0.000 HD
ENDBRANCH  10  12
ENDBRANCH   5   7
BRANCH   1  22
ATOM     22  C   UNL     1       6.127   5.236  16.095  0.00  0.00    +0.000 C 
BRANCH  22  26
ATOM     23  C   UNL     1       7.644   5.837  19.313  0.00  0.00    +0.000 C 
ATOM     24  C   UNL     1       8.113   7.081  18.582  0.00  0.00    +0.000 C 
ATOM     25  C   UNL     1       7.359   7.027  17.253  0.00  0.00    +0.000 C 
ATOM     26  N   UNL     1       7.306   5.599  16.903  0.00  0.00    +0.000 NA
ATOM     27  C   UNL     1       7.240   4.866  18.192  0.00  0.00    +0.000 C 
BRANCH  23  28
ATOM     28  N   UNL     1       8.622   5.255  20.229  0.00  0.00    +0.000 NA
ATOM     29  H   UNL     1       8.259   4.389  20.625  0.00  0.00    +0.000 HD
ATOM     30  H   UNL     1       8.800   5.877  21.016  0.00  0.00    +0.000 HD
ENDBRANCH  23  28
ENDBRANCH  22  26
ENDBRANCH   1  22
TORSDOF 5
ENDMDL
MODEL 3
REMARK VINA RESULT:      -8.1      2.080      3.150
REMARK  Name = 
REMARK  5 active torsions:
REMARK  status: ('A' for Active; 'I' for Inactive)
REMARK    1  A    between atoms: N_1  and  C_2
REMARK    2  A    between atoms: N_5  and  C_6
REMARK    3  A    between atoms: C_6  and  C_7
REMARK    4  A    between atoms: C_11  and  C_12
REMARK    5  A    between atoms: C_15  and  C_16
REMARK                            x       y       z     vdW  Elec       q    Type
REMARK                         _______ _______ _______ _____ _____    ______ ____
ROOT
ATOM      1  C   UNL     1       3.981   4.619  19.458  0.00  0.00    +0.000 A 
ATOM      2  C   UNL     1       3.217   3.809  20.314  0.00  0.00    +0.000 A 
ATOM      3  C   UNL     1       2.040   4.287  20.885  0.00  0.00    +0.000 A 
ATOM      4  C   UNL     1       1.608   5.586  20.624  0.00  0.00    +0.000 A 
ATOM      5  C   UNL     1       2.362   6.427  19.788  0.00  0.00    +0.000 A 
ATOM      6  C   UNL     1       3.547   5.931  19.207  0.00  0.00    +0.000 A 
ENDROOT
BRANCH   5   7
ATOM      7  C   UNL     1       1.919   7.804  19.540  0.00  0.00    +0.000 A 
ATOM      8  C   UNL     1       2.107   8.453  18.331  0.00  0.00    +0.000 A 
ATOM      9  S   UNL     1       1.451  10.030  18.315  0.00  0.00    +0.000 S 
ATOM     10  C   UNL     1       0.950   9.915  19.950  0.00  0.00    +0.000 A 
ATOM     11  C   UNL     1       1.244   8.668  20.466  0.00  0.00    +0.000 A 
BRANCH  10  12
ATOM     12  C   UNL     1       0.356  11.034  20.626  0.00  0.00    +0.000 A 
ATOM     13  N   UNL     1       0.777  12.281  20.546  0.00  0.00    +0.000 NA
ATOM     14  C   UNL     1       0.072  12.972  21.497  0.00  0.00    +0.000 A 
ATOM     15  C   UNL     1       0.177  14.314  21.886  0.00  0.00    +0.000 A 
ATOM     16  C   UNL     1      -0.610  14.765  22.952  0.00  0.00    +0.000 A 
ATOM     17  C   UNL     1      -1.494  13.901  23.604  0.00  0.00    +0.000 A 
ATOM     18  C   UNL     1      -1.637  12.566  23.206  0.00  0.00    +0.000 A 
ATOM     19  C   UNL     1      -0.832  12.141  22.147  0.00  0.00    +0.000 A 
ATOM     20  N   UNL     1      -0.691  10.931  21.513  0.00  0.00    +0.000 N 
ATOM     21  H   UNL     1      -1.220  10.091  21.712  0.00  0.00    +0.000 HD
ENDBRANCH  10  12
ENDBRANCH   5   7
BRANCH   1  22
ATOM     22  C   UNL     1       5.154   4.001  18.721  0.00  0.00    +0.000 C 
BRANCH  22  26
ATOM     23  C   UNL     1       6.096   3.804  15.244  0.00  0.00    +0.000 C 
ATOM     24  C   UNL     1       7.250   4.640  15.765  0.00  0.00    +0.000 C 
ATOM     25  C   UNL     1       7.054   4.622  17.282  0.00  0.00    +0.000 C 
ATOM     26  N   UNL     1       5.596   4.661  17.478  0.00  0.00    +0.000 NA
ATOM     27  C   UNL     1       5.011   3.937  16.322  0.00  0.00    +0.000 C 
BRANCH  23  28
ATOM     28  N   UNL     1       5.613   4.181  13.917  0.00  0.00    +0.000 NA
ATOM     29  H   UNL     1       6.363   4.093  13.233  0.00  0.00    +0.000 HD
ATOM     30  H   UNL     1       5.322   5.157  13.898  0.00  0.00    +0.000 HD
ENDBRANCH  23  28
ENDBRANCH  22  26
ENDBRANCH   1  22
TORSDOF 5
ENDMDL
MODEL 4
REMARK VINA RESULT:      -8.0      1.917      2.434
REMARK  Name = 
REMARK  5 active torsions:
REMARK  status: ('A' for Active; 'I' for Inactive)
REMARK    1  A    between atoms: N_1  and  C_2
REMARK    2  A    between atoms: N_5  and  C_6
REMARK    3  A    between atoms: C_6  and  C_7
REMARK    4  A    between atoms: C_11  and  C_12
REMARK    5  A    between atoms: C_15  and  C_16
REMARK                            x       y       z     vdW  Elec       q    Type
REMARK                         _______ _______ _______ _____ _____    ______ ____
ROOT
ATOM      1  C   UNL     1       4.308   4.412  17.200  0.00  0.00    +0.000 A 
ATOM      2  C   UNL     1       3.366   3.393  17.410  0.00  0.00    +0.000 A 
ATOM      3  C   UNL     1       2.074   3.693  17.836  0.00  0.00    +0.000 A 
ATOM      4  C   UNL     1       1.701   5.014  18.075  0.00  0.00    +0.000 A 
ATOM      5  C   UNL     1       2.628   6.055  17.894  0.00  0.00    +0.000 A 
ATOM      6  C   UNL     1       3.930   5.741  17.453  0.00  0.00    +0.000 A 
ENDROOT
BRANCH   5   7
ATOM      7  C   UNL     1       2.240   7.441  18.175  0.00  0.00    +0.000 A 
ATOM      8  C   UNL     1       2.609   8.507  17.371  0.00  0.00    +0.000 A 
ATOM      9  S   UNL     1       1.978   9.999  17.916  0.00  0.00    +0.000 S 
ATOM     10  C   UNL     1       1.243   9.270  19.281  0.00  0.00    +0.000 A 
ATOM     11  C   UNL     1       1.446   7.904  19.277  0.00  0.00    +0.000 A 
BRANCH  10  12
ATOM     12  C   UNL     1       0.568  10.060  20.272  0.00  0.00    +0.000 A 
ATOM     13  N   UNL     1       0.243   9.646  21.481  0.00  0.00    +0.000 NA
ATOM     14  C   UNL     1      -0.559  10.626  22.005  0.00  0.00    +0.000 A 
ATOM     15  C   UNL     1      -1.238  10.663  23.231  0.00  0.00    +0.000 A 
ATOM     16  C   UNL     1      -2.070  11.756  23.502  0.00  0.00    +0.000 A 
ATOM     17  C   UNL     1      -2.209  12.796  22.578  0.00  0.00    +0.000 A 
ATOM     18  C   UNL     1      -1.512  12.791  21.364  0.00  0.00    +0.000 A 
ATOM     19  C   UNL     1      -0.697  11.684  21.116  0.00  0.00    +0.000 A 
ATOM     20  N   UNL     1       0.101  11.336  20.055  0.00  0.00    +0.000 N 
ATOM     21  H   UNL     1       0.265  11.894  19.226  0.00  0.00    +0.000 HD
ENDBRANCH  10  12
ENDBRANCH   5   7
BRANCH   1  22
ATOM     22  C   UNL     1       5.641   4.057  16.568  0.00  0.00    +0.000 C 
BRANCH  22  26
ATOM     23  C   UNL     1       7.242   5.724  19.338  0.00  0.00    +0.000 C 
ATOM     24  C   UNL     1       7.811   6.542  18.194  0.00  0.00    +0.000 C 
ATOM     25  C   UNL     1       7.041   6.042  16.972  0.00  0.00    +0.000 C 
ATOM     26  N   UNL     1       6.857   4.601  17.201  0.00  0.00    +0.000 NA
ATOM     27  C   UNL     1       6.741   4.434  18.671  0.00  0.00    +0.000 C 
BRANCH  23  28
ATOM     28  N   UNL     1       8.174   5.461  20.431  0.00  0.00    +0.000 NA
ATOM     29  H   UNL     1       8.980   4.942  20.087  0.00  0.00    +0.000 HD
ATOM     30  H   UNL     1       7.743   4.878  21.147  0.00  0.00    +0.000 HD
ENDBRANCH  23  28
ENDBRANCH  22  26
ENDBRANCH   1  22
TORSDOF 5
ENDMDL
MODEL 5
REMARK VINA RESULT:      -8.0      2.245      3.301
REMARK  Name = 
REMARK  5 active torsions:
REMARK  status: ('A' for Active; 'I' for Inactive)
REMARK    1  A    between atoms: N_1  and  C_2
REMARK    2  A    between atoms: N_5  and  C_6
REMARK    3  A    between atoms: C_6  and  C_7
REMARK    4  A    between atoms: C_11  and  C_12
REMARK    5  A    between atoms: C_15  and  C_16
REMARK                            x       y       z     vdW  Elec       q    Type
REMARK                         _______ _______ _______ _____ _____    ______ ____
ROOT
ATOM      1  C   UNL     1       3.943   4.636  19.517  0.00  0.00    +0.000 A 
ATOM      2  C   UNL     1       3.209   3.846  20.417  0.00  0.00    +0.000 A 
ATOM      3  C   UNL     1       2.043   4.332  21.005  0.00  0.00    +0.000 A 
ATOM      4  C   UNL     1       1.595   5.620  20.718  0.00  0.00    +0.000 A 
ATOM      5  C   UNL     1       2.319   6.442  19.838  0.00  0.00    +0.000 A 
ATOM      6  C   UNL     1       3.492   5.937  19.240  0.00  0.00    +0.000 A 
ENDROOT
BRANCH   5   7
ATOM      7  C   UNL     1       1.858   7.807  19.562  0.00  0.00    +0.000 A 
ATOM      8  C   UNL     1       2.188   8.497  18.407  0.00  0.00    +0.000 A 
ATOM      9  S   UNL     1       1.475  10.048  18.335  0.00  0.00    +0.000 S 
ATOM     10  C   UNL     1       0.754   9.867  19.878  0.00  0.00    +0.000 A 
ATOM     11  C   UNL     1       1.024   8.618  20.402  0.00  0.00    +0.000 A 
BRANCH  10  12
ATOM     12  C   UNL     1       0.025  10.942  20.489  0.00  0.00    +0.000 A 
ATOM     13  N   UNL     1       0.206  11.381  21.719  0.00  0.00    +0.000 NA
ATOM     14  C   UNL     1      -0.824  12.253  21.958  0.00  0.00    +0.000 A 
ATOM     15  C   UNL     1      -1.153  12.947  23.130  0.00  0.00    +0.000 A 
ATOM     16  C   UNL     1      -2.317  13.725  23.143  0.00  0.00    +0.000 A 
ATOM     17  C   UNL     1      -3.126  13.821  22.007  0.00  0.00    +0.000 A 
ATOM     18  C   UNL     1      -2.794  13.162  20.816  0.00  0.00    +0.000 A 
ATOM     19  C   UNL     1      -1.633  12.386  20.836  0.00  0.00    +0.000 A 
ATOM     20  N   UNL     1      -1.020  11.605  19.887  0.00  0.00    +0.000 N 
ATOM     21  H   UNL     1      -1.324  11.487  18.928  0.00  0.00    +0.000 HD
ENDBRANCH  10  12
ENDBRANCH   5   7
BRANCH   1  22
ATOM     22  C   UNL     1       5.101   4.005  18.767  0.00  0.00    +0.000 C 
BRANCH  22  26
ATOM     23  C   UNL     1       6.114   3.815  15.310  0.00  0.00    +0.000 C 
ATOM     24  C   UNL     1       7.234   4.686  15.848  0.00  0.00    +0.000 C 
ATOM     25  C   UNL     1       7.010   4.671  17.361  0.00  0.00    +0.000 C 
ATOM     26  N   UNL     1       5.549   4.670  17.529  0.00  0.00    +0.000 NA
ATOM     27  C   UNL     1       5.005   3.923  16.367  0.00  0.00    +0.000 C 
BRANCH  23  28
ATOM     28  N   UNL     1       5.647   4.170  13.973  0.00  0.00    +0.000 NA
ATOM     29  H   UNL     1       5.118   5.041  14.006  0.00  0.00    +0.000 HD
ATOM     30  H   UNL     1       5.010   3.463  13.608  0.00  0.00    +0.000 HD
ENDBRANCH  23  28
ENDBRANCH  22  26
ENDBRANCH   1  22
TORSDOF 5
ENDMDL
MODEL 6
REMARK VINA RESULT:      -7.9      2.384      9.161
REMARK  Name = 
REMARK  5 active torsions:
REMARK  status: ('A' for Active; 'I' for Inactive)
REMARK    1  A    between atoms: N_1  and  C_2
REMARK    2  A    between atoms: N_5  and  C_6
REMARK    3  A    between atoms: C_6  and  C_7
REMARK    4  A    between atoms: C_11  and  C_12
REMARK    5  A    between atoms: C_15  and  C_16
REMARK                            x       y       z     vdW  Elec       q    Type
REMARK                         _______ _______ _______ _____ _____    ______ ____
ROOT
ATOM      1  C   UNL     1       1.133   9.606  19.148  0.00  0.00    +0.000 A 
ATOM      2  C   UNL     1       0.566   9.429  20.419  0.00  0.00    +0.000 A 
ATOM      3  C   UNL     1       0.865   8.303  21.184  0.00  0.00    +0.000 A 
ATOM      4  C   UNL     1       1.725   7.325  20.688  0.00  0.00    +0.000 A 
ATOM      5  C   UNL     1       2.293   7.464  19.410  0.00  0.00    +0.000 A 
ATOM      6  C   UNL     1       1.991   8.612  18.649  0.00  0.00    +0.000 A 
ENDROOT
BRANCH   5   7
ATOM      7  C   UNL     1       3.174   6.418  18.881  0.00  0.00    +0.000 A 
ATOM      8  C   UNL     1       3.552   5.306  19.615  0.00  0.00    +0.000 A 
ATOM      9  S   UNL     1       4.547   4.234  18.731  0.00  0.00    +0.000 S 
ATOM     10  C   UNL     1       4.553   5.258  17.358  0.00  0.00    +0.000 A 
ATOM     11  C   UNL     1       3.764   6.371  17.573  0.00  0.00    +0.000 A 
BRANCH  10  12
ATOM     12  C   UNL     1       5.343   4.946  16.200  0.00  0.00    +0.000 A 
ATOM     13  N   UNL     1       6.399   5.623  15.796  0.00  0.00    +0.000 NA
ATOM     14  C   UNL     1       6.710   5.119  14.559  0.00  0.00    +0.000 A 
ATOM     15  C   UNL     1       7.699   5.526  13.653  0.00  0.00    +0.000 A 
ATOM     16  C   UNL     1       7.764   4.894  12.405  0.00  0.00    +0.000 A 
ATOM     17  C   UNL     1       6.873   3.869  12.076  0.00  0.00    +0.000 A 
ATOM     18  C   UNL     1       5.902   3.426  12.983  0.00  0.00    +0.000 A 
ATOM     19  C   UNL     1       5.854   4.081  14.215  0.00  0.00    +0.000 A 
ATOM     20  N   UNL     1       5.046   3.934  15.316  0.00  0.00    +0.000 N 
ATOM     21  H   UNL     1       4.315   3.243  15.428  0.00  0.00    +0.000 HD
ENDBRANCH  10  12
ENDBRANCH   5   7
BRANCH   1  22
ATOM     22  C   UNL     1       0.921  10.926  18.430  0.00  0.00    +0.000 C 
BRANCH  22  26
ATOM     23  C   UNL     1      -0.234  14.314  18.879  0.00  0.00    +0.000 C 
ATOM     24  C   UNL     1       1.212  14.487  19.305  0.00  0.00    +0.000 C 
ATOM     25  C   UNL     1       1.854  13.141  18.966  0.00  0.00    +0.000 C 
ATOM     26  N   UNL     1       0.817  12.140  19.261  0.00  0.00    +0.000 NA
ATOM     27  C   UNL     1      -0.481  12.801  18.973  0.00  0.00    +0.000 C 
BRANCH  23  28
ATOM     28  N   UNL     1      -1.202  15.086  19.654  0.00  0.00    +0.000 NA
ATOM     29  H   UNL     1      -0.839  16.021  19.835  0.00  0.00    +0.000 HD
ATOM     30  H   UNL     1      -1.362  14.661  20.566  0.00  0.00    +0.000 HD
ENDBRANCH  23  28
ENDBRANCH  22  26
ENDBRANCH   1  22
TORSDOF 5
ENDMDL
MODEL 7
REMARK VINA RESULT:      -7.9      3.405      5.055
REMARK  Name = 
REMARK  5 active torsions:
REMARK  status: ('A' for Active; 'I' for Inactive)
REMARK    1  A    between atoms: N_1  and  C_2
REMARK    2  A    between atoms: N_5  and  C_6
REMARK    3  A    between atoms: C_6  and  C_7
REMARK    4  A    between atoms: C_11  and  C_12
REMARK    5  A    between atoms: C_15  and  C_16
REMARK                            x       y       z     vdW  Elec       q    Type
REMARK                         _______ _______ _______ _____ _____    ______ ____
ROOT
ATOM      1  C   UNL     1       2.589   7.076  18.963  0.00  0.00    +0.000 A 
ATOM      2  C   UNL     1       2.674   7.800  17.764  0.00  0.00    +0.000 A 
ATOM      3  C   UNL     1       2.098   9.064  17.650  0.00  0.00    +0.000 A 
ATOM      4  C   UNL     1       1.412   9.623  18.728  0.00  0.00    +0.000 A 
ATOM      5  C   UNL     1       1.292   8.913  19.935  0.00  0.00    +0.000 A 
ATOM      6  C   UNL     1       1.887   7.640  20.042  0.00  0.00    +0.000 A 
ENDROOT
BRANCH   5   7
ATOM      7  C   UNL     1       0.544   9.493  21.055  0.00  0.00    +0.000 A 
ATOM      8  C   UNL     1       0.058   8.740  22.111  0.00  0.00    +0.000 A 
ATOM      9  S   UNL     1      -0.735   9.686  23.293  0.00  0.00    +0.000 S 
ATOM     10  C   UNL     1      -0.507  11.127  22.394  0.00  0.00    +0.000 A 
ATOM     11  C   UNL     1       0.208  10.876  21.239  0.00  0.00    +0.000 A 
BRANCH  10  12
ATOM     12  C   UNL     1      -1.061  12.375  22.837  0.00  0.00    +0.000 A 
ATOM     13  N   UNL     1      -0.370  13.472  23.074  0.00  0.00    +0.000 NA
ATOM     14  C   UNL     1      -1.247  14.341  23.670  0.00  0.00    +0.000 A 
ATOM     15  C   UNL     1      -1.018  15.622  24.192  0.00  0.00    +0.000 A 
ATOM     16  C   UNL     1      -2.075  16.282  24.830  0.00  0.00    +0.000 A 
ATOM     17  C   UNL     1      -3.335  15.686  24.930  0.00  0.00    +0.000 A 
ATOM     18  C   UNL     1      -3.590  14.422  24.384  0.00  0.00    +0.000 A 
ATOM     19  C   UNL     1      -2.515  13.782  23.762  0.00  0.00    +0.000 A 
ATOM     20  N   UNL     1      -2.389  12.562  23.146  0.00  0.00    +0.000 N 
ATOM     21  H   UNL     1      -3.132  11.888  23.004  0.00  0.00    +0.000 HD
ENDBRANCH  10  12
ENDBRANCH   5   7
BRANCH   1  22
ATOM     22  C   UNL     1       3.380   5.788  19.098  0.00  0.00    +0.000 C 
BRANCH  22  26
ATOM     23  C   UNL     1       1.987   2.470  18.847  0.00  0.00    +0.000 C 
ATOM     24  C   UNL     1       3.203   2.296  17.957  0.00  0.00    +0.000 C 
ATOM     25  C   UNL     1       3.982   3.598  18.147  0.00  0.00    +0.000 C 
ATOM     26  N   UNL     1       2.953   4.641  18.275  0.00  0.00    +0.000 NA
ATOM     27  C   UNL     1       1.793   3.991  18.933  0.00  0.00    +0.000 C 
BRANCH  23  28
ATOM     28  N   UNL     1       0.784   1.779  18.388  0.00  0.00    +0.000 NA
ATOM     29  H   UNL     1       0.755   0.835  18.771  0.00  0.00    +0.000 HD
ATOM     30  H   UNL     1       0.786   1.677  17.375  0.00  0.00    +0.000 HD
ENDBRANCH  23  28
ENDBRANCH  22  26
ENDBRANCH   1  22
TORSDOF 5
ENDMDL
MODEL 8
REMARK VINA RESULT:      -7.8      2.486      3.553
REMARK  Name = 
REMARK  5 active torsions:
REMARK  status: ('A' for Active; 'I' for Inactive)
REMARK    1  A    between atoms: N_1  and  C_2
REMARK    2  A    between atoms: N_5  and  C_6
REMARK    3  A    between atoms: C_6  and  C_7
REMARK    4  A    between atoms: C_11  and  C_12
REMARK    5  A    between atoms: C_15  and  C_16
REMARK                            x       y       z     vdW  Elec       q    Type
REMARK                         _______ _______ _______ _____ _____    ______ ____
ROOT
ATOM      1  C   UNL     1       3.131   4.037  17.352  0.00  0.00    +0.000 A 
ATOM      2  C   UNL     1       4.296   4.303  16.614  0.00  0.00    +0.000 A 
ATOM      3  C   UNL     1       4.847   5.582  16.586  0.00  0.00    +0.000 A 
ATOM      4  C   UNL     1       4.238   6.625  17.282  0.00  0.00    +0.000 A 
ATOM      5  C   UNL     1       3.060   6.395  18.013  0.00  0.00    +0.000 A 
ATOM      6  C   UNL     1       2.517   5.095  18.043  0.00  0.00    +0.000 A 
ENDROOT
BRANCH   5   7
ATOM      7  C   UNL     1       2.408   7.502  18.720  0.00  0.00    +0.000 A 
ATOM      8  C   UNL     1       1.838   7.367  19.976  0.00  0.00    +0.000 A 
ATOM      9  S   UNL     1       1.191   8.831  20.573  0.00  0.00    +0.000 S 
ATOM     10  C   UNL     1       1.597   9.678  19.140  0.00  0.00    +0.000 A 
ATOM     11  C   UNL     1       2.259   8.851  18.253  0.00  0.00    +0.000 A 
BRANCH  10  12
ATOM     12  C   UNL     1       1.216  11.049  18.953  0.00  0.00    +0.000 A 
ATOM     13  N   UNL     1       2.012  12.006  18.518  0.00  0.00    +0.000 NA
ATOM     14  C   UNL     1       1.317  13.174  18.692  0.00  0.00    +0.000 A 
ATOM     15  C   UNL     1       1.721  14.496  18.463  0.00  0.00    +0.000 A 
ATOM     16  C   UNL     1       0.843  15.533  18.800  0.00  0.00    +0.000 A 
ATOM     17  C   UNL     1      -0.416  15.256  19.339  0.00  0.00    +0.000 A 
ATOM     18  C   UNL     1      -0.850  13.940  19.543  0.00  0.00    +0.000 A 
ATOM     19  C   UNL     1       0.050  12.927  19.206  0.00  0.00    +0.000 A 
ATOM     20  N   UNL     1      -0.019  11.558  19.282  0.00  0.00    +0.000 N 
ATOM     21  H   UNL     1      -0.820  11.020  19.591  0.00  0.00    +0.000 HD
ENDBRANCH  10  12
ENDBRANCH   5   7
BRANCH   1  22
ATOM     22  C   UNL     1       2.670   2.599  17.499  0.00  0.00    +0.000 C 
BRANCH  22  26
ATOM     23  C   UNL     1       2.266   2.879  21.072  0.00  0.00    +0.000 C 
ATOM     24  C   UNL     1       3.653   2.265  21.028  0.00  0.00    +0.000 C 
ATOM     25  C   UNL     1       4.009   2.283  19.541  0.00  0.00    +0.000 C 
ATOM     26  N   UNL     1       2.745   1.998  18.843  0.00  0.00    +0.000 NA
ATOM     27  C   UNL     1       1.674   2.585  19.686  0.00  0.00    +0.000 C 
BRANCH  23  28
ATOM     28  N   UNL     1       1.413   2.396  22.156  0.00  0.00    +0.000 NA
ATOM     29  H   UNL     1       1.115   1.440  21.968  0.00  0.00    +0.000 HD
ATOM     30  H   UNL     1       0.562   2.952  22.227  0.00  0.00    +0.000 HD
ENDBRANCH  23  28
ENDBRANCH  22  26
ENDBRANCH   1  22
TORSDOF 5
ENDMDL
MODEL 9
REMARK VINA RESULT:      -7.8      2.521      3.732
REMARK  Name = 
REMARK  5 active torsions:
REMARK  status: ('A' for Active; 'I' for Inactive)
REMARK    1  A    between atoms: N_1  and  C_2
REMARK    2  A    between atoms: N_5  and  C_6
REMARK    3  A    between atoms: C_6  and  C_7
REMARK    4  A    between atoms: C_11  and  C_12
REMARK    5  A    between atoms: C_15  and  C_16
REMARK                            x       y       z     vdW  Elec       q    Type
REMARK                         _______ _______ _______ _____ _____    ______ ____
ROOT
ATOM      1  C   UNL     1       3.082   6.025  18.545  0.00  0.00    +0.000 A 
ATOM      2  C   UNL     1       2.849   5.198  19.655  0.00  0.00    +0.000 A 
ATOM      3  C   UNL     1       2.100   5.652  20.738  0.00  0.00    +0.000 A 
ATOM      4  C   UNL     1       1.581   6.946  20.741  0.00  0.00    +0.000 A 
ATOM      5  C   UNL     1       1.815   7.804  19.653  0.00  0.00    +0.000 A 
ATOM      6  C   UNL     1       2.565   7.331  18.557  0.00  0.00    +0.000 A 
ENDROOT
BRANCH   5   7
ATOM      7  C   UNL     1       1.291   9.174  19.674  0.00  0.00    +0.000 A 
ATOM      8  C   UNL     1       1.535  10.092  18.666  0.00  0.00    +0.000 A 
ATOM      9  S   UNL     1       0.763  11.594  18.934  0.00  0.00    +0.000 S 
ATOM     10  C   UNL     1       0.132  11.080  20.442  0.00  0.00    +0.000 A 
ATOM     11  C   UNL     1       0.474   9.766  20.694  0.00  0.00    +0.000 A 
BRANCH  10  12
ATOM     12  C   UNL     1      -0.603  11.980  21.285  0.00  0.00    +0.000 A 
ATOM     13  N   UNL     1      -0.077  12.968  21.982  0.00  0.00    +0.000 NA
ATOM     14  C   UNL     1      -1.082  13.424  22.795  0.00  0.00    +0.000 A 
ATOM     15  C   UNL     1      -1.048  14.414  23.787  0.00  0.00    +0.000 A 
ATOM     16  C   UNL     1      -2.204  14.642  24.544  0.00  0.00    +0.000 A 
ATOM     17  C   UNL     1      -3.371  13.912  24.304  0.00  0.00    +0.000 A 
ATOM     18  C   UNL     1      -3.433  12.944  23.294  0.00  0.00    +0.000 A 
ATOM     19  C   UNL     1      -2.263  12.731  22.562  0.00  0.00    +0.000 A 
ATOM     20  N   UNL     1      -1.952  11.874  21.535  0.00  0.00    +0.000 N 
ATOM     21  H   UNL     1      -2.590  11.230  21.085  0.00  0.00    +0.000 HD
ENDBRANCH  10  12
ENDBRANCH   5   7
BRANCH   1  22
ATOM     22  C   UNL     1       3.747   5.431  17.317  0.00  0.00    +0.000 C 
BRANCH  22  26
ATOM     23  C   UNL     1       6.826   4.817  15.541  0.00  0.00    +0.000 C 
ATOM     24  C   UNL     1       7.313   4.601  16.962  0.00  0.00    +0.000 C 
ATOM     25  C   UNL     1       6.031   4.645  17.795  0.00  0.00    +0.000 C 
ATOM     26  N   UNL     1       5.193   5.667  17.149  0.00  0.00    +0.000 NA
ATOM     27  C   UNL     1       5.518   5.606  15.702  0.00  0.00    +0.000 C 
BRANCH  23  28
ATOM     28  N   UNL     1       7.778   5.490  14.660  0.00  0.00    +0.000 NA
ATOM     29  H   UNL     1       7.545   5.305  13.686  0.00  0.00    +0.000 HD
ATOM     30  H   UNL     1       8.722   5.133  14.801  0.00  0.00    +0.000 HD
ENDBRANCH  23  28
ENDBRANCH  22  26
ENDBRANCH   1  22
TORSDOF 5
ENDMDL
