MODEL 1
REMARK VINA RESULT:      -6.9      0.000      0.000
REMARK  Name = 
REMARK  9 active torsions:
REMARK  status: ('A' for Active; 'I' for Inactive)
REMARK    1  A    between atoms: C_1  and  C_2
REMARK    2  A    between atoms: C_15  and  C_16
REMARK    3  A    between atoms: C_16  and  N_17
REMARK    4  A    between atoms: N_17  and  C_18
REMARK    5  A    between atoms: N_17  and  C_21
REMARK    6  A    between atoms: C_18  and  C_19
REMARK    7  A    between atoms: C_19  and  O_20
REMARK    8  A    between atoms: C_21  and  C_22
REMARK    9  A    between atoms: C_22  and  O_23
REMARK                            x       y       z     vdW  Elec       q    Type
REMARK                         _______ _______ _______ _____ _____    ______ ____
ROOT
ATOM      1  C   UNL     1      -1.183  12.298  21.549  0.00  0.00    +0.000 C 
ATOM      2  C   UNL     1      -1.193  12.624  20.004  0.00  0.00    +0.000 A 
ATOM      3  C   UNL     1      -2.523  12.369  19.587  0.00  0.00    +0.000 A 
ATOM      4  C   UNL     1      -2.750  11.267  18.782  0.00  0.00    +0.000 A 
ATOM      5  C   UNL     1      -1.658  10.537  18.341  0.00  0.00    +0.000 A 
ATOM      6  C   UNL     1      -0.443  10.724  18.999  0.00  0.00    +0.000 A 
ATOM      7  C   UNL     1       0.560   9.794  18.953  0.00  0.00    +0.000 A 
ATOM      8  C   UNL     1       1.766  10.056  18.290  0.00  0.00    +0.000 A 
ATOM      9  C   UNL     1       2.020  11.395  18.025  0.00  0.00    +0.000 A 
ATOM     10  C   UNL     1       1.148  12.373  18.629  0.00  0.00    +0.000 A 
ATOM     11  C   UNL     1      -0.110  12.003  19.276  0.00  0.00    +0.000 A 
ATOM     12  C   UNL     1       2.553   8.825  18.153  0.00  0.00    +0.000 A 
ATOM     13  O   UNL     1       3.321   8.497  17.083  0.00  0.00    +0.000 OA
ATOM     14  C   UNL     1       3.495   7.124  17.158  0.00  0.00    +0.000 A 
ATOM     15  C   UNL     1       2.758   6.580  18.200  0.00  0.00    +0.000 A 
ATOM     16  C   UNL     1       2.335   7.700  18.931  0.00  0.00    +0.000 A 
ATOM     17  C   UNL     1       1.528   7.800  20.107  0.00  0.00    +0.000 C 
ATOM     18  O   UNL     1       1.399   6.907  20.962  0.00  0.00    +0.000 OA
ATOM     19  C   UNL     1       0.832   9.114  20.266  0.00  0.00    +0.000 C 
ATOM     20  O   UNL     1       0.736   9.632  21.368  0.00  0.00    +0.000 OA
ENDROOT
BRANCH  15  21
ATOM     21  C   UNL     1       2.332   5.171  18.517  0.00  0.00    +0.000 C 
BRANCH  21  22
ATOM     22  N   UNL     1       3.536   4.349  18.870  0.00  0.00    +0.000 NA
BRANCH  22  23
ATOM     23  C   UNL     1       4.507   5.140  19.670  0.00  0.00    +0.000 C 
BRANCH  23  24
ATOM     24  C   UNL     1       5.961   5.195  19.150  0.00  0.00    +0.000 C 
BRANCH  24  25
ATOM     25  O   UNL     1       6.351   3.971  18.536  0.00  0.00    +0.000 OA
ATOM     26  H   UNL     1       5.586   3.673  18.005  0.00  0.00    +0.000 HD
ENDBRANCH  24  25
ENDBRANCH  23  24
ENDBRANCH  22  23
BRANCH  22  27
ATOM     27  C   UNL     1       3.154   3.093  19.561  0.00  0.00    +0.000 C 
BRANCH  27  28
ATOM     28  C   UNL     1       3.837   1.819  19.033  0.00  0.00    +0.000 C 
BRANCH  28  29
ATOM     29  O   UNL     1       5.080   1.610  19.694  0.00  0.00    +0.000 OA
ATOM     30  H   UNL     1       5.552   0.926  19.167  0.00  0.00    +0.000 HD
ENDBRANCH  28  29
ENDBRANCH  27  28
ENDBRANCH  22  27
ENDBRANCH  21  22
ENDBRANCH  15  21
TORSDOF 8
ENDMDL
MODEL 2
REMARK VINA RESULT:      -6.9      2.729      7.998
REMARK  Name = 
REMARK  9 active torsions:
REMARK  status: ('A' for Active; 'I' for Inactive)
REMARK    1  A    between atoms: C_1  and  C_2
REMARK    2  A    between atoms: C_15  and  C_16
REMARK    3  A    between atoms: C_16  and  N_17
REMARK    4  A    between atoms: N_17  and  C_18
REMARK    5  A    between atoms: N_17  and  C_21
REMARK    6  A    between atoms: C_18  and  C_19
REMARK    7  A    between atoms: C_19  and  O_20
REMARK    8  A    between atoms: C_21  and  C_22
REMARK    9  A    between atoms: C_22  and  O_23
REMARK                            x       y       z     vdW  Elec       q    Type
REMARK                         _______ _______ _______ _____ _____    ______ ____
ROOT
ATOM      1  C   UNL     1       5.056   4.155  17.257  0.00  0.00    +0.000 C 
ATOM      2  C   UNL     1       3.974   3.433  18.154  0.00  0.00    +0.000 A 
ATOM      3  C   UNL     1       3.170   2.709  17.239  0.00  0.00    +0.000 A 
ATOM      4  C   UNL     1       1.877   3.150  17.023  0.00  0.00    +0.000 A 
ATOM      5  C   UNL     1       1.405   4.206  17.787  0.00  0.00    +0.000 A 
ATOM      6  C   UNL     1       2.340   4.987  18.464  0.00  0.00    +0.000 A 
ATOM      7  C   UNL     1       2.059   6.260  18.881  0.00  0.00    +0.000 A 
ATOM      8  C   UNL     1       1.962   6.576  20.243  0.00  0.00    +0.000 A 
ATOM      9  C   UNL     1       2.520   5.647  21.110  0.00  0.00    +0.000 A 
ATOM     10  C   UNL     1       3.311   4.586  20.534  0.00  0.00    +0.000 A 
ATOM     11  C   UNL     1       3.326   4.315  19.098  0.00  0.00    +0.000 A 
ATOM     12  C   UNL     1       1.394   7.918  20.418  0.00  0.00    +0.000 A 
ATOM     13  O   UNL     1       0.544   8.290  21.409  0.00  0.00    +0.000 OA
ATOM     14  C   UNL     1      -0.079   9.439  20.951  0.00  0.00    +0.000 A 
ATOM     15  C   UNL     1       0.293   9.727  19.646  0.00  0.00    +0.000 A 
ATOM     16  C   UNL     1       1.374   8.865  19.407  0.00  0.00    +0.000 A 
ATOM     17  C   UNL     1       2.178   8.673  18.242  0.00  0.00    +0.000 C 
ATOM     18  O   UNL     1       2.365   9.524  17.356  0.00  0.00    +0.000 OA
ATOM     19  C   UNL     1       2.830   7.330  18.159  0.00  0.00    +0.000 C 
ATOM     20  O   UNL     1       3.974   7.224  17.744  0.00  0.00    +0.000 OA
ENDROOT
BRANCH  15  21
ATOM     21  C   UNL     1      -0.304  10.623  18.593  0.00  0.00    +0.000 C 
BRANCH  21  22
ATOM     22  N   UNL     1      -1.495  11.339  19.158  0.00  0.00    +0.000 NA
BRANCH  22  23
ATOM     23  C   UNL     1      -1.161  12.748  19.495  0.00  0.00    +0.000 C 
BRANCH  23  24
ATOM     24  C   UNL     1      -0.338  13.541  18.456  0.00  0.00    +0.000 C 
BRANCH  24  25
ATOM     25  O   UNL     1      -0.643  14.931  18.489  0.00  0.00    +0.000 OA
ATOM     26  H   UNL     1       0.081  15.362  18.984  0.00  0.00    +0.000 HD
ENDBRANCH  24  25
ENDBRANCH  23  24
ENDBRANCH  22  23
BRANCH  22  27
ATOM     27  C   UNL     1      -2.663  11.257  18.247  0.00  0.00    +0.000 C 
BRANCH  27  28
ATOM     28  C   UNL     1      -2.382  10.619  16.875  0.00  0.00    +0.000 C 
BRANCH  28  29
ATOM     29  O   UNL     1      -2.439  11.602  15.848  0.00  0.00    +0.000 OA
ATOM     30  H   UNL     1      -1.621  12.140  15.946  0.00  0.00    +0.000 HD
ENDBRANCH  28  29
ENDBRANCH  27  28
ENDBRANCH  22  27
ENDBRANCH  21  22
ENDBRANCH  15  21
TORSDOF 8
ENDMDL
MODEL 3
REMARK VINA RESULT:      -6.8      5.140      7.299
REMARK  Name = 
REMARK  9 active torsions:
REMARK  status: ('A' for Active; 'I' for Inactive)
REMARK    1  A    between atoms: C_1  and  C_2
REMARK    2  A    between atoms: C_15  and  C_16
REMARK    3  A    between atoms: C_16  and  N_17
REMARK    4  A    between atoms: N_17  and  C_18
REMARK    5  A    between atoms: N_17  and  C_21
REMARK    6  A    between atoms: C_18  and  C_19
REMARK    7  A    between atoms: C_19  and  O_20
REMARK    8  A    between atoms: C_21  and  C_22
REMARK    9  A    between atoms: C_22  and  O_23
REMARK                            x       y       z     vdW  Elec       q    Type
REMARK                         _______ _______ _______ _____ _____    ______ ____
ROOT
ATOM      1  C   UNL     1       0.136   3.809  19.929  0.00  0.00    +0.000 C 
ATOM      2  C   UNL     1       1.121   2.581  20.051  0.00  0.00    +0.000 A 
ATOM      3  C   UNL     1       1.520   2.569  21.411  0.00  0.00    +0.000 A 
ATOM      4  C   UNL     1       2.823   2.923  21.707  0.00  0.00    +0.000 A 
ATOM      5  C   UNL     1       3.695   3.165  20.658  0.00  0.00    +0.000 A 
ATOM      6  C   UNL     1       3.146   3.387  19.395  0.00  0.00    +0.000 A 
ATOM      7  C   UNL     1       3.834   4.038  18.407  0.00  0.00    +0.000 A 
ATOM      8  C   UNL     1       4.256   3.368  17.251  0.00  0.00    +0.000 A 
ATOM      9  C   UNL     1       3.630   2.153  17.006  0.00  0.00    +0.000 A 
ATOM     10  C   UNL     1       2.489   1.812  17.821  0.00  0.00    +0.000 A 
ATOM     11  C   UNL     1       2.144   2.558  19.031  0.00  0.00    +0.000 A 
ATOM     12  C   UNL     1       5.191   4.202  16.488  0.00  0.00    +0.000 A 
ATOM     13  O   UNL     1       6.274   3.750  15.805  0.00  0.00    +0.000 OA
ATOM     14  C   UNL     1       7.095   4.853  15.638  0.00  0.00    +0.000 A 
ATOM     15  C   UNL     1       6.589   5.962  16.301  0.00  0.00    +0.000 A 
ATOM     16  C   UNL     1       5.289   5.574  16.658  0.00  0.00    +0.000 A 
ATOM     17  C   UNL     1       4.267   6.272  17.374  0.00  0.00    +0.000 C 
ATOM     18  O   UNL     1       4.164   7.508  17.446  0.00  0.00    +0.000 OA
ATOM     19  C   UNL     1       3.269   5.383  18.044  0.00  0.00    +0.000 C 
ATOM     20  O   UNL     1       2.084   5.682  18.052  0.00  0.00    +0.000 OA
ENDROOT
BRANCH  15  21
ATOM     21  C   UNL     1       7.209   7.270  16.714  0.00  0.00    +0.000 C 
BRANCH  21  22
ATOM     22  N   UNL     1       7.527   7.236  18.180  0.00  0.00    +0.000 NA
BRANCH  22  23
ATOM     23  C   UNL     1       7.975   5.881  18.598  0.00  0.00    +0.000 C 
BRANCH  23  24
ATOM     24  C   UNL     1       7.345   5.301  19.883  0.00  0.00    +0.000 C 
BRANCH  24  25
ATOM     25  O   UNL     1       8.264   5.303  20.971  0.00  0.00    +0.000 OA
ATOM     26  H   UNL     1       8.682   4.420  20.982  0.00  0.00    +0.000 HD
ENDBRANCH  24  25
ENDBRANCH  23  24
ENDBRANCH  22  23
BRANCH  22  27
ATOM     27  C   UNL     1       8.518   8.277  18.547  0.00  0.00    +0.000 C 
BRANCH  27  28
ATOM     28  C   UNL     1       8.257   9.671  17.950  0.00  0.00    +0.000 C 
BRANCH  28  29
ATOM     29  O   UNL     1       9.319  10.560  18.278  0.00  0.00    +0.000 OA
ATOM     30  H   UNL     1       9.063  10.982  19.130  0.00  0.00    +0.000 HD
ENDBRANCH  28  29
ENDBRANCH  27  28
ENDBRANCH  22  27
ENDBRANCH  21  22
ENDBRANCH  15  21
TORSDOF 8
ENDMDL
MODEL 4
REMARK VINA RESULT:      -6.8      1.302      1.761
REMARK  Name = 
REMARK  9 active torsions:
REMARK  status: ('A' for Active; 'I' for Inactive)
REMARK    1  A    between atoms: C_1  and  C_2
REMARK    2  A    between atoms: C_15  and  C_16
REMARK    3  A    between atoms: C_16  and  N_17
REMARK    4  A    between atoms: N_17  and  C_18
REMARK    5  A    between atoms: N_17  and  C_21
REMARK    6  A    between atoms: C_18  and  C_19
REMARK    7  A    between atoms: C_19  and  O_20
REMARK    8  A    between atoms: C_21  and  C_22
REMARK    9  A    between atoms: C_22  and  O_23
REMARK                            x       y       z     vdW  Elec       q    Type
REMARK                         _______ _______ _______ _____ _____    ______ ____
ROOT
ATOM      1  C   UNL     1      -1.191  12.507  21.401  0.00  0.00    +0.000 C 
ATOM      2  C   UNL     1      -1.167  12.745  19.840  0.00  0.00    +0.000 A 
ATOM      3  C   UNL     1      -2.495  12.497  19.415  0.00  0.00    +0.000 A 
ATOM      4  C   UNL     1      -2.736  11.358  18.669  0.00  0.00    +0.000 A 
ATOM      5  C   UNL     1      -1.654  10.579  18.289  0.00  0.00    +0.000 A 
ATOM      6  C   UNL     1      -0.446  10.774  18.958  0.00  0.00    +0.000 A 
ATOM      7  C   UNL     1       0.535   9.820  18.982  0.00  0.00    +0.000 A 
ATOM      8  C   UNL     1       1.758  10.016  18.327  0.00  0.00    +0.000 A 
ATOM      9  C   UNL     1       2.048  11.331  17.992  0.00  0.00    +0.000 A 
ATOM     10  C   UNL     1       1.191  12.362  18.524  0.00  0.00    +0.000 A 
ATOM     11  C   UNL     1      -0.087  12.059  19.168  0.00  0.00    +0.000 A 
ATOM     12  C   UNL     1       2.517   8.761  18.274  0.00  0.00    +0.000 A 
ATOM     13  O   UNL     1       3.294   8.355  17.237  0.00  0.00    +0.000 OA
ATOM     14  C   UNL     1       3.433   6.985  17.393  0.00  0.00    +0.000 A 
ATOM     15  C   UNL     1       2.666   6.518  18.450  0.00  0.00    +0.000 A 
ATOM     16  C   UNL     1       2.257   7.687  19.110  0.00  0.00    +0.000 A 
ATOM     17  C   UNL     1       1.434   7.872  20.263  0.00  0.00    +0.000 C 
ATOM     18  O   UNL     1       1.269   7.032  21.164  0.00  0.00    +0.000 OA
ATOM     19  C   UNL     1       0.768   9.208  20.335  0.00  0.00    +0.000 C 
ATOM     20  O   UNL     1       0.666   9.790  21.405  0.00  0.00    +0.000 OA
ENDROOT
BRANCH  15  21
ATOM     21  C   UNL     1       2.200   5.139  18.837  0.00  0.00    +0.000 C 
BRANCH  21  22
ATOM     22  N   UNL     1       3.232   4.486  19.708  0.00  0.00    +0.000 NA
BRANCH  22  23
ATOM     23  C   UNL     1       2.664   4.129  21.035  0.00  0.00    +0.000 C 
BRANCH  23  24
ATOM     24  C   UNL     1       2.439   2.628  21.320  0.00  0.00    +0.000 C 
BRANCH  24  25
ATOM     25  O   UNL     1       1.366   2.417  22.232  0.00  0.00    +0.000 OA
ATOM     26  H   UNL     1       1.518   1.542  22.640  0.00  0.00    +0.000 HD
ENDBRANCH  24  25
ENDBRANCH  23  24
ENDBRANCH  22  23
BRANCH  22  27
ATOM     27  C   UNL     1       3.843   3.310  19.041  0.00  0.00    +0.000 C 
BRANCH  27  28
ATOM     28  C   UNL     1       3.209   2.916  17.696  0.00  0.00    +0.000 C 
BRANCH  28  29
ATOM     29  O   UNL     1       2.511   1.681  17.818  0.00  0.00    +0.000 OA
ATOM     30  H   UNL     1       3.059   1.015  17.342  0.00  0.00    +0.000 HD
ENDBRANCH  28  29
ENDBRANCH  27  28
ENDBRANCH  22  27
ENDBRANCH  21  22
ENDBRANCH  15  21
TORSDOF 8
ENDMDL
MODEL 5
REMARK VINA RESULT:      -6.6      2.484      7.877
REMARK  Name = 
REMARK  9 active torsions:
REMARK  status: ('A' for Active; 'I' for Inactive)
REMARK    1  A    between atoms: C_1  and  C_2
REMARK    2  A    between atoms: C_15  and  C_16
REMARK    3  A    between atoms: C_16  and  N_17
REMARK    4  A    between atoms: N_17  and  C_18
REMARK    5  A    between atoms: N_17  and  C_21
REMARK    6  A    between atoms: C_18  and  C_19
REMARK    7  A    between atoms: C_19  and  O_20
REMARK    8  A    between atoms: C_21  and  C_22
REMARK    9  A    between atoms: C_22  and  O_23
REMARK                            x       y       z     vdW  Elec       q    Type
REMARK                         _______ _______ _______ _____ _____    ______ ____
ROOT
ATOM      1  C   UNL     1       5.153   3.861  17.338  0.00  0.00    +0.000 C 
ATOM      2  C   UNL     1       4.032   3.168  18.208  0.00  0.00    +0.000 A 
ATOM      3  C   UNL     1       3.233   2.461  17.276  0.00  0.00    +0.000 A 
ATOM      4  C   UNL     1       1.957   2.933  17.026  0.00  0.00    +0.000 A 
ATOM      5  C   UNL     1       1.492   4.001  17.775  0.00  0.00    +0.000 A 
ATOM      6  C   UNL     1       2.428   4.762  18.474  0.00  0.00    +0.000 A 
ATOM      7  C   UNL     1       2.168   6.043  18.881  0.00  0.00    +0.000 A 
ATOM      8  C   UNL     1       2.045   6.365  20.239  0.00  0.00    +0.000 A 
ATOM      9  C   UNL     1       2.558   5.425  21.122  0.00  0.00    +0.000 A 
ATOM     10  C   UNL     1       3.338   4.343  20.569  0.00  0.00    +0.000 A 
ATOM     11  C   UNL     1       3.381   4.068  19.134  0.00  0.00    +0.000 A 
ATOM     12  C   UNL     1       1.506   7.720  20.397  0.00  0.00    +0.000 A 
ATOM     13  O   UNL     1       0.640   8.115  21.366  0.00  0.00    +0.000 OA
ATOM     14  C   UNL     1       0.057   9.279  20.890  0.00  0.00    +0.000 A 
ATOM     15  C   UNL     1       0.468   9.554  19.593  0.00  0.00    +0.000 A 
ATOM     16  C   UNL     1       1.533   8.665  19.384  0.00  0.00    +0.000 A 
ATOM     17  C   UNL     1       2.361   8.450  18.239  0.00  0.00    +0.000 C 
ATOM     18  O   UNL     1       2.591   9.294  17.357  0.00  0.00    +0.000 OA
ATOM     19  C   UNL     1       2.982   7.092  18.176  0.00  0.00    +0.000 C 
ATOM     20  O   UNL     1       4.134   6.957  17.790  0.00  0.00    +0.000 OA
ENDROOT
BRANCH  15  21
ATOM     21  C   UNL     1      -0.081  10.460  18.524  0.00  0.00    +0.000 C 
BRANCH  21  22
ATOM     22  N   UNL     1      -0.206  11.855  19.062  0.00  0.00    +0.000 NA
BRANCH  22  23
ATOM     23  C   UNL     1       1.079  12.592  18.942  0.00  0.00    +0.000 C 
BRANCH  23  24
ATOM     24  C   UNL     1       1.811  12.942  20.256  0.00  0.00    +0.000 C 
BRANCH  24  25
ATOM     25  O   UNL     1       0.995  12.699  21.397  0.00  0.00    +0.000 OA
ATOM     26  H   UNL     1       1.368  11.913  21.842  0.00  0.00    +0.000 HD
ENDBRANCH  24  25
ENDBRANCH  23  24
ENDBRANCH  22  23
BRANCH  22  27
ATOM     27  C   UNL     1      -1.321  12.590  18.415  0.00  0.00    +0.000 C 
BRANCH  27  28
ATOM     28  C   UNL     1      -2.365  11.709  17.707  0.00  0.00    +0.000 C 
BRANCH  28  29
ATOM     29  O   UNL     1      -2.217  11.800  16.295  0.00  0.00    +0.000 OA
ATOM     30  H   UNL     1      -1.275  11.584  16.110  0.00  0.00    +0.000 HD
ENDBRANCH  28  29
ENDBRANCH  27  28
ENDBRANCH  22  27
ENDBRANCH  21  22
ENDBRANCH  15  21
TORSDOF 8
ENDMDL
MODEL 6
REMARK VINA RESULT:      -6.6      4.334      6.832
REMARK  Name = 
REMARK  9 active torsions:
REMARK  status: ('A' for Active; 'I' for Inactive)
REMARK    1  A    between atoms: C_1  and  C_2
REMARK    2  A    between atoms: C_15  and  C_16
REMARK    3  A    between atoms: C_16  and  N_17
REMARK    4  A    between atoms: N_17  and  C_18
REMARK    5  A    between atoms: N_17  and  C_21
REMARK    6  A    between atoms: C_18  and  C_19
REMARK    7  A    between atoms: C_19  and  O_20
REMARK    8  A    between atoms: C_21  and  C_22
REMARK    9  A    between atoms: C_22  and  O_23
REMARK                            x       y       z     vdW  Elec       q    Type
REMARK                         _______ _______ _______ _____ _____    ______ ____
ROOT
ATOM      1  C   UNL     1       2.559   3.348  21.765  0.00  0.00    +0.000 C 
ATOM      2  C   UNL     1       1.433   3.969  20.848  0.00  0.00    +0.000 A 
ATOM      3  C   UNL     1       0.682   2.858  20.391  0.00  0.00    +0.000 A 
ATOM      4  C   UNL     1       0.788   2.507  19.057  0.00  0.00    +0.000 A 
ATOM      5  C   UNL     1       1.534   3.321  18.220  0.00  0.00    +0.000 A 
ATOM      6  C   UNL     1       2.414   4.227  18.810  0.00  0.00    +0.000 A 
ATOM      7  C   UNL     1       3.477   4.759  18.129  0.00  0.00    +0.000 A 
ATOM      8  C   UNL     1       3.523   6.119  17.798  0.00  0.00    +0.000 A 
ATOM      9  C   UNL     1       2.647   6.933  18.503  0.00  0.00    +0.000 A 
ATOM     10  C   UNL     1       1.950   6.351  19.625  0.00  0.00    +0.000 A 
ATOM     11  C   UNL     1       1.937   4.910  19.873  0.00  0.00    +0.000 A 
ATOM     12  C   UNL     1       4.613   6.379  16.850  0.00  0.00    +0.000 A 
ATOM     13  O   UNL     1       4.571   7.270  15.827  0.00  0.00    +0.000 OA
ATOM     14  C   UNL     1       5.570   6.875  14.951  0.00  0.00    +0.000 A 
ATOM     15  C   UNL     1       6.161   5.689  15.363  0.00  0.00    +0.000 A 
ATOM     16  C   UNL     1       5.675   5.508  16.666  0.00  0.00    +0.000 A 
ATOM     17  C   UNL     1       5.904   4.462  17.613  0.00  0.00    +0.000 C 
ATOM     18  O   UNL     1       6.909   3.733  17.641  0.00  0.00    +0.000 OA
ATOM     19  C   UNL     1       4.820   4.306  18.631  0.00  0.00    +0.000 C 
ATOM     20  O   UNL     1       5.097   4.058  19.795  0.00  0.00    +0.000 OA
ENDROOT
BRANCH  15  21
ATOM     21  C   UNL     1       7.025   4.683  14.650  0.00  0.00    +0.000 C 
BRANCH  21  22
ATOM     22  N   UNL     1       6.488   4.447  13.270  0.00  0.00    +0.000 NA
BRANCH  22  23
ATOM     23  C   UNL     1       7.536   4.678  12.241  0.00  0.00    +0.000 C 
BRANCH  23  24
ATOM     24  C   UNL     1       8.238   6.054  12.254  0.00  0.00    +0.000 C 
BRANCH  24  25
ATOM     25  O   UNL     1       9.276   6.109  13.227  0.00  0.00    +0.000 OA
ATOM     26  H   UNL     1       9.613   7.026  13.220  0.00  0.00    +0.000 HD
ENDBRANCH  24  25
ENDBRANCH  23  24
ENDBRANCH  22  23
BRANCH  22  27
ATOM     27  C   UNL     1       5.887   3.097  13.143  0.00  0.00    +0.000 C 
BRANCH  27  28
ATOM     28  C   UNL     1       5.510   2.677  11.712  0.00  0.00    +0.000 C 
BRANCH  28  29
ATOM     29  O   UNL     1       5.858   1.316  11.484  0.00  0.00    +0.000 OA
ATOM     30  H   UNL     1       5.528   0.820  12.267  0.00  0.00    +0.000 HD
ENDBRANCH  28  29
ENDBRANCH  27  28
ENDBRANCH  22  27
ENDBRANCH  21  22
ENDBRANCH  15  21
TORSDOF 8
ENDMDL
MODEL 7
REMARK VINA RESULT:      -6.6      2.495      7.948
REMARK  Name = 
REMARK  9 active torsions:
REMARK  status: ('A' for Active; 'I' for Inactive)
REMARK    1  A    between atoms: C_1  and  C_2
REMARK    2  A    between atoms: C_15  and  C_16
REMARK    3  A    between atoms: C_16  and  N_17
REMARK    4  A    between atoms: N_17  and  C_18
REMARK    5  A    between atoms: N_17  and  C_21
REMARK    6  A    between atoms: C_18  and  C_19
REMARK    7  A    between atoms: C_19  and  O_20
REMARK    8  A    between atoms: C_21  and  C_22
REMARK    9  A    between atoms: C_22  and  O_23
REMARK                            x       y       z     vdW  Elec       q    Type
REMARK                         _______ _______ _______ _____ _____    ______ ____
ROOT
ATOM      1  C   UNL     1       5.115   4.175  17.377  0.00  0.00    +0.000 C 
ATOM      2  C   UNL     1       4.000   3.469  18.243  0.00  0.00    +0.000 A 
ATOM      3  C   UNL     1       3.229   2.730  17.311  0.00  0.00    +0.000 A 
ATOM      4  C   UNL     1       1.946   3.168  17.039  0.00  0.00    +0.000 A 
ATOM      5  C   UNL     1       1.446   4.236  17.767  0.00  0.00    +0.000 A 
ATOM      6  C   UNL     1       2.356   5.028  18.466  0.00  0.00    +0.000 A 
ATOM      7  C   UNL     1       2.061   6.309  18.851  0.00  0.00    +0.000 A 
ATOM      8  C   UNL     1       1.913   6.647  20.202  0.00  0.00    +0.000 A 
ATOM      9  C   UNL     1       2.437   5.732  21.105  0.00  0.00    +0.000 A 
ATOM     10  C   UNL     1       3.248   4.661  20.578  0.00  0.00    +0.000 A 
ATOM     11  C   UNL     1       3.316   4.366  19.147  0.00  0.00    +0.000 A 
ATOM     12  C   UNL     1       1.340   7.991  20.334  0.00  0.00    +0.000 A 
ATOM     13  O   UNL     1       0.454   8.380  21.286  0.00  0.00    +0.000 OA
ATOM     14  C   UNL     1      -0.150   9.522  20.785  0.00  0.00    +0.000 A 
ATOM     15  C   UNL     1       0.271   9.788  19.490  0.00  0.00    +0.000 A 
ATOM     16  C   UNL     1       1.359   8.922  19.308  0.00  0.00    +0.000 A 
ATOM     17  C   UNL     1       2.206   8.710  18.177  0.00  0.00    +0.000 C 
ATOM     18  O   UNL     1       2.428   9.546  17.284  0.00  0.00    +0.000 OA
ATOM     19  C   UNL     1       2.860   7.366  18.141  0.00  0.00    +0.000 C 
ATOM     20  O   UNL     1       4.018   7.253  17.771  0.00  0.00    +0.000 OA
ENDROOT
BRANCH  15  21
ATOM     21  C   UNL     1      -0.286  10.667  18.401  0.00  0.00    +0.000 C 
BRANCH  21  22
ATOM     22  N   UNL     1      -0.020  12.106  18.730  0.00  0.00    +0.000 NA
BRANCH  22  23
ATOM     23  C   UNL     1      -1.105  12.671  19.574  0.00  0.00    +0.000 C 
BRANCH  23  24
ATOM     24  C   UNL     1      -0.832  14.034  20.246  0.00  0.00    +0.000 C 
BRANCH  24  25
ATOM     25  O   UNL     1      -1.798  15.011  19.873  0.00  0.00    +0.000 OA
ATOM     26  H   UNL     1      -1.316  15.700  19.375  0.00  0.00    +0.000 HD
ENDBRANCH  24  25
ENDBRANCH  23  24
ENDBRANCH  22  23
BRANCH  22  27
ATOM     27  C   UNL     1       1.311  12.284  19.360  0.00  0.00    +0.000 C 
BRANCH  27  28
ATOM     28  C   UNL     1       2.346  13.039  18.507  0.00  0.00    +0.000 C 
BRANCH  28  29
ATOM     29  O   UNL     1       2.581  12.350  17.284  0.00  0.00    +0.000 OA
ATOM     30  H   UNL     1       1.706  12.294  16.836  0.00  0.00    +0.000 HD
ENDBRANCH  28  29
ENDBRANCH  27  28
ENDBRANCH  22  27
ENDBRANCH  21  22
ENDBRANCH  15  21
TORSDOF 8
ENDMDL
MODEL 8
REMARK VINA RESULT:      -6.6      1.163      1.741
REMARK  Name = 
REMARK  9 active torsions:
REMARK  status: ('A' for Active; 'I' for Inactive)
REMARK    1  A    between atoms: C_1  and  C_2
REMARK    2  A    between atoms: C_15  and  C_16
REMARK    3  A    between atoms: C_16  and  N_17
REMARK    4  A    between atoms: N_17  and  C_18
REMARK    5  A    between atoms: N_17  and  C_21
REMARK    6  A    between atoms: C_18  and  C_19
REMARK    7  A    between atoms: C_19  and  O_20
REMARK    8  A    between atoms: C_21  and  C_22
REMARK    9  A    between atoms: C_22  and  O_23
REMARK                            x       y       z     vdW  Elec       q    Type
REMARK                         _______ _______ _______ _____ _____    ______ ____
ROOT
ATOM      1  C   UNL     1      -1.378  12.156  21.404  0.00  0.00    +0.000 C 
ATOM      2  C   UNL     1      -1.305  12.489  19.862  0.00  0.00    +0.000 A 
ATOM      3  C   UNL     1      -2.605  12.215  19.369  0.00  0.00    +0.000 A 
ATOM      4  C   UNL     1      -2.769  11.114  18.549  0.00  0.00    +0.000 A 
ATOM      5  C   UNL     1      -1.642  10.403  18.168  0.00  0.00    +0.000 A 
ATOM      6  C   UNL     1      -0.470  10.605  18.894  0.00  0.00    +0.000 A 
ATOM      7  C   UNL     1       0.549   9.691  18.902  0.00  0.00    +0.000 A 
ATOM      8  C   UNL     1       1.787   9.975  18.310  0.00  0.00    +0.000 A 
ATOM      9  C   UNL     1       2.034  11.318  18.064  0.00  0.00    +0.000 A 
ATOM     10  C   UNL     1       1.114  12.281  18.621  0.00  0.00    +0.000 A 
ATOM     11  C   UNL     1      -0.172  11.888  19.194  0.00  0.00    +0.000 A 
ATOM     12  C   UNL     1       2.599   8.757  18.213  0.00  0.00    +0.000 A 
ATOM     13  O   UNL     1       3.432   8.445  17.187  0.00  0.00    +0.000 OA
ATOM     14  C   UNL     1       3.622   7.075  17.267  0.00  0.00    +0.000 A 
ATOM     15  C   UNL     1       2.836   6.515  18.263  0.00  0.00    +0.000 A 
ATOM     16  C   UNL     1       2.354   7.625  18.973  0.00  0.00    +0.000 A 
ATOM     17  C   UNL     1       1.480   7.707  20.101  0.00  0.00    +0.000 C 
ATOM     18  O   UNL     1       1.318   6.808  20.944  0.00  0.00    +0.000 OA
ATOM     19  C   UNL     1       0.757   9.009  20.225  0.00  0.00    +0.000 C 
ATOM     20  O   UNL     1       0.590   9.520  21.322  0.00  0.00    +0.000 OA
ENDROOT
BRANCH  15  21
ATOM     21  C   UNL     1       2.415   5.098  18.550  0.00  0.00    +0.000 C 
BRANCH  21  22
ATOM     22  N   UNL     1       3.629   4.248  18.777  0.00  0.00    +0.000 NA
BRANCH  22  23
ATOM     23  C   UNL     1       3.540   3.522  20.071  0.00  0.00    +0.000 C 
BRANCH  23  24
ATOM     24  C   UNL     1       2.146   3.437  20.732  0.00  0.00    +0.000 C 
BRANCH  24  25
ATOM     25  O   UNL     1       2.240   3.244  22.140  0.00  0.00    +0.000 OA
ATOM     26  H   UNL     1       3.189   3.130  22.341  0.00  0.00    +0.000 HD
ENDBRANCH  24  25
ENDBRANCH  23  24
ENDBRANCH  22  23
BRANCH  22  27
ATOM     27  C   UNL     1       3.864   3.319  17.644  0.00  0.00    +0.000 C 
BRANCH  27  28
ATOM     28  C   UNL     1       4.687   3.898  16.480  0.00  0.00    +0.000 C 
BRANCH  28  29
ATOM     29  O   UNL     1       6.054   3.519  16.600  0.00  0.00    +0.000 OA
ATOM     30  H   UNL     1       6.168   2.738  16.011  0.00  0.00    +0.000 HD
ENDBRANCH  28  29
ENDBRANCH  27  28
ENDBRANCH  22  27
ENDBRANCH  21  22
ENDBRANCH  15  21
TORSDOF 8
ENDMDL
MODEL 9
REMARK VINA RESULT:      -6.5      1.053      1.517
REMARK  Name = 
REMARK  9 active torsions:
REMARK  status: ('A' for Active; 'I' for Inactive)
REMARK    1  A    between atoms: C_1  and  C_2
REMARK    2  A    between atoms: C_15  and  C_16
REMARK    3  A    between atoms: C_16  and  N_17
REMARK    4  A    between atoms: N_17  and  C_18
REMARK    5  A    between atoms: N_17  and  C_21
REMARK    6  A    between atoms: C_18  and  C_19
REMARK    7  A    between atoms: C_19  and  O_20
REMARK    8  A    between atoms: C_21  and  C_22
REMARK    9  A    between atoms: C_22  and  O_23
REMARK                            x       y       z     vdW  Elec       q    Type
REMARK                         _______ _______ _______ _____ _____    ______ ____
ROOT
ATOM      1  C   UNL     1      -2.110  12.517  21.690  0.00  0.00    +0.000 C 
ATOM      2  C   UNL     1      -2.047  12.857  20.149  0.00  0.00    +0.000 A 
ATOM      3  C   UNL     1      -3.325  12.504  19.647  0.00  0.00    +0.000 A 
ATOM      4  C   UNL     1      -3.414  11.397  18.823  0.00  0.00    +0.000 A 
ATOM      5  C   UNL     1      -2.242  10.759  18.448  0.00  0.00    +0.000 A 
ATOM      6  C   UNL     1      -1.090  11.032  19.184  0.00  0.00    +0.000 A 
ATOM      7  C   UNL     1      -0.016  10.182  19.196  0.00  0.00    +0.000 A 
ATOM      8  C   UNL     1       1.205  10.544  18.613  0.00  0.00    +0.000 A 
ATOM      9  C   UNL     1       1.370  11.901  18.372  0.00  0.00    +0.000 A 
ATOM     10  C   UNL     1       0.389  12.803  18.925  0.00  0.00    +0.000 A 
ATOM     11  C   UNL     1      -0.875  12.330  19.488  0.00  0.00    +0.000 A 
ATOM     12  C   UNL     1       2.093   9.379  18.520  0.00  0.00    +0.000 A 
ATOM     13  O   UNL     1       2.950   9.122  17.499  0.00  0.00    +0.000 OA
ATOM     14  C   UNL     1       3.225   7.766  17.578  0.00  0.00    +0.000 A 
ATOM     15  C   UNL     1       2.468   7.156  18.567  0.00  0.00    +0.000 A 
ATOM     16  C   UNL     1       1.913   8.232  19.276  0.00  0.00    +0.000 A 
ATOM     17  C   UNL     1       1.028   8.257  20.398  0.00  0.00    +0.000 C 
ATOM     18  O   UNL     1       0.916   7.348  21.238  0.00  0.00    +0.000 OA
ATOM     19  C   UNL     1       0.224   9.511  20.520  0.00  0.00    +0.000 C 
ATOM     20  O   UNL     1       0.019  10.009  21.617  0.00  0.00    +0.000 OA
ENDROOT
BRANCH  15  21
ATOM     21  C   UNL     1       2.134   5.715  18.848  0.00  0.00    +0.000 C 
BRANCH  21  22
ATOM     22  N   UNL     1       3.369   4.876  18.709  0.00  0.00    +0.000 NA
BRANCH  22  23
ATOM     23  C   UNL     1       3.571   4.020  19.907  0.00  0.00    +0.000 C 
BRANCH  23  24
ATOM     24  C   UNL     1       3.730   2.502  19.666  0.00  0.00    +0.000 C 
BRANCH  24  25
ATOM     25  O   UNL     1       5.097   2.104  19.685  0.00  0.00    +0.000 OA
ATOM     26  H   UNL     1       5.558   2.727  20.279  0.00  0.00    +0.000 HD
ENDBRANCH  24  25
ENDBRANCH  23  24
ENDBRANCH  22  23
BRANCH  22  27
ATOM     27  C   UNL     1       3.346   4.073  17.462  0.00  0.00    +0.000 C 
BRANCH  27  28
ATOM     28  C   UNL     1       4.547   4.284  16.523  0.00  0.00    +0.000 C 
BRANCH  28  29
ATOM     29  O   UNL     1       5.644   3.473  16.929  0.00  0.00    +0.000 OA
ATOM     30  H   UNL     1       5.375   2.545  16.742  0.00  0.00    +0.000 HD
ENDBRANCH  28  29
ENDBRANCH  27  28
ENDBRANCH  22  27
ENDBRANCH  21  22
ENDBRANCH  15  21
TORSDOF 8
ENDMDL
