MODEL 1
REMARK VINA RESULT:      -8.3      0.000      0.000
REMARK  Name = 
REMARK  11 active torsions:
REMARK  status: ('A' for Active; 'I' for Inactive)
REMARK    1  A    between atoms: C_1  and  O_2
REMARK    2  A    between atoms: O_2  and  C_3
REMARK    3  A    between atoms: C_3  and  C_5
REMARK    4  A    between atoms: C_5  and  C_6
REMARK    5  A    between atoms: C_6  and  C_7
REMARK    6  A    between atoms: C_7  and  O_8
REMARK    7  A    between atoms: O_8  and  C_9
REMARK    8  A    between atoms: C_12  and  C_13
REMARK    9  A    between atoms: C_16  and  C_17
REMARK   10  A    between atoms: C_20  and  C_21
REMARK   11  A    between atoms: C_21  and  C_22
REMARK                            x       y       z     vdW  Elec       q    Type
REMARK                         _______ _______ _______ _____ _____    ______ ____
ROOT
ATOM      1  C   UNL     1       0.919   9.507  19.734  0.00  0.00    +0.000 A 
ATOM      2  C   UNL     1       1.336   9.674  18.422  0.00  0.00    +0.000 A 
ATOM      3  C   UNL     1       2.146   8.586  17.938  0.00  0.00    +0.000 A 
ATOM      4  C   UNL     1       2.334   7.605  18.888  0.00  0.00    +0.000 A 
ATOM      5  S   UNL     1       1.553   8.023  20.357  0.00  0.00    +0.000 S 
ENDROOT
BRANCH   1   9
ATOM      6  C   UNL     1      -1.551  12.110  22.197  0.00  0.00    +0.000 A 
ATOM      7  C   UNL     1      -1.581  12.199  20.796  0.00  0.00    +0.000 A 
ATOM      8  C   UNL     1      -0.781  11.349  20.004  0.00  0.00    +0.000 A 
ATOM      9  C   UNL     1       0.075  10.406  20.583  0.00  0.00    +0.000 A 
ATOM     10  C   UNL     1       0.117  10.334  21.990  0.00  0.00    +0.000 A 
ATOM     11  C   UNL     1      -0.691  11.187  22.777  0.00  0.00    +0.000 A 
BRANCH   6  12
ATOM     12  O   UNL     1      -2.292  12.888  23.061  0.00  0.00    +0.000 OA
BRANCH  12  13
ATOM     13  C   UNL     1      -3.483  12.280  23.584  0.00  0.00    +0.000 C 
BRANCH  13  14
ATOM     14  C   UNL     1      -4.714  13.148  23.292  0.00  0.00    +0.000 C 
BRANCH  14  15
ATOM     15  C   UNL     1      -4.776  13.696  21.863  0.00  0.00    +0.000 C 
BRANCH  15  16
ATOM     16  C   UNL     1      -5.606  12.804  20.964  0.00  0.00    +0.000 C 
ATOM     17  O   UNL     1      -5.201  12.266  19.942  0.00  0.00    +0.000 OA
BRANCH  16  19
ATOM     18  C   UNL     1      -7.488  11.420  21.191  0.00  0.00    +0.000 C 
ATOM     19  O   UNL     1      -6.874  12.685  21.453  0.00  0.00    +0.000 OA
ENDBRANCH  16  19
ENDBRANCH  15  16
ENDBRANCH  14  15
ENDBRANCH  13  14
ENDBRANCH  12  13
ENDBRANCH   6  12
ENDBRANCH   1   9
BRANCH   4  20
ATOM     20  C   UNL     1       3.121   6.328  18.677  0.00  0.00    +0.000 A 
ATOM     21  N   UNL     1       3.855   5.770  19.653  0.00  0.00    +0.000 NA
ATOM     22  O   UNL     1       4.424   4.650  19.056  0.00  0.00    +0.000 OA
ATOM     23  C   UNL     1       3.984   4.618  17.762  0.00  0.00    +0.000 A 
ATOM     24  N   UNL     1       3.184   5.634  17.478  0.00  0.00    +0.000 NA
BRANCH  23  25
ATOM     25  C   UNL     1       4.729   3.679  16.875  0.00  0.00    +0.000 C 
BRANCH  25  26
ATOM     26  C   UNL     1       5.818   4.156  15.950  0.00  0.00    +0.000 A 
ATOM     27  C   UNL     1       7.066   4.535  16.434  0.00  0.00    +0.000 A 
ATOM     28  N   UNL     1       7.500   5.451  15.526  0.00  0.00    +0.000 N 
ATOM     29  C   UNL     1       7.188   4.942  14.299  0.00  0.00    +0.000 A 
ATOM     30  C   UNL     1       7.786   5.165  13.063  0.00  0.00    +0.000 A 
ATOM     31  C   UNL     1       7.282   4.443  11.988  0.00  0.00    +0.000 A 
ATOM     32  C   UNL     1       6.169   3.611  12.154  0.00  0.00    +0.000 A 
ATOM     33  C   UNL     1       5.530   3.474  13.403  0.00  0.00    +0.000 A 
ATOM     34  C   UNL     1       6.069   4.124  14.527  0.00  0.00    +0.000 A 
ATOM     35  H   UNL     1       7.813   6.397  15.711  0.00  0.00    +0.000 HD
ENDBRANCH  25  26
ENDBRANCH  23  25
ENDBRANCH   4  20
TORSDOF 10
ENDMDL
MODEL 2
REMARK VINA RESULT:      -7.9      3.498     12.788
REMARK  Name = 
REMARK  11 active torsions:
REMARK  status: ('A' for Active; 'I' for Inactive)
REMARK    1  A    between atoms: C_1  and  O_2
REMARK    2  A    between atoms: O_2  and  C_3
REMARK    3  A    between atoms: C_3  and  C_5
REMARK    4  A    between atoms: C_5  and  C_6
REMARK    5  A    between atoms: C_6  and  C_7
REMARK    6  A    between atoms: C_7  and  O_8
REMARK    7  A    between atoms: O_8  and  C_9
REMARK    8  A    between atoms: C_12  and  C_13
REMARK    9  A    between atoms: C_16  and  C_17
REMARK   10  A    between atoms: C_20  and  C_21
REMARK   11  A    between atoms: C_21  and  C_22
REMARK                            x       y       z     vdW  Elec       q    Type
REMARK                         _______ _______ _______ _____ _____    ______ ____
ROOT
ATOM      1  C   UNL     1       1.625   8.765  19.130  0.00  0.00    +0.000 A 
ATOM      2  C   UNL     1       1.106   9.673  18.219  0.00  0.00    +0.000 A 
ATOM      3  C   UNL     1       0.352  10.733  18.836  0.00  0.00    +0.000 A 
ATOM      4  C   UNL     1       0.306  10.618  20.208  0.00  0.00    +0.000 A 
ATOM      5  S   UNL     1       1.151   9.219  20.730  0.00  0.00    +0.000 S 
ENDROOT
BRANCH   1   9
ATOM      6  C   UNL     1       4.014   5.198  18.413  0.00  0.00    +0.000 A 
ATOM      7  C   UNL     1       3.135   5.271  19.505  0.00  0.00    +0.000 A 
ATOM      8  C   UNL     1       2.359   6.429  19.729  0.00  0.00    +0.000 A 
ATOM      9  C   UNL     1       2.452   7.542  18.885  0.00  0.00    +0.000 A 
ATOM     10  C   UNL     1       3.352   7.471  17.802  0.00  0.00    +0.000 A 
ATOM     11  C   UNL     1       4.122   6.306  17.583  0.00  0.00    +0.000 A 
BRANCH   6  12
ATOM     12  O   UNL     1       4.812   4.117  18.103  0.00  0.00    +0.000 OA
BRANCH  12  13
ATOM     13  C   UNL     1       4.689   3.614  16.764  0.00  0.00    +0.000 C 
BRANCH  13  14
ATOM     14  C   UNL     1       5.926   3.973  15.929  0.00  0.00    +0.000 C 
BRANCH  14  15
ATOM     15  C   UNL     1       5.623   4.323  14.470  0.00  0.00    +0.000 C 
BRANCH  15  16
ATOM     16  C   UNL     1       6.885   4.693  13.717  0.00  0.00    +0.000 C 
ATOM     17  O   UNL     1       7.736   5.476  14.116  0.00  0.00    +0.000 OA
BRANCH  16  19
ATOM     18  C   UNL     1       5.747   3.304  12.206  0.00  0.00    +0.000 C 
ATOM     19  O   UNL     1       6.938   4.030  12.526  0.00  0.00    +0.000 OA
ENDBRANCH  16  19
ENDBRANCH  15  16
ENDBRANCH  14  15
ENDBRANCH  13  14
ENDBRANCH  12  13
ENDBRANCH   6  12
ENDBRANCH   1   9
BRANCH   4  20
ATOM     20  C   UNL     1      -0.393  11.586  21.140  0.00  0.00    +0.000 A 
ATOM     21  N   UNL     1       0.272  12.541  21.811  0.00  0.00    +0.000 NA
ATOM     22  O   UNL     1      -0.711  13.184  22.555  0.00  0.00    +0.000 OA
ATOM     23  C   UNL     1      -1.897  12.568  22.271  0.00  0.00    +0.000 A 
ATOM     24  N   UNL     1      -1.754  11.574  21.409  0.00  0.00    +0.000 NA
BRANCH  23  25
ATOM     25  C   UNL     1      -3.012  12.904  23.204  0.00  0.00    +0.000 C 
BRANCH  25  26
ATOM     26  C   UNL     1      -4.454  12.831  22.775  0.00  0.00    +0.000 A 
ATOM     27  C   UNL     1      -5.488  13.126  23.658  0.00  0.00    +0.000 A 
ATOM     28  N   UNL     1      -6.527  12.376  23.200  0.00  0.00    +0.000 N 
ATOM     29  C   UNL     1      -6.513  12.502  21.842  0.00  0.00    +0.000 A 
ATOM     30  C   UNL     1      -7.553  12.388  20.925  0.00  0.00    +0.000 A 
ATOM     31  C   UNL     1      -7.240  12.640  19.593  0.00  0.00    +0.000 A 
ATOM     32  C   UNL     1      -5.919  12.902  19.215  0.00  0.00    +0.000 A 
ATOM     33  C   UNL     1      -4.871  12.924  20.158  0.00  0.00    +0.000 A 
ATOM     34  C   UNL     1      -5.169  12.759  21.522  0.00  0.00    +0.000 A 
ATOM     35  H   UNL     1      -7.080  11.708  23.725  0.00  0.00    +0.000 HD
ENDBRANCH  25  26
ENDBRANCH  23  25
ENDBRANCH   4  20
TORSDOF 10
ENDMDL
MODEL 3
REMARK VINA RESULT:      -7.8      1.477      1.925
REMARK  Name = 
REMARK  11 active torsions:
REMARK  status: ('A' for Active; 'I' for Inactive)
REMARK    1  A    between atoms: C_1  and  O_2
REMARK    2  A    between atoms: O_2  and  C_3
REMARK    3  A    between atoms: C_3  and  C_5
REMARK    4  A    between atoms: C_5  and  C_6
REMARK    5  A    between atoms: C_6  and  C_7
REMARK    6  A    between atoms: C_7  and  O_8
REMARK    7  A    between atoms: O_8  and  C_9
REMARK    8  A    between atoms: C_12  and  C_13
REMARK    9  A    between atoms: C_16  and  C_17
REMARK   10  A    between atoms: C_20  and  C_21
REMARK   11  A    between atoms: C_21  and  C_22
REMARK                            x       y       z     vdW  Elec       q    Type
REMARK                         _______ _______ _______ _____ _____    ______ ____
ROOT
ATOM      1  C   UNL     1       0.537   9.358  20.837  0.00  0.00    +0.000 A 
ATOM      2  C   UNL     1       0.764   8.138  21.455  0.00  0.00    +0.000 A 
ATOM      3  C   UNL     1       1.612   7.260  20.691  0.00  0.00    +0.000 A 
ATOM      4  C   UNL     1       2.018   7.823  19.501  0.00  0.00    +0.000 A 
ATOM      5  S   UNL     1       1.351   9.392  19.311  0.00  0.00    +0.000 S 
ENDROOT
BRANCH   1   9
ATOM      6  C   UNL     1      -1.821  12.747  22.213  0.00  0.00    +0.000 A 
ATOM      7  C   UNL     1      -1.685  11.594  23.002  0.00  0.00    +0.000 A 
ATOM      8  C   UNL     1      -0.915  10.501  22.552  0.00  0.00    +0.000 A 
ATOM      9  C   UNL     1      -0.279  10.522  21.305  0.00  0.00    +0.000 A 
ATOM     10  C   UNL     1      -0.437  11.674  20.508  0.00  0.00    +0.000 A 
ATOM     11  C   UNL     1      -1.207  12.767  20.969  0.00  0.00    +0.000 A 
BRANCH   6  12
ATOM     12  O   UNL     1      -2.546  13.869  22.559  0.00  0.00    +0.000 OA
BRANCH  12  13
ATOM     13  C   UNL     1      -2.794  14.044  23.962  0.00  0.00    +0.000 C 
BRANCH  13  14
ATOM     14  C   UNL     1      -4.088  14.836  24.194  0.00  0.00    +0.000 C 
BRANCH  14  15
ATOM     15  C   UNL     1      -5.190  14.559  23.168  0.00  0.00    +0.000 C 
BRANCH  15  16
ATOM     16  C   UNL     1      -5.791  13.182  23.360  0.00  0.00    +0.000 C 
ATOM     17  O   UNL     1      -5.355  12.151  22.866  0.00  0.00    +0.000 OA
BRANCH  16  19
ATOM     18  C   UNL     1      -7.727  14.387  23.913  0.00  0.00    +0.000 C 
ATOM     19  O   UNL     1      -6.892  13.253  24.163  0.00  0.00    +0.000 OA
ENDBRANCH  16  19
ENDBRANCH  15  16
ENDBRANCH  14  15
ENDBRANCH  13  14
ENDBRANCH  12  13
ENDBRANCH   6  12
ENDBRANCH   1   9
BRANCH   4  20
ATOM     20  C   UNL     1       2.928   7.158  18.489  0.00  0.00    +0.000 A 
ATOM     21  N   UNL     1       3.487   7.836  17.474  0.00  0.00    +0.000 NA
ATOM     22  O   UNL     1       4.215   6.876  16.779  0.00  0.00    +0.000 OA
ATOM     23  C   UNL     1       4.042   5.689  17.435  0.00  0.00    +0.000 A 
ATOM     24  N   UNL     1       3.253   5.809  18.491  0.00  0.00    +0.000 NA
BRANCH  23  25
ATOM     25  C   UNL     1       4.481   4.486  16.671  0.00  0.00    +0.000 C 
BRANCH  25  26
ATOM     26  C   UNL     1       5.625   4.543  15.693  0.00  0.00    +0.000 A 
ATOM     27  C   UNL     1       6.942   4.669  16.123  0.00  0.00    +0.000 A 
ATOM     28  N   UNL     1       7.558   5.308  15.092  0.00  0.00    +0.000 N 
ATOM     29  C   UNL     1       7.094   4.720  13.952  0.00  0.00    +0.000 A 
ATOM     30  C   UNL     1       7.691   4.608  12.701  0.00  0.00    +0.000 A 
ATOM     31  C   UNL     1       6.993   3.883  11.741  0.00  0.00    +0.000 A 
ATOM     32  C   UNL     1       5.717   3.384  12.021  0.00  0.00    +0.000 A 
ATOM     33  C   UNL     1       5.102   3.591  13.273  0.00  0.00    +0.000 A 
ATOM     34  C   UNL     1       5.817   4.244  14.291  0.00  0.00    +0.000 A 
ATOM     35  H   UNL     1       8.098   6.165  15.137  0.00  0.00    +0.000 HD
ENDBRANCH  25  26
ENDBRANCH  23  25
ENDBRANCH   4  20
TORSDOF 10
ENDMDL
MODEL 4
REMARK VINA RESULT:      -7.8      3.744     11.783
REMARK  Name = 
REMARK  11 active torsions:
REMARK  status: ('A' for Active; 'I' for Inactive)
REMARK    1  A    between atoms: C_1  and  O_2
REMARK    2  A    between atoms: O_2  and  C_3
REMARK    3  A    between atoms: C_3  and  C_5
REMARK    4  A    between atoms: C_5  and  C_6
REMARK    5  A    between atoms: C_6  and  C_7
REMARK    6  A    between atoms: C_7  and  O_8
REMARK    7  A    between atoms: O_8  and  C_9
REMARK    8  A    between atoms: C_12  and  C_13
REMARK    9  A    between atoms: C_16  and  C_17
REMARK   10  A    between atoms: C_20  and  C_21
REMARK   11  A    between atoms: C_21  and  C_22
REMARK                            x       y       z     vdW  Elec       q    Type
REMARK                         _______ _______ _______ _____ _____    ______ ____
ROOT
ATOM      1  C   UNL     1       3.385   6.339  18.902  0.00  0.00    +0.000 A 
ATOM      2  C   UNL     1       2.807   5.613  19.933  0.00  0.00    +0.000 A 
ATOM      3  C   UNL     1       1.839   6.365  20.689  0.00  0.00    +0.000 A 
ATOM      4  C   UNL     1       1.693   7.654  20.224  0.00  0.00    +0.000 A 
ATOM      5  S   UNL     1       2.743   7.945  18.899  0.00  0.00    +0.000 S 
ENDROOT
BRANCH   1   9
ATOM      6  C   UNL     1       6.405   5.128  16.012  0.00  0.00    +0.000 A 
ATOM      7  C   UNL     1       5.543   6.204  15.748  0.00  0.00    +0.000 A 
ATOM      8  C   UNL     1       4.569   6.594  16.692  0.00  0.00    +0.000 A 
ATOM      9  C   UNL     1       4.420   5.917  17.907  0.00  0.00    +0.000 A 
ATOM     10  C   UNL     1       5.274   4.824  18.158  0.00  0.00    +0.000 A 
ATOM     11  C   UNL     1       6.250   4.442  17.209  0.00  0.00    +0.000 A 
BRANCH   6  12
ATOM     12  O   UNL     1       7.390   4.668  15.163  0.00  0.00    +0.000 OA
BRANCH  12  13
ATOM     13  C   UNL     1       7.073   4.702  13.764  0.00  0.00    +0.000 C 
BRANCH  13  14
ATOM     14  C   UNL     1       6.100   3.574  13.395  0.00  0.00    +0.000 C 
BRANCH  14  15
ATOM     15  C   UNL     1       5.265   3.845  12.141  0.00  0.00    +0.000 C 
BRANCH  15  16
ATOM     16  C   UNL     1       4.940   2.561  11.405  0.00  0.00    +0.000 C 
ATOM     17  O   UNL     1       5.672   1.582  11.346  0.00  0.00    +0.000 OA
BRANCH  16  19
ATOM     18  C   UNL     1       3.346   3.978  10.428  0.00  0.00    +0.000 C 
ATOM     19  O   UNL     1       3.715   2.651  10.812  0.00  0.00    +0.000 OA
ENDBRANCH  16  19
ENDBRANCH  15  16
ENDBRANCH  14  15
ENDBRANCH  13  14
ENDBRANCH  12  13
ENDBRANCH   6  12
ENDBRANCH   1   9
BRANCH   4  20
ATOM     20  C   UNL     1       0.740   8.683  20.795  0.00  0.00    +0.000 A 
ATOM     21  N   UNL     1      -0.096   8.400  21.807  0.00  0.00    +0.000 NA
ATOM     22  O   UNL     1      -0.800   9.582  22.011  0.00  0.00    +0.000 OA
ATOM     23  C   UNL     1      -0.328  10.491  21.106  0.00  0.00    +0.000 A 
ATOM     24  N   UNL     1       0.617   9.984  20.330  0.00  0.00    +0.000 NA
BRANCH  23  25
ATOM     25  C   UNL     1      -1.170  11.713  20.954  0.00  0.00    +0.000 C 
BRANCH  25  26
ATOM     26  C   UNL     1      -2.209  11.830  19.870  0.00  0.00    +0.000 A 
ATOM     27  C   UNL     1      -3.096  12.901  19.828  0.00  0.00    +0.000 A 
ATOM     28  N   UNL     1      -4.194  12.387  19.211  0.00  0.00    +0.000 N 
ATOM     29  C   UNL     1      -3.726  11.637  18.172  0.00  0.00    +0.000 A 
ATOM     30  C   UNL     1      -4.337  11.303  16.968  0.00  0.00    +0.000 A 
ATOM     31  C   UNL     1      -3.574  10.570  16.065  0.00  0.00    +0.000 A 
ATOM     32  C   UNL     1      -2.294  10.128  16.416  0.00  0.00    +0.000 A 
ATOM     33  C   UNL     1      -1.736  10.410  17.680  0.00  0.00    +0.000 A 
ATOM     34  C   UNL     1      -2.448  11.220  18.581  0.00  0.00    +0.000 A 
ATOM     35  H   UNL     1      -5.148  12.393  19.552  0.00  0.00    +0.000 HD
ENDBRANCH  25  26
ENDBRANCH  23  25
ENDBRANCH   4  20
TORSDOF 10
ENDMDL
MODEL 5
REMARK VINA RESULT:      -7.7      1.894      2.533
REMARK  Name = 
REMARK  11 active torsions:
REMARK  status: ('A' for Active; 'I' for Inactive)
REMARK    1  A    between atoms: C_1  and  O_2
REMARK    2  A    between atoms: O_2  and  C_3
REMARK    3  A    between atoms: C_3  and  C_5
REMARK    4  A    between atoms: C_5  and  C_6
REMARK    5  A    between atoms: C_6  and  C_7
REMARK    6  A    between atoms: C_7  and  O_8
REMARK    7  A    between atoms: O_8  and  C_9
REMARK    8  A    between atoms: C_12  and  C_13
REMARK    9  A    between atoms: C_16  and  C_17
REMARK   10  A    between atoms: C_20  and  C_21
REMARK   11  A    between atoms: C_21  and  C_22
REMARK                            x       y       z     vdW  Elec       q    Type
REMARK                         _______ _______ _______ _____ _____    ______ ____
ROOT
ATOM      1  C   UNL     1       1.118   9.220  19.764  0.00  0.00    +0.000 A 
ATOM      2  C   UNL     1       1.632   9.429  18.494  0.00  0.00    +0.000 A 
ATOM      3  C   UNL     1       2.370   8.303  17.983  0.00  0.00    +0.000 A 
ATOM      4  C   UNL     1       2.408   7.251  18.873  0.00  0.00    +0.000 A 
ATOM      5  S   UNL     1       1.575   7.647  20.319  0.00  0.00    +0.000 S 
ENDROOT
BRANCH   1   9
ATOM      6  C   UNL     1      -1.226  11.897  22.271  0.00  0.00    +0.000 A 
ATOM      7  C   UNL     1      -0.610  10.757  22.810  0.00  0.00    +0.000 A 
ATOM      8  C   UNL     1       0.152   9.895  21.993  0.00  0.00    +0.000 A 
ATOM      9  C   UNL     1       0.306  10.138  20.623  0.00  0.00    +0.000 A 
ATOM     10  C   UNL     1      -0.332  11.273  20.082  0.00  0.00    +0.000 A 
ATOM     11  C   UNL     1      -1.091  12.133  20.910  0.00  0.00    +0.000 A 
BRANCH   6  12
ATOM     12  O   UNL     1      -1.988  12.802  22.980  0.00  0.00    +0.000 OA
BRANCH  12  13
ATOM     13  C   UNL     1      -1.296  13.971  23.444  0.00  0.00    +0.000 C 
BRANCH  13  14
ATOM     14  C   UNL     1      -2.056  14.632  24.602  0.00  0.00    +0.000 C 
BRANCH  14  15
ATOM     15  C   UNL     1      -3.580  14.515  24.507  0.00  0.00    +0.000 C 
BRANCH  15  16
ATOM     16  C   UNL     1      -4.233  15.876  24.387  0.00  0.00    +0.000 C 
ATOM     17  O   UNL     1      -5.440  16.076  24.367  0.00  0.00    +0.000 OA
BRANCH  16  19
ATOM     18  C   UNL     1      -3.808  18.163  24.080  0.00  0.00    +0.000 C 
ATOM     19  O   UNL     1      -3.283  16.852  24.302  0.00  0.00    +0.000 OA
ENDBRANCH  16  19
ENDBRANCH  15  16
ENDBRANCH  14  15
ENDBRANCH  13  14
ENDBRANCH  12  13
ENDBRANCH   6  12
ENDBRANCH   1   9
BRANCH   4  20
ATOM     20  C   UNL     1       3.089   5.922  18.620  0.00  0.00    +0.000 A 
ATOM     21  N   UNL     1       3.186   4.975  19.568  0.00  0.00    +0.000 NA
ATOM     22  O   UNL     1       3.886   3.944  18.952  0.00  0.00    +0.000 OA
ATOM     23  C   UNL     1       4.154   4.348  17.674  0.00  0.00    +0.000 A 
ATOM     24  N   UNL     1       3.689   5.562  17.422  0.00  0.00    +0.000 NA
BRANCH  23  25
ATOM     25  C   UNL     1       5.165   3.518  16.958  0.00  0.00    +0.000 C 
BRANCH  25  26
ATOM     26  C   UNL     1       6.101   4.112  15.939  0.00  0.00    +0.000 A 
ATOM     27  C   UNL     1       7.310   4.689  16.315  0.00  0.00    +0.000 A 
ATOM     28  N   UNL     1       7.537   5.622  15.351  0.00  0.00    +0.000 N 
ATOM     29  C   UNL     1       7.218   5.024  14.167  0.00  0.00    +0.000 A 
ATOM     30  C   UNL     1       7.687   5.283  12.883  0.00  0.00    +0.000 A 
ATOM     31  C   UNL     1       7.221   4.451  11.870  0.00  0.00    +0.000 A 
ATOM     32  C   UNL     1       6.259   3.473  12.145  0.00  0.00    +0.000 A 
ATOM     33  C   UNL     1       5.738   3.294  13.442  0.00  0.00    +0.000 A 
ATOM     34  C   UNL     1       6.252   4.061  14.502  0.00  0.00    +0.000 A 
ATOM     35  H   UNL     1       7.718   6.610  15.483  0.00  0.00    +0.000 HD
ENDBRANCH  25  26
ENDBRANCH  23  25
ENDBRANCH   4  20
TORSDOF 10
ENDMDL
MODEL 6
REMARK VINA RESULT:      -7.6      1.650      2.309
REMARK  Name = 
REMARK  11 active torsions:
REMARK  status: ('A' for Active; 'I' for Inactive)
REMARK    1  A    between atoms: C_1  and  O_2
REMARK    2  A    between atoms: O_2  and  C_3
REMARK    3  A    between atoms: C_3  and  C_5
REMARK    4  A    between atoms: C_5  and  C_6
REMARK    5  A    between atoms: C_6  and  C_7
REMARK    6  A    between atoms: C_7  and  O_8
REMARK    7  A    between atoms: O_8  and  C_9
REMARK    8  A    between atoms: C_12  and  C_13
REMARK    9  A    between atoms: C_16  and  C_17
REMARK   10  A    between atoms: C_20  and  C_21
REMARK   11  A    between atoms: C_21  and  C_22
REMARK                            x       y       z     vdW  Elec       q    Type
REMARK                         _______ _______ _______ _____ _____    ______ ____
ROOT
ATOM      1  C   UNL     1       0.951   9.622  19.330  0.00  0.00    +0.000 A 
ATOM      2  C   UNL     1       1.500   9.722  18.061  0.00  0.00    +0.000 A 
ATOM      3  C   UNL     1       2.294   8.580  17.691  0.00  0.00    +0.000 A 
ATOM      4  C   UNL     1       2.340   7.625  18.684  0.00  0.00    +0.000 A 
ATOM      5  S   UNL     1       1.445   8.133  20.057  0.00  0.00    +0.000 S 
ENDROOT
BRANCH   1   9
ATOM      6  C   UNL     1      -1.570  12.445  21.479  0.00  0.00    +0.000 A 
ATOM      7  C   UNL     1      -0.926  11.396  22.152  0.00  0.00    +0.000 A 
ATOM      8  C   UNL     1      -0.106  10.487  21.449  0.00  0.00    +0.000 A 
ATOM      9  C   UNL     1       0.078  10.590  20.066  0.00  0.00    +0.000 A 
ATOM     10  C   UNL     1      -0.589  11.634  19.392  0.00  0.00    +0.000 A 
ATOM     11  C   UNL     1      -1.405  12.543  20.104  0.00  0.00    +0.000 A 
BRANCH   6  12
ATOM     12  O   UNL     1      -2.388  13.387  22.068  0.00  0.00    +0.000 OA
BRANCH  12  13
ATOM     13  C   UNL     1      -1.909  14.740  22.033  0.00  0.00    +0.000 C 
BRANCH  13  14
ATOM     14  C   UNL     1      -1.341  15.154  23.397  0.00  0.00    +0.000 C 
BRANCH  14  15
ATOM     15  C   UNL     1      -2.085  14.562  24.597  0.00  0.00    +0.000 C 
BRANCH  15  16
ATOM     16  C   UNL     1      -3.485  15.128  24.714  0.00  0.00    +0.000 C 
ATOM     17  O   UNL     1      -3.758  16.242  25.140  0.00  0.00    +0.000 OA
BRANCH  16  19
ATOM     18  C   UNL     1      -4.226  12.904  24.819  0.00  0.00    +0.000 C 
ATOM     19  O   UNL     1      -4.403  14.217  24.280  0.00  0.00    +0.000 OA
ENDBRANCH  16  19
ENDBRANCH  15  16
ENDBRANCH  14  15
ENDBRANCH  13  14
ENDBRANCH  12  13
ENDBRANCH   6  12
ENDBRANCH   1   9
BRANCH   4  20
ATOM     20  C   UNL     1       3.077   6.305  18.589  0.00  0.00    +0.000 A 
ATOM     21  N   UNL     1       3.458   5.618  19.678  0.00  0.00    +0.000 NA
ATOM     22  O   UNL     1       4.109   4.500  19.168  0.00  0.00    +0.000 OA
ATOM     23  C   UNL     1       4.065   4.598  17.805  0.00  0.00    +0.000 A 
ATOM     24  N   UNL     1       3.445   5.695  17.399  0.00  0.00    +0.000 NA
BRANCH  23  25
ATOM     25  C   UNL     1       4.979   3.665  17.085  0.00  0.00    +0.000 C 
BRANCH  25  26
ATOM     26  C   UNL     1       5.981   4.159  16.075  0.00  0.00    +0.000 A 
ATOM     27  C   UNL     1       7.243   4.600  16.461  0.00  0.00    +0.000 A 
ATOM     28  N   UNL     1       7.575   5.507  15.501  0.00  0.00    +0.000 N 
ATOM     29  C   UNL     1       7.201   4.951  14.313  0.00  0.00    +0.000 A 
ATOM     30  C   UNL     1       7.704   5.162  13.033  0.00  0.00    +0.000 A 
ATOM     31  C   UNL     1       7.157   4.390  12.014  0.00  0.00    +0.000 A 
ATOM     32  C   UNL     1       6.094   3.520  12.279  0.00  0.00    +0.000 A 
ATOM     33  C   UNL     1       5.548   3.393  13.573  0.00  0.00    +0.000 A 
ATOM     34  C   UNL     1       6.135   4.096  14.639  0.00  0.00    +0.000 A 
ATOM     35  H   UNL     1       7.860   6.469  15.639  0.00  0.00    +0.000 HD
ENDBRANCH  25  26
ENDBRANCH  23  25
ENDBRANCH   4  20
TORSDOF 10
ENDMDL
MODEL 7
REMARK VINA RESULT:      -7.5      3.737     12.700
REMARK  Name = 
REMARK  11 active torsions:
REMARK  status: ('A' for Active; 'I' for Inactive)
REMARK    1  A    between atoms: C_1  and  O_2
REMARK    2  A    between atoms: O_2  and  C_3
REMARK    3  A    between atoms: C_3  and  C_5
REMARK    4  A    between atoms: C_5  and  C_6
REMARK    5  A    between atoms: C_6  and  C_7
REMARK    6  A    between atoms: C_7  and  O_8
REMARK    7  A    between atoms: O_8  and  C_9
REMARK    8  A    between atoms: C_12  and  C_13
REMARK    9  A    between atoms: C_16  and  C_17
REMARK   10  A    between atoms: C_20  and  C_21
REMARK   11  A    between atoms: C_21  and  C_22
REMARK                            x       y       z     vdW  Elec       q    Type
REMARK                         _______ _______ _______ _____ _____    ______ ____
ROOT
ATOM      1  C   UNL     1       2.531   7.698  18.424  0.00  0.00    +0.000 A 
ATOM      2  C   UNL     1       2.017   8.862  17.876  0.00  0.00    +0.000 A 
ATOM      3  C   UNL     1       1.190   9.607  18.789  0.00  0.00    +0.000 A 
ATOM      4  C   UNL     1       1.085   8.999  20.021  0.00  0.00    +0.000 A 
ATOM      5  S   UNL     1       1.965   7.527  20.050  0.00  0.00    +0.000 S 
ENDROOT
BRANCH   1   9
ATOM      6  C   UNL     1       5.135   4.707  16.630  0.00  0.00    +0.000 A 
ATOM      7  C   UNL     1       5.457   6.072  16.574  0.00  0.00    +0.000 A 
ATOM      8  C   UNL     1       4.610   7.036  17.162  0.00  0.00    +0.000 A 
ATOM      9  C   UNL     1       3.422   6.668  17.802  0.00  0.00    +0.000 A 
ATOM     10  C   UNL     1       3.093   5.297  17.837  0.00  0.00    +0.000 A 
ATOM     11  C   UNL     1       3.949   4.338  17.249  0.00  0.00    +0.000 A 
BRANCH   6  12
ATOM     12  O   UNL     1       5.892   3.687  16.093  0.00  0.00    +0.000 OA
BRANCH  12  13
ATOM     13  C   UNL     1       6.598   4.003  14.884  0.00  0.00    +0.000 C 
BRANCH  13  14
ATOM     14  C   UNL     1       5.642   4.029  13.684  0.00  0.00    +0.000 C 
BRANCH  14  15
ATOM     15  C   UNL     1       6.225   3.434  12.399  0.00  0.00    +0.000 C 
BRANCH  15  16
ATOM     16  C   UNL     1       5.163   2.716  11.591  0.00  0.00    +0.000 C 
ATOM     17  O   UNL     1       4.078   3.190  11.282  0.00  0.00    +0.000 OA
BRANCH  16  19
ATOM     18  C   UNL     1       6.994   1.363  11.025  0.00  0.00    +0.000 C 
ATOM     19  O   UNL     1       5.586   1.463  11.258  0.00  0.00    +0.000 OA
ENDBRANCH  16  19
ENDBRANCH  15  16
ENDBRANCH  14  15
ENDBRANCH  13  14
ENDBRANCH  12  13
ENDBRANCH   6  12
ENDBRANCH   1   9
BRANCH   4  20
ATOM     20  C   UNL     1       0.303   9.545  21.198  0.00  0.00    +0.000 A 
ATOM     21  N   UNL     1      -0.268   8.743  22.112  0.00  0.00    +0.000 NA
ATOM     22  O   UNL     1      -0.895   9.619  22.991  0.00  0.00    +0.000 OA
ATOM     23  C   UNL     1      -0.648  10.886  22.541  0.00  0.00    +0.000 A 
ATOM     24  N   UNL     1       0.081  10.893  21.436  0.00  0.00    +0.000 NA
BRANCH  23  25
ATOM     25  C   UNL     1      -1.494  11.944  23.165  0.00  0.00    +0.000 C 
BRANCH  25  26
ATOM     26  C   UNL     1      -1.905  13.179  22.407  0.00  0.00    +0.000 A 
ATOM     27  C   UNL     1      -3.244  13.471  22.168  0.00  0.00    +0.000 A 
ATOM     28  N   UNL     1      -3.217  14.187  21.011  0.00  0.00    +0.000 N 
ATOM     29  C   UNL     1      -2.171  15.055  21.131  0.00  0.00    +0.000 A 
ATOM     30  C   UNL     1      -1.968  16.294  20.532  0.00  0.00    +0.000 A 
ATOM     31  C   UNL     1      -0.821  16.986  20.905  0.00  0.00    +0.000 A 
ATOM     32  C   UNL     1       0.108  16.400  21.770  0.00  0.00    +0.000 A 
ATOM     33  C   UNL     1      -0.084  15.104  22.292  0.00  0.00    +0.000 A 
ATOM     34  C   UNL     1      -1.274  14.415  22.002  0.00  0.00    +0.000 A 
ATOM     35  H   UNL     1      -3.731  13.997  20.159  0.00  0.00    +0.000 HD
ENDBRANCH  25  26
ENDBRANCH  23  25
ENDBRANCH   4  20
TORSDOF 10
ENDMDL
MODEL 8
REMARK VINA RESULT:      -7.5      3.172      4.864
REMARK  Name = 
REMARK  11 active torsions:
REMARK  status: ('A' for Active; 'I' for Inactive)
REMARK    1  A    between atoms: C_1  and  O_2
REMARK    2  A    between atoms: O_2  and  C_3
REMARK    3  A    between atoms: C_3  and  C_5
REMARK    4  A    between atoms: C_5  and  C_6
REMARK    5  A    between atoms: C_6  and  C_7
REMARK    6  A    between atoms: C_7  and  O_8
REMARK    7  A    between atoms: O_8  and  C_9
REMARK    8  A    between atoms: C_12  and  C_13
REMARK    9  A    between atoms: C_16  and  C_17
REMARK   10  A    between atoms: C_20  and  C_21
REMARK   11  A    between atoms: C_21  and  C_22
REMARK                            x       y       z     vdW  Elec       q    Type
REMARK                         _______ _______ _______ _____ _____    ______ ____
ROOT
ATOM      1  C   UNL     1      -1.028  11.328  20.659  0.00  0.00    +0.000 A 
ATOM      2  C   UNL     1      -0.395  10.512  21.585  0.00  0.00    +0.000 A 
ATOM      3  C   UNL     1       0.595   9.646  21.001  0.00  0.00    +0.000 A 
ATOM      4  C   UNL     1       0.702   9.812  19.637  0.00  0.00    +0.000 A 
ATOM      5  S   UNL     1      -0.410  10.993  19.079  0.00  0.00    +0.000 S 
ENDROOT
BRANCH   1   9
ATOM      6  C   UNL     1      -4.158  14.286  21.283  0.00  0.00    +0.000 A 
ATOM      7  C   UNL     1      -4.300  13.278  20.317  0.00  0.00    +0.000 A 
ATOM      8  C   UNL     1      -3.283  12.319  20.123  0.00  0.00    +0.000 A 
ATOM      9  C   UNL     1      -2.100  12.350  20.871  0.00  0.00    +0.000 A 
ATOM     10  C   UNL     1      -1.954  13.378  21.825  0.00  0.00    +0.000 A 
ATOM     11  C   UNL     1      -2.980  14.332  22.015  0.00  0.00    +0.000 A 
BRANCH   6  12
ATOM     12  O   UNL     1      -5.089  15.267  21.554  0.00  0.00    +0.000 OA
BRANCH  12  13
ATOM     13  C   UNL     1      -5.004  15.866  22.856  0.00  0.00    +0.000 C 
BRANCH  13  14
ATOM     14  C   UNL     1      -5.811  15.060  23.882  0.00  0.00    +0.000 C 
BRANCH  14  15
ATOM     15  C   UNL     1      -6.882  14.152  23.272  0.00  0.00    +0.000 C 
BRANCH  15  16
ATOM     16  C   UNL     1      -6.578  12.689  23.527  0.00  0.00    +0.000 C 
ATOM     17  O   UNL     1      -5.780  12.273  24.355  0.00  0.00    +0.000 OA
BRANCH  16  19
ATOM     18  C   UNL     1      -7.787  12.564  21.520  0.00  0.00    +0.000 C 
ATOM     19  O   UNL     1      -7.320  11.900  22.698  0.00  0.00    +0.000 OA
ENDBRANCH  16  19
ENDBRANCH  15  16
ENDBRANCH  14  15
ENDBRANCH  13  14
ENDBRANCH  12  13
ENDBRANCH   6  12
ENDBRANCH   1   9
BRANCH   4  20
ATOM     20  C   UNL     1       1.666   9.062  18.741  0.00  0.00    +0.000 A 
ATOM     21  N   UNL     1       1.993   9.499  17.515  0.00  0.00    +0.000 NA
ATOM     22  O   UNL     1       2.865   8.532  17.027  0.00  0.00    +0.000 OA
ATOM     23  C   UNL     1       3.001   7.585  18.003  0.00  0.00    +0.000 A 
ATOM     24  N   UNL     1       2.278   7.863  19.077  0.00  0.00    +0.000 NA
BRANCH  23  25
ATOM     25  C   UNL     1       3.641   6.316  17.553  0.00  0.00    +0.000 C 
BRANCH  25  26
ATOM     26  C   UNL     1       3.125   4.970  17.988  0.00  0.00    +0.000 A 
ATOM     27  C   UNL     1       3.358   3.825  17.233  0.00  0.00    +0.000 A 
ATOM     28  N   UNL     1       2.294   3.026  17.520  0.00  0.00    +0.000 N 
ATOM     29  C   UNL     1       2.102   3.126  18.867  0.00  0.00    +0.000 A 
ATOM     30  C   UNL     1       1.531   2.220  19.755  0.00  0.00    +0.000 A 
ATOM     31  C   UNL     1       1.535   2.578  21.099  0.00  0.00    +0.000 A 
ATOM     32  C   UNL     1       2.013   3.831  21.495  0.00  0.00    +0.000 A 
ATOM     33  C   UNL     1       2.505   4.764  20.559  0.00  0.00    +0.000 A 
ATOM     34  C   UNL     1       2.593   4.397  19.205  0.00  0.00    +0.000 A 
ATOM     35  H   UNL     1       1.653   2.598  16.863  0.00  0.00    +0.000 HD
ENDBRANCH  25  26
ENDBRANCH  23  25
ENDBRANCH   4  20
TORSDOF 10
ENDMDL
MODEL 9
REMARK VINA RESULT:      -7.5      3.550     12.908
REMARK  Name = 
REMARK  11 active torsions:
REMARK  status: ('A' for Active; 'I' for Inactive)
REMARK    1  A    between atoms: C_1  and  O_2
REMARK    2  A    between atoms: O_2  and  C_3
REMARK    3  A    between atoms: C_3  and  C_5
REMARK    4  A    between atoms: C_5  and  C_6
REMARK    5  A    between atoms: C_6  and  C_7
REMARK    6  A    between atoms: C_7  and  O_8
REMARK    7  A    between atoms: O_8  and  C_9
REMARK    8  A    between atoms: C_12  and  C_13
REMARK    9  A    between atoms: C_16  and  C_17
REMARK   10  A    between atoms: C_20  and  C_21
REMARK   11  A    between atoms: C_21  and  C_22
REMARK                            x       y       z     vdW  Elec       q    Type
REMARK                         _______ _______ _______ _____ _____    ______ ____
ROOT
ATOM      1  C   UNL     1       1.502   8.360  20.084  0.00  0.00    +0.000 A 
ATOM      2  C   UNL     1       1.092   8.601  21.387  0.00  0.00    +0.000 A 
ATOM      3  C   UNL     1       0.395   9.851  21.544  0.00  0.00    +0.000 A 
ATOM      4  C   UNL     1       0.284  10.545  20.358  0.00  0.00    +0.000 A 
ATOM      5  S   UNL     1       1.044   9.691  19.080  0.00  0.00    +0.000 S 
ENDROOT
BRANCH   1   9
ATOM      6  C   UNL     1       3.647   4.941  18.455  0.00  0.00    +0.000 A 
ATOM      7  C   UNL     1       2.997   4.861  19.697  0.00  0.00    +0.000 A 
ATOM      8  C   UNL     1       2.299   5.972  20.217  0.00  0.00    +0.000 A 
ATOM      9  C   UNL     1       2.246   7.187  19.525  0.00  0.00    +0.000 A 
ATOM     10  C   UNL     1       2.918   7.268  18.288  0.00  0.00    +0.000 A 
ATOM     11  C   UNL     1       3.611   6.149  17.773  0.00  0.00    +0.000 A 
BRANCH   6  12
ATOM     12  O   UNL     1       4.351   3.917  17.856  0.00  0.00    +0.000 OA
BRANCH  12  13
ATOM     13  C   UNL     1       4.246   3.839  16.427  0.00  0.00    +0.000 C 
BRANCH  13  14
ATOM     14  C   UNL     1       5.610   3.534  15.794  0.00  0.00    +0.000 C 
BRANCH  14  15
ATOM     15  C   UNL     1       6.402   4.775  15.372  0.00  0.00    +0.000 C 
BRANCH  15  16
ATOM     16  C   UNL     1       7.393   5.188  16.442  0.00  0.00    +0.000 C 
ATOM     17  O   UNL     1       8.007   4.416  17.165  0.00  0.00    +0.000 OA
BRANCH  16  19
ATOM     18  C   UNL     1       7.591   7.084  17.810  0.00  0.00    +0.000 C 
ATOM     19  O   UNL     1       7.501   6.547  16.487  0.00  0.00    +0.000 OA
ENDBRANCH  16  19
ENDBRANCH  15  16
ENDBRANCH  14  15
ENDBRANCH  13  14
ENDBRANCH  12  13
ENDBRANCH   6  12
ENDBRANCH   1   9
BRANCH   4  20
ATOM     20  C   UNL     1      -0.411  11.881  20.193  0.00  0.00    +0.000 A 
ATOM     21  N   UNL     1       0.160  12.911  19.549  0.00  0.00    +0.000 NA
ATOM     22  O   UNL     1      -0.777  13.934  19.639  0.00  0.00    +0.000 OA
ATOM     23  C   UNL     1      -1.847  13.438  20.329  0.00  0.00    +0.000 A 
ATOM     24  N   UNL     1      -1.668  12.179  20.698  0.00  0.00    +0.000 NA
BRANCH  23  25
ATOM     25  C   UNL     1      -2.815  14.470  20.801  0.00  0.00    +0.000 C 
BRANCH  25  26
ATOM     26  C   UNL     1      -4.215  14.110  21.223  0.00  0.00    +0.000 A 
ATOM     27  C   UNL     1      -5.246  13.998  20.294  0.00  0.00    +0.000 A 
ATOM     28  N   UNL     1      -6.360  14.311  21.009  0.00  0.00    +0.000 N 
ATOM     29  C   UNL     1      -6.230  13.673  22.208  0.00  0.00    +0.000 A 
ATOM     30  C   UNL     1      -7.207  13.232  23.095  0.00  0.00    +0.000 A 
ATOM     31  C   UNL     1      -6.764  12.545  24.219  0.00  0.00    +0.000 A 
ATOM     32  C   UNL     1      -5.395  12.400  24.465  0.00  0.00    +0.000 A 
ATOM     33  C   UNL     1      -4.426  12.935  23.591  0.00  0.00    +0.000 A 
ATOM     34  C   UNL     1      -4.843  13.560  22.403  0.00  0.00    +0.000 A 
ATOM     35  H   UNL     1      -7.052  15.018  20.789  0.00  0.00    +0.000 HD
ENDBRANCH  25  26
ENDBRANCH  23  25
ENDBRANCH   4  20
TORSDOF 10
ENDMDL
