MODEL 1
REMARK VINA RESULT:      -9.1      0.000      0.000
REMARK  Name = 
REMARK  7 active torsions:
REMARK  status: ('A' for Active; 'I' for Inactive)
REMARK    1  A    between atoms: C_2  and  C_3
REMARK    2  A    between atoms: C_2  and  C_18
REMARK    3  A    between atoms: C_3  and  C_4
REMARK    4  A    between atoms: C_4  and  C_5
REMARK    5  A    between atoms: C_8  and  N_9
REMARK    6  A    between atoms: N_9  and  C_10
REMARK    7  A    between atoms: C_21  and  C_22
REMARK                            x       y       z     vdW  Elec       q    Type
REMARK                         _______ _______ _______ _____ _____    ______ ____
ROOT
ATOM      1  C   UNL     1       2.580   3.959  17.485  0.00  0.00    +0.000 C 
ENDROOT
BRANCH   1   2
ATOM      2  C   UNL     1       2.281   4.994  18.541  0.00  0.00    +0.000 A 
ATOM      3  C   UNL     1       2.587   6.344  18.333  0.00  0.00    +0.000 A 
ATOM      4  C   UNL     1       2.348   7.292  19.336  0.00  0.00    +0.000 A 
ATOM      5  C   UNL     1       1.786   6.918  20.562  0.00  0.00    +0.000 A 
ATOM      6  C   UNL     1       1.483   5.566  20.763  0.00  0.00    +0.000 A 
ATOM      7  C   UNL     1       1.726   4.613  19.769  0.00  0.00    +0.000 A 
BRANCH   5   8
ATOM      8  N   UNL     1       1.613   7.877  21.584  0.00  0.00    +0.000 N 
ATOM      9  H   UNL     1       2.483   8.124  22.047  0.00  0.00    +0.000 HD
BRANCH   8  10
ATOM     10  C   UNL     1       0.720   8.972  21.607  0.00  0.00    +0.000 A 
ATOM     11  C   UNL     1       0.246   9.433  22.842  0.00  0.00    +0.000 A 
ATOM     12  C   UNL     1      -0.613  10.533  22.913  0.00  0.00    +0.000 A 
ATOM     13  C   UNL     1      -0.988  11.200  21.748  0.00  0.00    +0.000 A 
ATOM     14  C   UNL     1      -0.504  10.767  20.517  0.00  0.00    +0.000 A 
ATOM     15  C   UNL     1       0.347   9.660  20.448  0.00  0.00    +0.000 A 
ENDBRANCH   8  10
ENDBRANCH   5   8
ENDBRANCH   1   2
BRANCH   1  16
ATOM     16  C   UNL     1       3.390   2.793  18.042  0.00  0.00    +0.000 C 
BRANCH  16  18
ATOM     17  O   UNL     1       4.953   3.073  19.824  0.00  0.00    +0.000 OA
ATOM     18  C   UNL     1       4.695   3.292  18.637  0.00  0.00    +0.000 C 
BRANCH  18  19
ATOM     19  C   UNL     1       5.560   4.042  17.743  0.00  0.00    +0.000 A 
ATOM     20  N   UNL     1       6.409   4.989  18.100  0.00  0.00    +0.000 NA
ATOM     21  C   UNL     1       6.980   5.378  16.913  0.00  0.00    +0.000 A 
ATOM     22  C   UNL     1       6.462   4.651  15.867  0.00  0.00    +0.000 A 
ATOM     23  O   UNL     1       5.539   3.783  16.394  0.00  0.00    +0.000 OA
BRANCH  22  24
ATOM     24  C   UNL     1       6.719   4.609  14.440  0.00  0.00    +0.000 A 
ATOM     25  C   UNL     1       6.073   3.731  13.577  0.00  0.00    +0.000 A 
ATOM     26  C   UNL     1       6.447   3.718  12.234  0.00  0.00    +0.000 A 
ATOM     27  C   UNL     1       7.442   4.583  11.795  0.00  0.00    +0.000 A 
ATOM     28  C   UNL     1       8.016   5.441  12.716  0.00  0.00    +0.000 A 
ATOM     29  N   UNL     1       7.677   5.476  14.023  0.00  0.00    +0.000 NA
ENDBRANCH  22  24
ENDBRANCH  18  19
ENDBRANCH  16  18
ENDBRANCH   1  16
TORSDOF 7
ENDMDL
MODEL 2
REMARK VINA RESULT:      -8.9      1.720      2.669
REMARK  Name = 
REMARK  7 active torsions:
REMARK  status: ('A' for Active; 'I' for Inactive)
REMARK    1  A    between atoms: C_2  and  C_3
REMARK    2  A    between atoms: C_2  and  C_18
REMARK    3  A    between atoms: C_3  and  C_4
REMARK    4  A    between atoms: C_4  and  C_5
REMARK    5  A    between atoms: C_8  and  N_9
REMARK    6  A    between atoms: N_9  and  C_10
REMARK    7  A    between atoms: C_21  and  C_22
REMARK                            x       y       z     vdW  Elec       q    Type
REMARK                         _______ _______ _______ _____ _____    ______ ____
ROOT
ATOM      1  C   UNL     1       3.461   6.325  17.930  0.00  0.00    +0.000 C 
ENDROOT
BRANCH   1   2
ATOM      2  C   UNL     1       2.645   7.474  18.469  0.00  0.00    +0.000 A 
ATOM      3  C   UNL     1       2.119   7.437  19.766  0.00  0.00    +0.000 A 
ATOM      4  C   UNL     1       1.324   8.487  20.243  0.00  0.00    +0.000 A 
ATOM      5  C   UNL     1       1.048   9.603  19.444  0.00  0.00    +0.000 A 
ATOM      6  C   UNL     1       1.577   9.632  18.148  0.00  0.00    +0.000 A 
ATOM      7  C   UNL     1       2.365   8.583  17.663  0.00  0.00    +0.000 A 
BRANCH   5   8
ATOM      8  N   UNL     1       0.191  10.620  19.919  0.00  0.00    +0.000 N 
ATOM      9  H   UNL     1       0.692  11.445  20.234  0.00  0.00    +0.000 HD
BRANCH   8  10
ATOM     10  C   UNL     1      -1.085  10.979  19.430  0.00  0.00    +0.000 A 
ATOM     11  C   UNL     1      -1.626  10.259  18.358  0.00  0.00    +0.000 A 
ATOM     12  C   UNL     1      -2.899  10.559  17.865  0.00  0.00    +0.000 A 
ATOM     13  C   UNL     1      -3.655  11.569  18.456  0.00  0.00    +0.000 A 
ATOM     14  C   UNL     1      -3.138  12.276  19.538  0.00  0.00    +0.000 A 
ATOM     15  C   UNL     1      -1.862  11.980  20.024  0.00  0.00    +0.000 A 
ENDBRANCH   8  10
ENDBRANCH   5   8
ENDBRANCH   1   2
BRANCH   1  16
ATOM     16  C   UNL     1       3.033   4.991  18.532  0.00  0.00    +0.000 C 
BRANCH  16  18
ATOM     17  O   UNL     1       4.224   3.341  19.779  0.00  0.00    +0.000 OA
ATOM     18  C   UNL     1       4.248   4.131  18.831  0.00  0.00    +0.000 C 
BRANCH  18  19
ATOM     19  C   UNL     1       5.401   4.329  17.969  0.00  0.00    +0.000 A 
ATOM     20  N   UNL     1       6.638   4.557  18.370  0.00  0.00    +0.000 NA
ATOM     21  C   UNL     1       7.345   4.668  17.198  0.00  0.00    +0.000 A 
ATOM     22  C   UNL     1       6.513   4.501  16.116  0.00  0.00    +0.000 A 
ATOM     23  O   UNL     1       5.250   4.282  16.604  0.00  0.00    +0.000 OA
BRANCH  22  24
ATOM     24  C   UNL     1       6.716   4.476  14.679  0.00  0.00    +0.000 A 
ATOM     25  C   UNL     1       6.026   3.619  13.829  0.00  0.00    +0.000 A 
ATOM     26  C   UNL     1       6.350   3.620  12.474  0.00  0.00    +0.000 A 
ATOM     27  C   UNL     1       7.340   4.477  12.009  0.00  0.00    +0.000 A 
ATOM     28  C   UNL     1       7.960   5.314  12.919  0.00  0.00    +0.000 A 
ATOM     29  N   UNL     1       7.671   5.335  14.239  0.00  0.00    +0.000 NA
ENDBRANCH  22  24
ENDBRANCH  18  19
ENDBRANCH  16  18
ENDBRANCH   1  16
TORSDOF 7
ENDMDL
MODEL 3
REMARK VINA RESULT:      -8.7      1.657      2.131
REMARK  Name = 
REMARK  7 active torsions:
REMARK  status: ('A' for Active; 'I' for Inactive)
REMARK    1  A    between atoms: C_2  and  C_3
REMARK    2  A    between atoms: C_2  and  C_18
REMARK    3  A    between atoms: C_3  and  C_4
REMARK    4  A    between atoms: C_4  and  C_5
REMARK    5  A    between atoms: C_8  and  N_9
REMARK    6  A    between atoms: N_9  and  C_10
REMARK    7  A    between atoms: C_21  and  C_22
REMARK                            x       y       z     vdW  Elec       q    Type
REMARK                         _______ _______ _______ _____ _____    ______ ____
ROOT
ATOM      1  C   UNL     1       2.688   4.452  20.009  0.00  0.00    +0.000 C 
ENDROOT
BRANCH   1   2
ATOM      2  C   UNL     1       2.360   5.873  19.619  0.00  0.00    +0.000 A 
ATOM      3  C   UNL     1       2.638   6.346  18.331  0.00  0.00    +0.000 A 
ATOM      4  C   UNL     1       2.372   7.679  17.989  0.00  0.00    +0.000 A 
ATOM      5  C   UNL     1       1.812   8.564  18.918  0.00  0.00    +0.000 A 
ATOM      6  C   UNL     1       1.538   8.082  20.205  0.00  0.00    +0.000 A 
ATOM      7  C   UNL     1       1.808   6.755  20.554  0.00  0.00    +0.000 A 
BRANCH   5   8
ATOM      8  N   UNL     1       1.613   9.919  18.576  0.00  0.00    +0.000 N 
ATOM      9  H   UNL     1       2.213  10.228  17.817  0.00  0.00    +0.000 HD
BRANCH   8  10
ATOM     10  C   UNL     1       0.400  10.643  18.566  0.00  0.00    +0.000 A 
ATOM     11  C   UNL     1       0.411  11.988  18.956  0.00  0.00    +0.000 A 
ATOM     12  C   UNL     1      -0.760  12.751  18.930  0.00  0.00    +0.000 A 
ATOM     13  C   UNL     1      -1.952  12.182  18.488  0.00  0.00    +0.000 A 
ATOM     14  C   UNL     1      -1.972  10.852  18.074  0.00  0.00    +0.000 A 
ATOM     15  C   UNL     1      -0.802  10.089  18.110  0.00  0.00    +0.000 A 
ENDBRANCH   8  10
ENDBRANCH   5   8
ENDBRANCH   1   2
BRANCH   1  16
ATOM     16  C   UNL     1       3.233   3.650  18.833  0.00  0.00    +0.000 C 
BRANCH  16  18
ATOM     17  O   UNL     1       5.022   2.555  19.972  0.00  0.00    +0.000 OA
ATOM     18  C   UNL     1       4.697   3.313  19.054  0.00  0.00    +0.000 C 
BRANCH  18  19
ATOM     19  C   UNL     1       5.644   3.955  18.158  0.00  0.00    +0.000 A 
ATOM     20  N   UNL     1       6.662   4.713  18.521  0.00  0.00    +0.000 NA
ATOM     21  C   UNL     1       7.243   5.070  17.329  0.00  0.00    +0.000 A 
ATOM     22  C   UNL     1       6.559   4.514  16.273  0.00  0.00    +0.000 A 
ATOM     23  O   UNL     1       5.519   3.790  16.799  0.00  0.00    +0.000 OA
BRANCH  22  24
ATOM     24  C   UNL     1       6.743   4.519  14.834  0.00  0.00    +0.000 A 
ATOM     25  C   UNL     1       6.030   3.690  13.974  0.00  0.00    +0.000 A 
ATOM     26  C   UNL     1       6.337   3.718  12.615  0.00  0.00    +0.000 A 
ATOM     27  C   UNL     1       7.333   4.572  12.156  0.00  0.00    +0.000 A 
ATOM     28  C   UNL     1       7.975   5.380  13.077  0.00  0.00    +0.000 A 
ATOM     29  N   UNL     1       7.703   5.376  14.401  0.00  0.00    +0.000 NA
ENDBRANCH  22  24
ENDBRANCH  18  19
ENDBRANCH  16  18
ENDBRANCH   1  16
TORSDOF 7
ENDMDL
MODEL 4
REMARK VINA RESULT:      -8.5      1.031      1.428
REMARK  Name = 
REMARK  7 active torsions:
REMARK  status: ('A' for Active; 'I' for Inactive)
REMARK    1  A    between atoms: C_2  and  C_3
REMARK    2  A    between atoms: C_2  and  C_18
REMARK    3  A    between atoms: C_3  and  C_4
REMARK    4  A    between atoms: C_4  and  C_5
REMARK    5  A    between atoms: C_8  and  N_9
REMARK    6  A    between atoms: N_9  and  C_10
REMARK    7  A    between atoms: C_21  and  C_22
REMARK                            x       y       z     vdW  Elec       q    Type
REMARK                         _______ _______ _______ _____ _____    ______ ____
ROOT
ATOM      1  C   UNL     1       3.169   5.285  17.809  0.00  0.00    +0.000 C 
ENDROOT
BRANCH   1   2
ATOM      2  C   UNL     1       2.592   6.570  18.349  0.00  0.00    +0.000 A 
ATOM      3  C   UNL     1       2.352   7.661  17.505  0.00  0.00    +0.000 A 
ATOM      4  C   UNL     1       1.859   8.866  18.021  0.00  0.00    +0.000 A 
ATOM      5  C   UNL     1       1.581   9.006  19.386  0.00  0.00    +0.000 A 
ATOM      6  C   UNL     1       1.825   7.911  20.224  0.00  0.00    +0.000 A 
ATOM      7  C   UNL     1       2.324   6.707  19.716  0.00  0.00    +0.000 A 
BRANCH   5   8
ATOM      8  N   UNL     1       1.148  10.249  19.897  0.00  0.00    +0.000 N 
ATOM      9  H   UNL     1       1.025  10.953  19.176  0.00  0.00    +0.000 HD
BRANCH   8  10
ATOM     10  C   UNL     1       0.255  10.485  20.967  0.00  0.00    +0.000 A 
ATOM     11  C   UNL     1       0.355   9.694  22.119  0.00  0.00    +0.000 A 
ATOM     12  C   UNL     1      -0.485   9.915  23.213  0.00  0.00    +0.000 A 
ATOM     13  C   UNL     1      -1.421  10.946  23.176  0.00  0.00    +0.000 A 
ATOM     14  C   UNL     1      -1.514  11.755  22.046  0.00  0.00    +0.000 A 
ATOM     15  C   UNL     1      -0.679  11.527  20.950  0.00  0.00    +0.000 A 
ENDBRANCH   8  10
ENDBRANCH   5   8
ENDBRANCH   1   2
BRANCH   1  16
ATOM     16  C   UNL     1       3.164   4.175  18.854  0.00  0.00    +0.000 C 
BRANCH  16  18
ATOM     17  O   UNL     1       4.773   2.740  19.880  0.00  0.00    +0.000 OA
ATOM     18  C   UNL     1       4.554   3.584  19.005  0.00  0.00    +0.000 C 
BRANCH  18  19
ATOM     19  C   UNL     1       5.569   4.094  18.099  0.00  0.00    +0.000 A 
ATOM     20  N   UNL     1       6.678   4.720  18.451  0.00  0.00    +0.000 NA
ATOM     21  C   UNL     1       7.292   4.993  17.253  0.00  0.00    +0.000 A 
ATOM     22  C   UNL     1       6.535   4.522  16.206  0.00  0.00    +0.000 A 
ATOM     23  O   UNL     1       5.416   3.939  16.743  0.00  0.00    +0.000 OA
BRANCH  22  24
ATOM     24  C   UNL     1       6.709   4.494  14.765  0.00  0.00    +0.000 A 
ATOM     25  C   UNL     1       5.995   3.642  13.930  0.00  0.00    +0.000 A 
ATOM     26  C   UNL     1       6.291   3.640  12.568  0.00  0.00    +0.000 A 
ATOM     27  C   UNL     1       7.279   4.488  12.083  0.00  0.00    +0.000 A 
ATOM     28  C   UNL     1       7.924   5.321  12.980  0.00  0.00    +0.000 A 
ATOM     29  N   UNL     1       7.662   5.345  14.305  0.00  0.00    +0.000 NA
ENDBRANCH  22  24
ENDBRANCH  18  19
ENDBRANCH  16  18
ENDBRANCH   1  16
TORSDOF 7
ENDMDL
MODEL 5
REMARK VINA RESULT:      -8.5      1.029      1.604
REMARK  Name = 
REMARK  7 active torsions:
REMARK  status: ('A' for Active; 'I' for Inactive)
REMARK    1  A    between atoms: C_2  and  C_3
REMARK    2  A    between atoms: C_2  and  C_18
REMARK    3  A    between atoms: C_3  and  C_4
REMARK    4  A    between atoms: C_4  and  C_5
REMARK    5  A    between atoms: C_8  and  N_9
REMARK    6  A    between atoms: N_9  and  C_10
REMARK    7  A    between atoms: C_21  and  C_22
REMARK                            x       y       z     vdW  Elec       q    Type
REMARK                         _______ _______ _______ _____ _____    ______ ____
ROOT
ATOM      1  C   UNL     1       2.186   3.406  19.304  0.00  0.00    +0.000 C 
ENDROOT
BRANCH   1   2
ATOM      2  C   UNL     1       2.055   4.909  19.328  0.00  0.00    +0.000 A 
ATOM      3  C   UNL     1       2.275   5.668  18.173  0.00  0.00    +0.000 A 
ATOM      4  C   UNL     1       2.197   7.067  18.214  0.00  0.00    +0.000 A 
ATOM      5  C   UNL     1       1.882   7.737  19.403  0.00  0.00    +0.000 A 
ATOM      6  C   UNL     1       1.664   6.970  20.554  0.00  0.00    +0.000 A 
ATOM      7  C   UNL     1       1.749   5.574  20.521  0.00  0.00    +0.000 A 
BRANCH   5   8
ATOM      8  N   UNL     1       1.872   9.148  19.439  0.00  0.00    +0.000 N 
ATOM      9  H   UNL     1       2.575   9.565  18.837  0.00  0.00    +0.000 HD
BRANCH   8  10
ATOM     10  C   UNL     1       0.755  10.006  19.553  0.00  0.00    +0.000 A 
ATOM     11  C   UNL     1      -0.059  10.211  18.432  0.00  0.00    +0.000 A 
ATOM     12  C   UNL     1      -1.192  11.025  18.509  0.00  0.00    +0.000 A 
ATOM     13  C   UNL     1      -1.537  11.625  19.718  0.00  0.00    +0.000 A 
ATOM     14  C   UNL     1      -0.750  11.411  20.846  0.00  0.00    +0.000 A 
ATOM     15  C   UNL     1       0.388  10.603  20.764  0.00  0.00    +0.000 A 
ENDBRANCH   8  10
ENDBRANCH   5   8
ENDBRANCH   1   2
BRANCH   1  16
ATOM     16  C   UNL     1       3.275   2.944  18.341  0.00  0.00    +0.000 C 
BRANCH  16  18
ATOM     17  O   UNL     1       4.876   2.874  20.109  0.00  0.00    +0.000 OA
ATOM     18  C   UNL     1       4.649   3.191  18.938  0.00  0.00    +0.000 C 
BRANCH  18  19
ATOM     19  C   UNL     1       5.620   3.833  18.069  0.00  0.00    +0.000 A 
ATOM     20  N   UNL     1       6.663   4.541  18.461  0.00  0.00    +0.000 NA
ATOM     21  C   UNL     1       7.259   4.923  17.284  0.00  0.00    +0.000 A 
ATOM     22  C   UNL     1       6.558   4.432  16.208  0.00  0.00    +0.000 A 
ATOM     23  O   UNL     1       5.493   3.725  16.705  0.00  0.00    +0.000 OA
BRANCH  22  24
ATOM     24  C   UNL     1       6.745   4.486  14.770  0.00  0.00    +0.000 A 
ATOM     25  C   UNL     1       6.036   3.685  13.881  0.00  0.00    +0.000 A 
ATOM     26  C   UNL     1       6.345   3.759  12.524  0.00  0.00    +0.000 A 
ATOM     27  C   UNL     1       7.341   4.629  12.097  0.00  0.00    +0.000 A 
ATOM     28  C   UNL     1       7.980   5.407  13.046  0.00  0.00    +0.000 A 
ATOM     29  N   UNL     1       7.706   5.358  14.368  0.00  0.00    +0.000 NA
ENDBRANCH  22  24
ENDBRANCH  18  19
ENDBRANCH  16  18
ENDBRANCH   1  16
TORSDOF 7
ENDMDL
MODEL 6
REMARK VINA RESULT:      -8.4      6.070      9.571
REMARK  Name = 
REMARK  7 active torsions:
REMARK  status: ('A' for Active; 'I' for Inactive)
REMARK    1  A    between atoms: C_2  and  C_3
REMARK    2  A    between atoms: C_2  and  C_18
REMARK    3  A    between atoms: C_3  and  C_4
REMARK    4  A    between atoms: C_4  and  C_5
REMARK    5  A    between atoms: C_8  and  N_9
REMARK    6  A    between atoms: N_9  and  C_10
REMARK    7  A    between atoms: C_21  and  C_22
REMARK                            x       y       z     vdW  Elec       q    Type
REMARK                         _______ _______ _______ _____ _____    ______ ____
ROOT
ATOM      1  C   UNL     1       8.245   8.953  17.651  0.00  0.00    +0.000 C 
ENDROOT
BRANCH   1   2
ATOM      2  C   UNL     1       7.596   7.608  17.873  0.00  0.00    +0.000 A 
ATOM      3  C   UNL     1       6.411   7.264  17.212  0.00  0.00    +0.000 A 
ATOM      4  C   UNL     1       5.790   6.033  17.457  0.00  0.00    +0.000 A 
ATOM      5  C   UNL     1       6.344   5.112  18.354  0.00  0.00    +0.000 A 
ATOM      6  C   UNL     1       7.529   5.464  19.012  0.00  0.00    +0.000 A 
ATOM      7  C   UNL     1       8.150   6.695  18.777  0.00  0.00    +0.000 A 
BRANCH   5   8
ATOM      8  N   UNL     1       5.669   3.904  18.638  0.00  0.00    +0.000 N 
ATOM      9  H   UNL     1       6.122   3.359  19.364  0.00  0.00    +0.000 HD
BRANCH   8  10
ATOM     10  C   UNL     1       4.276   3.669  18.646  0.00  0.00    +0.000 A 
ATOM     11  C   UNL     1       3.746   2.714  17.770  0.00  0.00    +0.000 A 
ATOM     12  C   UNL     1       2.378   2.426  17.768  0.00  0.00    +0.000 A 
ATOM     13  C   UNL     1       1.528   3.075  18.661  0.00  0.00    +0.000 A 
ATOM     14  C   UNL     1       2.047   4.010  19.553  0.00  0.00    +0.000 A 
ATOM     15  C   UNL     1       3.413   4.303  19.547  0.00  0.00    +0.000 A 
ENDBRANCH   8  10
ENDBRANCH   5   8
ENDBRANCH   1   2
BRANCH   1  16
ATOM     16  C   UNL     1       8.820   9.527  18.941  0.00  0.00    +0.000 C 
BRANCH  16  18
ATOM     17  O   UNL     1      10.138  11.010  17.615  0.00  0.00    +0.000 OA
ATOM     18  C   UNL     1       9.516  10.849  18.668  0.00  0.00    +0.000 C 
BRANCH  18  19
ATOM     19  C   UNL     1       9.421  11.851  19.716  0.00  0.00    +0.000 A 
ATOM     20  N   UNL     1       9.751  13.125  19.602  0.00  0.00    +0.000 NA
ATOM     21  C   UNL     1       9.480  13.644  20.844  0.00  0.00    +0.000 A 
ATOM     22  C   UNL     1       8.990  12.666  21.678  0.00  0.00    +0.000 A 
ATOM     23  O   UNL     1       8.949  11.500  20.957  0.00  0.00    +0.000 OA
BRANCH  22  24
ATOM     24  C   UNL     1       8.513  12.652  23.049  0.00  0.00    +0.000 A 
ATOM     25  C   UNL     1       7.889  11.551  23.625  0.00  0.00    +0.000 A 
ATOM     26  C   UNL     1       7.398  11.666  24.924  0.00  0.00    +0.000 A 
ATOM     27  C   UNL     1       7.551  12.866  25.608  0.00  0.00    +0.000 A 
ATOM     28  C   UNL     1       8.205  13.904  24.968  0.00  0.00    +0.000 A 
ATOM     29  N   UNL     1       8.690  13.825  23.709  0.00  0.00    +0.000 NA
ENDBRANCH  22  24
ENDBRANCH  18  19
ENDBRANCH  16  18
ENDBRANCH   1  16
TORSDOF 7
ENDMDL
MODEL 7
REMARK VINA RESULT:      -8.4      3.775      9.274
REMARK  Name = 
REMARK  7 active torsions:
REMARK  status: ('A' for Active; 'I' for Inactive)
REMARK    1  A    between atoms: C_2  and  C_3
REMARK    2  A    between atoms: C_2  and  C_18
REMARK    3  A    between atoms: C_3  and  C_4
REMARK    4  A    between atoms: C_4  and  C_5
REMARK    5  A    between atoms: C_8  and  N_9
REMARK    6  A    between atoms: N_9  and  C_10
REMARK    7  A    between atoms: C_21  and  C_22
REMARK                            x       y       z     vdW  Elec       q    Type
REMARK                         _______ _______ _______ _____ _____    ______ ____
ROOT
ATOM      1  C   UNL     1       0.719   7.743  21.220  0.00  0.00    +0.000 C 
ENDROOT
BRANCH   1   2
ATOM      2  C   UNL     1       1.638   6.759  20.538  0.00  0.00    +0.000 A 
ATOM      3  C   UNL     1       2.465   7.160  19.483  0.00  0.00    +0.000 A 
ATOM      4  C   UNL     1       3.282   6.232  18.825  0.00  0.00    +0.000 A 
ATOM      5  C   UNL     1       3.303   4.887  19.214  0.00  0.00    +0.000 A 
ATOM      6  C   UNL     1       2.473   4.493  20.271  0.00  0.00    +0.000 A 
ATOM      7  C   UNL     1       1.649   5.415  20.926  0.00  0.00    +0.000 A 
BRANCH   5   8
ATOM      8  N   UNL     1       4.084   3.954  18.497  0.00  0.00    +0.000 N 
ATOM      9  H   UNL     1       3.581   3.098  18.285  0.00  0.00    +0.000 HD
BRANCH   8  10
ATOM     10  C   UNL     1       5.050   4.214  17.499  0.00  0.00    +0.000 A 
ATOM     11  C   UNL     1       6.365   4.498  17.888  0.00  0.00    +0.000 A 
ATOM     12  C   UNL     1       7.359   4.728  16.934  0.00  0.00    +0.000 A 
ATOM     13  C   UNL     1       7.053   4.654  15.577  0.00  0.00    +0.000 A 
ATOM     14  C   UNL     1       5.755   4.348  15.177  0.00  0.00    +0.000 A 
ATOM     15  C   UNL     1       4.760   4.127  16.133  0.00  0.00    +0.000 A 
ENDBRANCH   8  10
ENDBRANCH   5   8
ENDBRANCH   1   2
BRANCH   1  16
ATOM     16  C   UNL     1       1.270   9.164  21.172  0.00  0.00    +0.000 C 
BRANCH  16  18
ATOM     17  O   UNL     1       0.282  10.230  23.065  0.00  0.00    +0.000 OA
ATOM     18  C   UNL     1       0.304  10.129  21.835  0.00  0.00    +0.000 C 
BRANCH  18  19
ATOM     19  C   UNL     1      -0.577  10.867  20.945  0.00  0.00    +0.000 A 
ATOM     20  N   UNL     1      -0.982  12.113  21.113  0.00  0.00    +0.000 NA
ATOM     21  C   UNL     1      -1.782  12.345  20.021  0.00  0.00    +0.000 A 
ATOM     22  C   UNL     1      -1.837  11.229  19.219  0.00  0.00    +0.000 A 
ATOM     23  O   UNL     1      -1.061  10.265  19.809  0.00  0.00    +0.000 OA
BRANCH  22  24
ATOM     24  C   UNL     1      -2.478  10.926  17.952  0.00  0.00    +0.000 A 
ATOM     25  C   UNL     1      -1.935  10.051  17.017  0.00  0.00    +0.000 A 
ATOM     26  C   UNL     1      -2.591   9.887  15.798  0.00  0.00    +0.000 A 
ATOM     27  C   UNL     1      -3.765  10.590  15.554  0.00  0.00    +0.000 A 
ATOM     28  C   UNL     1      -4.248  11.421  16.550  0.00  0.00    +0.000 A 
ATOM     29  N   UNL     1      -3.635  11.604  17.740  0.00  0.00    +0.000 NA
ENDBRANCH  22  24
ENDBRANCH  18  19
ENDBRANCH  16  18
ENDBRANCH   1  16
TORSDOF 7
ENDMDL
MODEL 8
REMARK VINA RESULT:      -8.4      5.875      9.506
REMARK  Name = 
REMARK  7 active torsions:
REMARK  status: ('A' for Active; 'I' for Inactive)
REMARK    1  A    between atoms: C_2  and  C_3
REMARK    2  A    between atoms: C_2  and  C_18
REMARK    3  A    between atoms: C_3  and  C_4
REMARK    4  A    between atoms: C_4  and  C_5
REMARK    5  A    between atoms: C_8  and  N_9
REMARK    6  A    between atoms: N_9  and  C_10
REMARK    7  A    between atoms: C_21  and  C_22
REMARK                            x       y       z     vdW  Elec       q    Type
REMARK                         _______ _______ _______ _____ _____    ______ ____
ROOT
ATOM      1  C   UNL     1       8.254   9.015  17.797  0.00  0.00    +0.000 C 
ENDROOT
BRANCH   1   2
ATOM      2  C   UNL     1       7.640   7.643  17.941  0.00  0.00    +0.000 A 
ATOM      3  C   UNL     1       6.516   7.277  17.191  0.00  0.00    +0.000 A 
ATOM      4  C   UNL     1       5.924   6.019  17.362  0.00  0.00    +0.000 A 
ATOM      5  C   UNL     1       6.449   5.094  18.273  0.00  0.00    +0.000 A 
ATOM      6  C   UNL     1       7.573   5.468  19.019  0.00  0.00    +0.000 A 
ATOM      7  C   UNL     1       8.163   6.726  18.858  0.00  0.00    +0.000 A 
BRANCH   5   8
ATOM      8  N   UNL     1       5.800   3.857  18.479  0.00  0.00    +0.000 N 
ATOM      9  H   UNL     1       6.296   3.252  19.126  0.00  0.00    +0.000 HD
BRANCH   8  10
ATOM     10  C   UNL     1       4.411   3.604  18.540  0.00  0.00    +0.000 A 
ATOM     11  C   UNL     1       3.648   4.252  19.519  0.00  0.00    +0.000 A 
ATOM     12  C   UNL     1       2.266   4.057  19.595  0.00  0.00    +0.000 A 
ATOM     13  C   UNL     1       1.628   3.227  18.675  0.00  0.00    +0.000 A 
ATOM     14  C   UNL     1       2.372   2.596  17.682  0.00  0.00    +0.000 A 
ATOM     15  C   UNL     1       3.755   2.786  17.614  0.00  0.00    +0.000 A 
ENDBRANCH   8  10
ENDBRANCH   5   8
ENDBRANCH   1   2
BRANCH   1  16
ATOM     16  C   UNL     1       9.006   9.436  19.055  0.00  0.00    +0.000 C 
BRANCH  16  18
ATOM     17  O   UNL     1      10.058  11.200  17.839  0.00  0.00    +0.000 OA
ATOM     18  C   UNL     1       9.541  10.849  18.904  0.00  0.00    +0.000 C 
BRANCH  18  19
ATOM     19  C   UNL     1       9.430  11.704  20.073  0.00  0.00    +0.000 A 
ATOM     20  N   UNL     1       9.955  12.909  20.204  0.00  0.00    +0.000 NA
ATOM     21  C   UNL     1       9.572  13.296  21.465  0.00  0.00    +0.000 A 
ATOM     22  C   UNL     1       8.820  12.311  22.063  0.00  0.00    +0.000 A 
ATOM     23  O   UNL     1       8.724  11.275  21.170  0.00  0.00    +0.000 OA
BRANCH  22  24
ATOM     24  C   UNL     1       8.137  12.195  23.338  0.00  0.00    +0.000 A 
ATOM     25  C   UNL     1       6.862  11.656  23.471  0.00  0.00    +0.000 A 
ATOM     26  C   UNL     1       6.263  11.660  24.729  0.00  0.00    +0.000 A 
ATOM     27  C   UNL     1       6.954  12.191  25.812  0.00  0.00    +0.000 A 
ATOM     28  C   UNL     1       8.229  12.684  25.596  0.00  0.00    +0.000 A 
ATOM     29  N   UNL     1       8.836  12.697  24.389  0.00  0.00    +0.000 NA
ENDBRANCH  22  24
ENDBRANCH  18  19
ENDBRANCH  16  18
ENDBRANCH   1  16
TORSDOF 7
ENDMDL
MODEL 9
REMARK VINA RESULT:      -8.4      1.764      2.481
REMARK  Name = 
REMARK  7 active torsions:
REMARK  status: ('A' for Active; 'I' for Inactive)
REMARK    1  A    between atoms: C_2  and  C_3
REMARK    2  A    between atoms: C_2  and  C_18
REMARK    3  A    between atoms: C_3  and  C_4
REMARK    4  A    between atoms: C_4  and  C_5
REMARK    5  A    between atoms: C_8  and  N_9
REMARK    6  A    between atoms: N_9  and  C_10
REMARK    7  A    between atoms: C_21  and  C_22
REMARK                            x       y       z     vdW  Elec       q    Type
REMARK                         _______ _______ _______ _____ _____    ______ ____
ROOT
ATOM      1  C   UNL     1       3.394   5.981  18.372  0.00  0.00    +0.000 C 
ENDROOT
BRANCH   1   2
ATOM      2  C   UNL     1       2.574   7.147  18.868  0.00  0.00    +0.000 A 
ATOM      3  C   UNL     1       2.368   8.274  18.063  0.00  0.00    +0.000 A 
ATOM      4  C   UNL     1       1.644   9.372  18.546  0.00  0.00    +0.000 A 
ATOM      5  C   UNL     1       1.098   9.364  19.836  0.00  0.00    +0.000 A 
ATOM      6  C   UNL     1       1.309   8.234  20.634  0.00  0.00    +0.000 A 
ATOM      7  C   UNL     1       2.037   7.138  20.160  0.00  0.00    +0.000 A 
BRANCH   5   8
ATOM      8  N   UNL     1       0.428  10.506  20.328  0.00  0.00    +0.000 N 
ATOM      9  H   UNL     1       0.369  10.524  21.341  0.00  0.00    +0.000 HD
BRANCH   8  10
ATOM     10  C   UNL     1       0.464  11.823  19.817  0.00  0.00    +0.000 A 
ATOM     11  C   UNL     1      -0.430  12.178  18.799  0.00  0.00    +0.000 A 
ATOM     12  C   UNL     1      -0.450  13.479  18.288  0.00  0.00    +0.000 A 
ATOM     13  C   UNL     1       0.409  14.445  18.807  0.00  0.00    +0.000 A 
ATOM     14  C   UNL     1       1.286  14.110  19.835  0.00  0.00    +0.000 A 
ATOM     15  C   UNL     1       1.311  12.807  20.339  0.00  0.00    +0.000 A 
ENDBRANCH   8  10
ENDBRANCH   5   8
ENDBRANCH   1   2
BRANCH   1  16
ATOM     16  C   UNL     1       3.166   4.728  19.210  0.00  0.00    +0.000 C 
BRANCH  16  18
ATOM     17  O   UNL     1       3.959   2.477  19.191  0.00  0.00    +0.000 OA
ATOM     18  C   UNL     1       4.138   3.635  18.803  0.00  0.00    +0.000 C 
BRANCH  18  19
ATOM     19  C   UNL     1       5.264   4.052  17.985  0.00  0.00    +0.000 A 
ATOM     20  N   UNL     1       6.422   4.502  18.431  0.00  0.00    +0.000 NA
ATOM     21  C   UNL     1       7.137   4.753  17.286  0.00  0.00    +0.000 A 
ATOM     22  C   UNL     1       6.390   4.444  16.174  0.00  0.00    +0.000 A 
ATOM     23  O   UNL     1       5.173   3.990  16.615  0.00  0.00    +0.000 OA
BRANCH  22  24
ATOM     24  C   UNL     1       6.645   4.470  14.745  0.00  0.00    +0.000 A 
ATOM     25  C   UNL     1       6.005   3.626  13.844  0.00  0.00    +0.000 A 
ATOM     26  C   UNL     1       6.377   3.678  12.502  0.00  0.00    +0.000 A 
ATOM     27  C   UNL     1       7.364   4.570  12.101  0.00  0.00    +0.000 A 
ATOM     28  C   UNL     1       7.932   5.390  13.060  0.00  0.00    +0.000 A 
ATOM     29  N   UNL     1       7.595   5.363  14.368  0.00  0.00    +0.000 NA
ENDBRANCH  22  24
ENDBRANCH  18  19
ENDBRANCH  16  18
ENDBRANCH   1  16
TORSDOF 7
ENDMDL
