MODEL 1
REMARK VINA RESULT:      -7.6      0.000      0.000
REMARK  Name = 
REMARK  14 active torsions:
REMARK  status: ('A' for Active; 'I' for Inactive)
REMARK    1  A    between atoms: C_1  and  C_2
REMARK    2  A    between atoms: C_7  and  C_8
REMARK    3  A    between atoms: C_7  and  C_9
REMARK    4  A    between atoms: C_10  and  O_11
REMARK    5  A    between atoms: C_10  and  C_12
REMARK    6  A    between atoms: C_13  and  C_14
REMARK    7  A    between atoms: C_14  and  C_15
REMARK    8  A    between atoms: C_16  and  C_17
REMARK    9  A    between atoms: N_19  and  CA_20
REMARK   10  A    between atoms: CA_20  and  CB_21
REMARK   11  A    between atoms: CA_20  and  C_26
REMARK   12  A    between atoms: CB_21  and  CG_22
REMARK   13  A    between atoms: CG_22  and  CD_23
REMARK   14  A    between atoms: C_26  and  OXT_28
REMARK                            x       y       z     vdW  Elec       q    Type
REMARK                         _______ _______ _______ _____ _____    ______ ____
ROOT
ATOM      1  C   UNK A   0       3.313   7.566  17.663  0.00  0.00    +0.000 C 
ATOM      2  C   UNK A   0       2.020   8.350  17.676  0.00  0.00    +0.000 C 
ATOM      3  C   UNK A   0       4.408   8.120  17.101  0.00  0.00    +0.000 C 
ENDROOT
BRANCH   3   4
ATOM      4  C   UNK A   0       5.766   7.501  16.991  0.00  0.00    +0.000 C 
ATOM      5  O   UNK A   0       6.802   8.073  17.294  0.00  0.00    +0.000 OA
ATOM      6  N   GLN A   1       5.757   6.221  16.503  0.00  0.00    +0.000 N 
ATOM      7  H   GLN A   1       4.891   5.764  16.229  0.00  0.00    +0.000 HD
BRANCH   6   8
ATOM      8  CA  GLN A   1       6.998   5.473  16.318  0.00  0.00    +0.000 C 
BRANCH   8   9
ATOM      9  C   GLN A   1       6.904   4.733  14.979  0.00  0.00    +0.000 C 
ATOM     10  O   GLN A   1       6.277   3.695  14.814  0.00  0.00    +0.000 OA
BRANCH   9  11
ATOM     11  OXT GLN A   1       7.607   5.317  13.978  0.00  0.00    +0.000 OA
ATOM     12  HXT GLN A   1       7.236   6.164  13.661  0.00  0.00    +0.000 HD
ENDBRANCH   9  11
ENDBRANCH   8   9
BRANCH   8  13
ATOM     13  CB  GLN A   1       7.237   4.500  17.479  0.00  0.00    +0.000 C 
BRANCH  13  14
ATOM     14  CG  GLN A   1       6.691   5.017  18.813  0.00  0.00    +0.000 C 
BRANCH  14  15
ATOM     15  CD  GLN A   1       7.767   5.604  19.697  0.00  0.00    +0.000 C 
ATOM     16  NE2 GLN A   1       8.386   6.700  19.170  0.00  0.00    +0.000 N 
ATOM     17  OE1 GLN A   1       8.080   5.164  20.795  0.00  0.00    +0.000 OA
ATOM     18 HE21 GLN A   1       8.239   7.022  18.222  0.00  0.00    +0.000 HD
ATOM     19 HE22 GLN A   1       9.144   7.107  19.702  0.00  0.00    +0.000 HD
ENDBRANCH  14  15
ENDBRANCH  13  14
ENDBRANCH   8  13
ENDBRANCH   6   8
ENDBRANCH   3   4
BRANCH   1  21
ATOM     20  C   UNK A   0       2.171   5.430  18.310  0.00  0.00    +0.000 C 
ATOM     21  C   UNK A   0       3.266   6.195  18.144  0.00  0.00    +0.000 C 
BRANCH  20  31
ATOM     22  C   UNK A   0       3.531   3.448  16.478  0.00  0.00    +0.000 C 
ATOM     23  C   UNK A   0       3.396   3.281  17.981  0.00  0.00    +0.000 C 
ATOM     24  C   UNK A   0       4.340   2.588  18.627  0.00  0.00    +0.000 C 
ATOM     25  C   UNK A   0       4.302   2.352  20.070  0.00  0.00    +0.000 C 
ATOM     26  O   UNK A   0       5.238   1.742  20.587  0.00  0.00    +0.000 OA
ATOM     27  C   UNK A   0       3.116   2.784  20.882  0.00  0.00    +0.000 C 
ATOM     28  C   UNK A   0       1.994   3.635  20.219  0.00  0.00    +0.000 C 
ATOM     29  C   UNK A   0       0.656   2.876  20.472  0.00  0.00    +0.000 C 
ATOM     30  C   UNK A   0       1.877   4.930  21.074  0.00  0.00    +0.000 C 
ATOM     31  C   UNK A   0       2.198   3.945  18.658  0.00  0.00    +0.000 C 
BRANCH  31  32
ATOM     32  O   UNK A   0       1.065   3.420  17.941  0.00  0.00    +0.000 OA
ATOM     33  H   UNK A   0       0.527   2.920  18.577  0.00  0.00    +0.000 HD
ENDBRANCH  31  32
ENDBRANCH  20  31
ENDBRANCH   1  21
TORSDOF 10
ENDMDL
MODEL 2
REMARK VINA RESULT:      -7.4      1.891      2.661
REMARK  Name = 
REMARK  14 active torsions:
REMARK  status: ('A' for Active; 'I' for Inactive)
REMARK    1  A    between atoms: C_1  and  C_2
REMARK    2  A    between atoms: C_7  and  C_8
REMARK    3  A    between atoms: C_7  and  C_9
REMARK    4  A    between atoms: C_10  and  O_11
REMARK    5  A    between atoms: C_10  and  C_12
REMARK    6  A    between atoms: C_13  and  C_14
REMARK    7  A    between atoms: C_14  and  C_15
REMARK    8  A    between atoms: C_16  and  C_17
REMARK    9  A    between atoms: N_19  and  CA_20
REMARK   10  A    between atoms: CA_20  and  CB_21
REMARK   11  A    between atoms: CA_20  and  C_26
REMARK   12  A    between atoms: CB_21  and  CG_22
REMARK   13  A    between atoms: CG_22  and  CD_23
REMARK   14  A    between atoms: C_26  and  OXT_28
REMARK                            x       y       z     vdW  Elec       q    Type
REMARK                         _______ _______ _______ _____ _____    ______ ____
ROOT
ATOM      1  C   UNK A   0       2.920   7.254  17.739  0.00  0.00    +0.000 C 
ATOM      2  C   UNK A   0       1.634   8.044  17.821  0.00  0.00    +0.000 C 
ATOM      3  C   UNK A   0       3.954   7.760  17.032  0.00  0.00    +0.000 C 
ENDROOT
BRANCH   3   4
ATOM      4  C   UNK A   0       5.295   7.127  16.835  0.00  0.00    +0.000 C 
ATOM      5  O   UNK A   0       5.589   6.443  15.866  0.00  0.00    +0.000 OA
ATOM      6  N   GLN A   1       6.181   7.371  17.850  0.00  0.00    +0.000 N 
ATOM      7  H   GLN A   1       5.916   7.920  18.664  0.00  0.00    +0.000 HD
BRANCH   6   8
ATOM      8  CA  GLN A   1       7.532   6.816  17.826  0.00  0.00    +0.000 C 
BRANCH   8   9
ATOM      9  C   GLN A   1       7.511   5.495  18.602  0.00  0.00    +0.000 C 
ATOM     10  O   GLN A   1       7.686   4.398  18.090  0.00  0.00    +0.000 OA
BRANCH   9  11
ATOM     11  OXT GLN A   1       7.252   5.640  19.924  0.00  0.00    +0.000 OA
ATOM     12  HXT GLN A   1       7.967   5.331  20.515  0.00  0.00    +0.000 HD
ENDBRANCH   9  11
ENDBRANCH   8   9
BRANCH   8  13
ATOM     13  CB  GLN A   1       8.546   7.800  18.423  0.00  0.00    +0.000 C 
BRANCH  13  14
ATOM     14  CG  GLN A   1       8.259   9.256  18.044  0.00  0.00    +0.000 C 
BRANCH  14  15
ATOM     15  CD  GLN A   1       9.251  10.223  18.648  0.00  0.00    +0.000 C 
ATOM     16  NE2 GLN A   1       9.346  10.150  20.008  0.00  0.00    +0.000 N 
ATOM     17  OE1 GLN A   1       9.931  11.012  18.005  0.00  0.00    +0.000 OA
ATOM     18 HE21 GLN A   1       8.722   9.598  20.581  0.00  0.00    +0.000 HD
ATOM     19 HE22 GLN A   1       9.966  10.805  20.467  0.00  0.00    +0.000 HD
ENDBRANCH  14  15
ENDBRANCH  13  14
ENDBRANCH   8  13
ENDBRANCH   6   8
ENDBRANCH   3   4
BRANCH   1  21
ATOM     20  C   UNK A   0       1.897   5.055  18.372  0.00  0.00    +0.000 C 
ATOM     21  C   UNK A   0       2.924   5.924  18.323  0.00  0.00    +0.000 C 
BRANCH  20  31
ATOM     22  C   UNK A   0       3.129   2.943  16.595  0.00  0.00    +0.000 C 
ATOM     23  C   UNK A   0       3.152   2.914  18.113  0.00  0.00    +0.000 C 
ATOM     24  C   UNK A   0       4.179   2.306  18.716  0.00  0.00    +0.000 C 
ATOM     25  C   UNK A   0       4.296   2.205  20.170  0.00  0.00    +0.000 C 
ATOM     26  O   UNK A   0       5.299   1.668  20.640  0.00  0.00    +0.000 OA
ATOM     27  C   UNK A   0       3.185   2.683  21.060  0.00  0.00    +0.000 C 
ATOM     28  C   UNK A   0       1.973   3.442  20.443  0.00  0.00    +0.000 C 
ATOM     29  C   UNK A   0       0.694   2.679  20.901  0.00  0.00    +0.000 C 
ATOM     30  C   UNK A   0       1.902   4.808  21.185  0.00  0.00    +0.000 C 
ATOM     31  C   UNK A   0       2.008   3.610  18.847  0.00  0.00    +0.000 C 
BRANCH  31  32
ATOM     32  O   UNK A   0       0.825   2.995  18.302  0.00  0.00    +0.000 OA
ATOM     33  H   UNK A   0       0.310   3.694  17.868  0.00  0.00    +0.000 HD
ENDBRANCH  31  32
ENDBRANCH  20  31
ENDBRANCH   1  21
TORSDOF 10
ENDMDL
MODEL 3
REMARK VINA RESULT:      -7.3      0.988      2.837
REMARK  Name = 
REMARK  14 active torsions:
REMARK  status: ('A' for Active; 'I' for Inactive)
REMARK    1  A    between atoms: C_1  and  C_2
REMARK    2  A    between atoms: C_7  and  C_8
REMARK    3  A    between atoms: C_7  and  C_9
REMARK    4  A    between atoms: C_10  and  O_11
REMARK    5  A    between atoms: C_10  and  C_12
REMARK    6  A    between atoms: C_13  and  C_14
REMARK    7  A    between atoms: C_14  and  C_15
REMARK    8  A    between atoms: C_16  and  C_17
REMARK    9  A    between atoms: N_19  and  CA_20
REMARK   10  A    between atoms: CA_20  and  CB_21
REMARK   11  A    between atoms: CA_20  and  C_26
REMARK   12  A    between atoms: CB_21  and  CG_22
REMARK   13  A    between atoms: CG_22  and  CD_23
REMARK   14  A    between atoms: C_26  and  OXT_28
REMARK                            x       y       z     vdW  Elec       q    Type
REMARK                         _______ _______ _______ _____ _____    ______ ____
ROOT
ATOM      1  C   UNK A   0       3.098   7.253  17.870  0.00  0.00    +0.000 C 
ATOM      2  C   UNK A   0       1.861   8.110  17.728  0.00  0.00    +0.000 C 
ATOM      3  C   UNK A   0       4.245   7.658  17.284  0.00  0.00    +0.000 C 
ENDROOT
BRANCH   3   4
ATOM      4  C   UNK A   0       5.561   6.947  17.310  0.00  0.00    +0.000 C 
ATOM      5  O   UNK A   0       6.517   7.256  16.614  0.00  0.00    +0.000 OA
ATOM      6  N   GLN A   1       5.609   5.894  18.186  0.00  0.00    +0.000 N 
ATOM      7  H   GLN A   1       4.799   5.630  18.741  0.00  0.00    +0.000 HD
BRANCH   6   8
ATOM      8  CA  GLN A   1       6.814   5.080  18.327  0.00  0.00    +0.000 C 
BRANCH   8   9
ATOM      9  C   GLN A   1       7.807   5.860  19.196  0.00  0.00    +0.000 C 
ATOM     10  O   GLN A   1       8.424   6.845  18.812  0.00  0.00    +0.000 OA
BRANCH   9  11
ATOM     11  OXT GLN A   1       7.971   5.345  20.438  0.00  0.00    +0.000 OA
ATOM     12  HXT GLN A   1       8.568   4.572  20.483  0.00  0.00    +0.000 HD
ENDBRANCH   9  11
ENDBRANCH   8   9
BRANCH   8  13
ATOM     13  CB  GLN A   1       7.415   4.740  16.958  0.00  0.00    +0.000 C 
BRANCH  13  14
ATOM     14  CG  GLN A   1       6.413   4.065  16.017  0.00  0.00    +0.000 C 
BRANCH  14  15
ATOM     15  CD  GLN A   1       6.684   4.366  14.561  0.00  0.00    +0.000 C 
ATOM     16  NE2 GLN A   1       7.441   5.483  14.353  0.00  0.00    +0.000 N 
ATOM     17  OE1 GLN A   1       6.282   3.688  13.625  0.00  0.00    +0.000 OA
ATOM     18 HE21 GLN A   1       7.692   6.130  15.088  0.00  0.00    +0.000 HD
ATOM     19 HE22 GLN A   1       7.617   5.753  13.394  0.00  0.00    +0.000 HD
ENDBRANCH  14  15
ENDBRANCH  13  14
ENDBRANCH   8  13
ENDBRANCH   6   8
ENDBRANCH   3   4
BRANCH   1  21
ATOM     20  C   UNK A   0       2.085   4.982  18.193  0.00  0.00    +0.000 C 
ATOM     21  C   UNK A   0       2.944   5.964  18.524  0.00  0.00    +0.000 C 
BRANCH  20  31
ATOM     22  C   UNK A   0       3.340   2.655  16.728  0.00  0.00    +0.000 C 
ATOM     23  C   UNK A   0       3.245   2.774  18.239  0.00  0.00    +0.000 C 
ATOM     24  C   UNK A   0       4.191   2.184  18.979  0.00  0.00    +0.000 C 
ATOM     25  C   UNK A   0       4.190   2.221  20.441  0.00  0.00    +0.000 C 
ATOM     26  O   UNK A   0       5.126   1.690  21.039  0.00  0.00    +0.000 OA
ATOM     27  C   UNK A   0       3.041   2.832  21.188  0.00  0.00    +0.000 C 
ATOM     28  C   UNK A   0       1.920   3.579  20.406  0.00  0.00    +0.000 C 
ATOM     29  C   UNK A   0       0.572   2.921  20.829  0.00  0.00    +0.000 C 
ATOM     30  C   UNK A   0       1.862   5.013  21.007  0.00  0.00    +0.000 C 
ATOM     31  C   UNK A   0       2.086   3.588  18.809  0.00  0.00    +0.000 C 
BRANCH  31  32
ATOM     32  O   UNK A   0       0.918   2.974  18.231  0.00  0.00    +0.000 OA
ATOM     33  H   UNK A   0       0.544   3.606  17.594  0.00  0.00    +0.000 HD
ENDBRANCH  31  32
ENDBRANCH  20  31
ENDBRANCH   1  21
TORSDOF 10
ENDMDL
MODEL 4
REMARK VINA RESULT:      -7.1      1.450      3.107
REMARK  Name = 
REMARK  14 active torsions:
REMARK  status: ('A' for Active; 'I' for Inactive)
REMARK    1  A    between atoms: C_1  and  C_2
REMARK    2  A    between atoms: C_7  and  C_8
REMARK    3  A    between atoms: C_7  and  C_9
REMARK    4  A    between atoms: C_10  and  O_11
REMARK    5  A    between atoms: C_10  and  C_12
REMARK    6  A    between atoms: C_13  and  C_14
REMARK    7  A    between atoms: C_14  and  C_15
REMARK    8  A    between atoms: C_16  and  C_17
REMARK    9  A    between atoms: N_19  and  CA_20
REMARK   10  A    between atoms: CA_20  and  CB_21
REMARK   11  A    between atoms: CA_20  and  C_26
REMARK   12  A    between atoms: CB_21  and  CG_22
REMARK   13  A    between atoms: CG_22  and  CD_23
REMARK   14  A    between atoms: C_26  and  OXT_28
REMARK                            x       y       z     vdW  Elec       q    Type
REMARK                         _______ _______ _______ _____ _____    ______ ____
ROOT
ATOM      1  C   UNK A   0       3.239   7.255  17.796  0.00  0.00    +0.000 C 
ATOM      2  C   UNK A   0       2.078   8.222  17.857  0.00  0.00    +0.000 C 
ATOM      3  C   UNK A   0       4.316   7.574  17.047  0.00  0.00    +0.000 C 
ENDROOT
BRANCH   3   4
ATOM      4  C   UNK A   0       5.550   6.749  16.861  0.00  0.00    +0.000 C 
ATOM      5  O   UNK A   0       6.684   7.207  16.869  0.00  0.00    +0.000 OA
ATOM      6  N   GLN A   1       5.306   5.415  16.667  0.00  0.00    +0.000 N 
ATOM      7  H   GLN A   1       4.358   5.050  16.636  0.00  0.00    +0.000 HD
BRANCH   6   8
ATOM      8  CA  GLN A   1       6.398   4.468  16.454  0.00  0.00    +0.000 C 
BRANCH   8   9
ATOM      9  C   GLN A   1       7.259   4.453  17.721  0.00  0.00    +0.000 C 
ATOM     10  O   GLN A   1       8.445   4.151  17.737  0.00  0.00    +0.000 OA
BRANCH   9  11
ATOM     11  OXT GLN A   1       6.583   4.780  18.849  0.00  0.00    +0.000 OA
ATOM     12  HXT GLN A   1       7.107   5.278  19.507  0.00  0.00    +0.000 HD
ENDBRANCH   9  11
ENDBRANCH   8   9
BRANCH   8  13
ATOM     13  CB  GLN A   1       7.225   4.847  15.219  0.00  0.00    +0.000 C 
BRANCH  13  14
ATOM     14  CG  GLN A   1       6.366   5.084  13.974  0.00  0.00    +0.000 C 
BRANCH  14  15
ATOM     15  CD  GLN A   1       6.680   4.118  12.855  0.00  0.00    +0.000 C 
ATOM     16  NE2 GLN A   1       6.103   2.889  12.999  0.00  0.00    +0.000 N 
ATOM     17  OE1 GLN A   1       7.382   4.381  11.887  0.00  0.00    +0.000 OA
ATOM     18 HE21 GLN A   1       5.617   2.597  13.836  0.00  0.00    +0.000 HD
ATOM     19 HE22 GLN A   1       6.316   2.191  12.299  0.00  0.00    +0.000 HD
ENDBRANCH  14  15
ENDBRANCH  13  14
ENDBRANCH   8  13
ENDBRANCH   6   8
ENDBRANCH   3   4
BRANCH   1  21
ATOM     20  C   UNK A   0       2.131   5.039  18.180  0.00  0.00    +0.000 C 
ATOM     21  C   UNK A   0       3.069   5.967  18.447  0.00  0.00    +0.000 C 
BRANCH  20  31
ATOM     22  C   UNK A   0       3.366   2.711  16.699  0.00  0.00    +0.000 C 
ATOM     23  C   UNK A   0       3.258   2.813  18.211  0.00  0.00    +0.000 C 
ATOM     24  C   UNK A   0       4.189   2.201  18.952  0.00  0.00    +0.000 C 
ATOM     25  C   UNK A   0       4.175   2.221  20.414  0.00  0.00    +0.000 C 
ATOM     26  O   UNK A   0       5.096   1.669  21.014  0.00  0.00    +0.000 OA
ATOM     27  C   UNK A   0       3.027   2.840  21.158  0.00  0.00    +0.000 C 
ATOM     28  C   UNK A   0       1.925   3.612  20.374  0.00  0.00    +0.000 C 
ATOM     29  C   UNK A   0       0.564   2.969  20.777  0.00  0.00    +0.000 C 
ATOM     30  C   UNK A   0       1.881   5.039  20.993  0.00  0.00    +0.000 C 
ATOM     31  C   UNK A   0       2.105   3.637  18.780  0.00  0.00    +0.000 C 
BRANCH  31  32
ATOM     32  O   UNK A   0       0.935   3.047  18.183  0.00  0.00    +0.000 OA
ATOM     33  H   UNK A   0       1.150   2.852  17.256  0.00  0.00    +0.000 HD
ENDBRANCH  31  32
ENDBRANCH  20  31
ENDBRANCH   1  21
TORSDOF 10
ENDMDL
MODEL 5
REMARK VINA RESULT:      -7.0      2.855      5.540
REMARK  Name = 
REMARK  14 active torsions:
REMARK  status: ('A' for Active; 'I' for Inactive)
REMARK    1  A    between atoms: C_1  and  C_2
REMARK    2  A    between atoms: C_7  and  C_8
REMARK    3  A    between atoms: C_7  and  C_9
REMARK    4  A    between atoms: C_10  and  O_11
REMARK    5  A    between atoms: C_10  and  C_12
REMARK    6  A    between atoms: C_13  and  C_14
REMARK    7  A    between atoms: C_14  and  C_15
REMARK    8  A    between atoms: C_16  and  C_17
REMARK    9  A    between atoms: N_19  and  CA_20
REMARK   10  A    between atoms: CA_20  and  CB_21
REMARK   11  A    between atoms: CA_20  and  C_26
REMARK   12  A    between atoms: CB_21  and  CG_22
REMARK   13  A    between atoms: CG_22  and  CD_23
REMARK   14  A    between atoms: C_26  and  OXT_28
REMARK                            x       y       z     vdW  Elec       q    Type
REMARK                         _______ _______ _______ _____ _____    ______ ____
ROOT
ATOM      1  C   UNK A   0       2.207   4.205  20.109  0.00  0.00    +0.000 C 
ATOM      2  C   UNK A   0       1.379   3.651  21.246  0.00  0.00    +0.000 C 
ATOM      3  C   UNK A   0       2.857   3.346  19.294  0.00  0.00    +0.000 C 
ENDROOT
BRANCH   3   4
ATOM      4  C   UNK A   0       3.721   3.704  18.127  0.00  0.00    +0.000 C 
ATOM      5  O   UNK A   0       3.380   3.570  16.961  0.00  0.00    +0.000 OA
ATOM      6  N   GLN A   1       4.952   4.194  18.473  0.00  0.00    +0.000 N 
ATOM      7  H   GLN A   1       5.235   4.276  19.446  0.00  0.00    +0.000 HD
BRANCH   6   8
ATOM      8  CA  GLN A   1       5.928   4.579  17.456  0.00  0.00    +0.000 C 
BRANCH   8   9
ATOM      9  C   GLN A   1       7.305   4.639  18.125  0.00  0.00    +0.000 C 
ATOM     10  O   GLN A   1       7.514   5.159  19.212  0.00  0.00    +0.000 OA
BRANCH   9  11
ATOM     11  OXT GLN A   1       8.297   4.082  17.389  0.00  0.00    +0.000 OA
ATOM     12  HXT GLN A   1       9.194   4.201  17.759  0.00  0.00    +0.000 HD
ENDBRANCH   9  11
ENDBRANCH   8   9
BRANCH   8  13
ATOM     13  CB  GLN A   1       5.558   5.922  16.815  0.00  0.00    +0.000 C 
BRANCH  13  14
ATOM     14  CG  GLN A   1       5.376   5.829  15.297  0.00  0.00    +0.000 C 
BRANCH  14  15
ATOM     15  CD  GLN A   1       6.367   4.892  14.646  0.00  0.00    +0.000 C 
ATOM     16  NE2 GLN A   1       7.629   5.401  14.540  0.00  0.00    +0.000 N 
ATOM     17  OE1 GLN A   1       6.099   3.769  14.242  0.00  0.00    +0.000 OA
ATOM     18 HE21 GLN A   1       7.863   6.361  14.753  0.00  0.00    +0.000 HD
ATOM     19 HE22 GLN A   1       8.323   4.830  14.074  0.00  0.00    +0.000 HD
ENDBRANCH  14  15
ENDBRANCH  13  14
ENDBRANCH   8  13
ENDBRANCH   6   8
ENDBRANCH   3   4
BRANCH   1  21
ATOM     20  C   UNK A   0       1.385   6.564  19.889  0.00  0.00    +0.000 C 
ATOM     21  C   UNK A   0       2.361   5.648  20.039  0.00  0.00    +0.000 C 
BRANCH  20  31
ATOM     22  C   UNK A   0       2.835   8.068  17.705  0.00  0.00    +0.000 C 
ATOM     23  C   UNK A   0       1.756   8.663  18.593  0.00  0.00    +0.000 C 
ATOM     24  C   UNK A   0       1.000   9.647  18.094  0.00  0.00    +0.000 C 
ATOM     25  C   UNK A   0      -0.056  10.302  18.864  0.00  0.00    +0.000 C 
ATOM     26  O   UNK A   0      -0.732  11.168  18.309  0.00  0.00    +0.000 OA
ATOM     27  C   UNK A   0      -0.259   9.972  20.314  0.00  0.00    +0.000 C 
ATOM     28  C   UNK A   0       0.547   8.808  20.962  0.00  0.00    +0.000 C 
ATOM     29  C   UNK A   0       1.265   9.408  22.208  0.00  0.00    +0.000 C 
ATOM     30  C   UNK A   0      -0.512   7.832  21.552  0.00  0.00    +0.000 C 
ATOM     31  C   UNK A   0       1.590   8.071  19.991  0.00  0.00    +0.000 C 
BRANCH  31  32
ATOM     32  O   UNK A   0       2.904   8.185  20.570  0.00  0.00    +0.000 OA
ATOM     33  H   UNK A   0       3.403   8.822  20.032  0.00  0.00    +0.000 HD
ENDBRANCH  31  32
ENDBRANCH  20  31
ENDBRANCH   1  21
TORSDOF 10
ENDMDL
MODEL 6
REMARK VINA RESULT:      -6.9      0.968      1.081
REMARK  Name = 
REMARK  14 active torsions:
REMARK  status: ('A' for Active; 'I' for Inactive)
REMARK    1  A    between atoms: C_1  and  C_2
REMARK    2  A    between atoms: C_7  and  C_8
REMARK    3  A    between atoms: C_7  and  C_9
REMARK    4  A    between atoms: C_10  and  O_11
REMARK    5  A    between atoms: C_10  and  C_12
REMARK    6  A    between atoms: C_13  and  C_14
REMARK    7  A    between atoms: C_14  and  C_15
REMARK    8  A    between atoms: C_16  and  C_17
REMARK    9  A    between atoms: N_19  and  CA_20
REMARK   10  A    between atoms: CA_20  and  CB_21
REMARK   11  A    between atoms: CA_20  and  C_26
REMARK   12  A    between atoms: CB_21  and  CG_22
REMARK   13  A    between atoms: CG_22  and  CD_23
REMARK   14  A    between atoms: C_26  and  OXT_28
REMARK                            x       y       z     vdW  Elec       q    Type
REMARK                         _______ _______ _______ _____ _____    ______ ____
ROOT
ATOM      1  C   UNK A   0       2.893   7.440  17.884  0.00  0.00    +0.000 C 
ATOM      2  C   UNK A   0       1.648   8.288  18.005  0.00  0.00    +0.000 C 
ATOM      3  C   UNK A   0       3.931   7.903  17.153  0.00  0.00    +0.000 C 
ENDROOT
BRANCH   3   4
ATOM      4  C   UNK A   0       5.235   7.210  16.917  0.00  0.00    +0.000 C 
ATOM      5  O   UNK A   0       6.322   7.766  16.972  0.00  0.00    +0.000 OA
ATOM      6  N   GLN A   1       5.114   5.878  16.618  0.00  0.00    +0.000 N 
ATOM      7  H   GLN A   1       4.203   5.432  16.549  0.00  0.00    +0.000 HD
BRANCH   6   8
ATOM      8  CA  GLN A   1       6.288   5.054  16.343  0.00  0.00    +0.000 C 
BRANCH   8   9
ATOM      9  C   GLN A   1       5.943   4.118  15.180  0.00  0.00    +0.000 C 
ATOM     10  O   GLN A   1       5.466   4.495  14.117  0.00  0.00    +0.000 OA
BRANCH   9  11
ATOM     11  OXT GLN A   1       6.188   2.810  15.436  0.00  0.00    +0.000 OA
ATOM     12  HXT GLN A   1       6.826   2.650  16.158  0.00  0.00    +0.000 HD
ENDBRANCH   9  11
ENDBRANCH   8   9
BRANCH   8  13
ATOM     13  CB  GLN A   1       6.714   4.265  17.588  0.00  0.00    +0.000 C 
BRANCH  13  14
ATOM     14  CG  GLN A   1       8.128   4.615  18.061  0.00  0.00    +0.000 C 
BRANCH  14  15
ATOM     15  CD  GLN A   1       8.142   5.724  19.087  0.00  0.00    +0.000 C 
ATOM     16  NE2 GLN A   1       8.024   5.293  20.377  0.00  0.00    +0.000 N 
ATOM     17  OE1 GLN A   1       8.251   6.914  18.823  0.00  0.00    +0.000 OA
ATOM     18 HE21 GLN A   1       7.815   4.336  20.628  0.00  0.00    +0.000 HD
ATOM     19 HE22 GLN A   1       7.986   5.998  21.102  0.00  0.00    +0.000 HD
ENDBRANCH  14  15
ENDBRANCH  13  14
ENDBRANCH   8  13
ENDBRANCH   6   8
ENDBRANCH   3   4
BRANCH   1  21
ATOM     20  C   UNK A   0       1.865   5.197  18.329  0.00  0.00    +0.000 C 
ATOM     21  C   UNK A   0       2.850   6.106  18.457  0.00  0.00    +0.000 C 
BRANCH  20  31
ATOM     22  C   UNK A   0       2.912   3.025  16.508  0.00  0.00    +0.000 C 
ATOM     23  C   UNK A   0       3.022   3.009  18.022  0.00  0.00    +0.000 C 
ATOM     24  C   UNK A   0       4.060   2.368  18.573  0.00  0.00    +0.000 C 
ATOM     25  C   UNK A   0       4.256   2.277  20.019  0.00  0.00    +0.000 C 
ATOM     26  O   UNK A   0       5.264   1.707  20.436  0.00  0.00    +0.000 OA
ATOM     27  C   UNK A   0       3.217   2.805  20.965  0.00  0.00    +0.000 C 
ATOM     28  C   UNK A   0       2.001   3.603  20.410  0.00  0.00    +0.000 C 
ATOM     29  C   UNK A   0       0.723   2.893  20.950  0.00  0.00    +0.000 C 
ATOM     30  C   UNK A   0       2.023   4.977  21.140  0.00  0.00    +0.000 C 
ATOM     31  C   UNK A   0       1.949   3.754  18.813  0.00  0.00    +0.000 C 
BRANCH  31  32
ATOM     32  O   UNK A   0       0.715   3.179  18.345  0.00  0.00    +0.000 OA
ATOM     33  H   UNK A   0       0.466   2.479  18.972  0.00  0.00    +0.000 HD
ENDBRANCH  31  32
ENDBRANCH  20  31
ENDBRANCH   1  21
TORSDOF 10
ENDMDL
MODEL 7
REMARK VINA RESULT:      -6.8      2.242      4.403
REMARK  Name = 
REMARK  14 active torsions:
REMARK  status: ('A' for Active; 'I' for Inactive)
REMARK    1  A    between atoms: C_1  and  C_2
REMARK    2  A    between atoms: C_7  and  C_8
REMARK    3  A    between atoms: C_7  and  C_9
REMARK    4  A    between atoms: C_10  and  O_11
REMARK    5  A    between atoms: C_10  and  C_12
REMARK    6  A    between atoms: C_13  and  C_14
REMARK    7  A    between atoms: C_14  and  C_15
REMARK    8  A    between atoms: C_16  and  C_17
REMARK    9  A    between atoms: N_19  and  CA_20
REMARK   10  A    between atoms: CA_20  and  CB_21
REMARK   11  A    between atoms: CA_20  and  C_26
REMARK   12  A    between atoms: CB_21  and  CG_22
REMARK   13  A    between atoms: CG_22  and  CD_23
REMARK   14  A    between atoms: C_26  and  OXT_28
REMARK                            x       y       z     vdW  Elec       q    Type
REMARK                         _______ _______ _______ _____ _____    ______ ____
ROOT
ATOM      1  C   UNK A   0       4.079   7.111  17.322  0.00  0.00    +0.000 C 
ATOM      2  C   UNK A   0       3.202   8.328  17.511  0.00  0.00    +0.000 C 
ATOM      3  C   UNK A   0       5.153   7.199  16.508  0.00  0.00    +0.000 C 
ENDROOT
BRANCH   3   4
ATOM      4  C   UNK A   0       6.129   6.109  16.196  0.00  0.00    +0.000 C 
ATOM      5  O   UNK A   0       6.899   5.629  17.015  0.00  0.00    +0.000 OA
ATOM      6  N   GLN A   1       6.099   5.690  14.892  0.00  0.00    +0.000 N 
ATOM      7  H   GLN A   1       5.472   6.115  14.213  0.00  0.00    +0.000 HD
BRANCH   6   8
ATOM      8  CA  GLN A   1       6.997   4.642  14.413  0.00  0.00    +0.000 C 
BRANCH   8   9
ATOM      9  C   GLN A   1       7.896   5.252  13.333  0.00  0.00    +0.000 C 
ATOM     10  O   GLN A   1       8.828   6.010  13.567  0.00  0.00    +0.000 OA
BRANCH   9  11
ATOM     11  OXT GLN A   1       7.554   4.899  12.070  0.00  0.00    +0.000 OA
ATOM     12  HXT GLN A   1       7.324   3.956  11.959  0.00  0.00    +0.000 HD
ENDBRANCH   9  11
ENDBRANCH   8   9
BRANCH   8  13
ATOM     13  CB  GLN A   1       6.209   3.442  13.872  0.00  0.00    +0.000 C 
BRANCH  13  14
ATOM     14  CG  GLN A   1       4.994   3.854  13.035  0.00  0.00    +0.000 C 
BRANCH  14  15
ATOM     15  CD  GLN A   1       4.811   2.992  11.807  0.00  0.00    +0.000 C 
ATOM     16  NE2 GLN A   1       5.820   2.096  11.599  0.00  0.00    +0.000 N 
ATOM     17  OE1 GLN A   1       3.854   3.060  11.047  0.00  0.00    +0.000 OA
ATOM     18 HE21 GLN A   1       6.678   2.089  12.133  0.00  0.00    +0.000 HD
ATOM     19 HE22 GLN A   1       5.768   1.522  10.767  0.00  0.00    +0.000 HD
ENDBRANCH  14  15
ENDBRANCH  13  14
ENDBRANCH   8  13
ENDBRANCH   6   8
ENDBRANCH   3   4
BRANCH   1  21
ATOM     20  C   UNK A   0       3.889   5.439  19.180  0.00  0.00    +0.000 C 
ATOM     21  C   UNK A   0       3.635   5.868  17.930  0.00  0.00    +0.000 C 
BRANCH  20  31
ATOM     22  C   UNK A   0       1.386   5.688  20.856  0.00  0.00    +0.000 C 
ATOM     23  C   UNK A   0       1.769   4.456  20.055  0.00  0.00    +0.000 C 
ATOM     24  C   UNK A   0       0.787   3.679  19.584  0.00  0.00    +0.000 C 
ATOM     25  C   UNK A   0       1.041   2.462  18.815  0.00  0.00    +0.000 C 
ATOM     26  O   UNK A   0       0.075   1.833  18.382  0.00  0.00    +0.000 OA
ATOM     27  C   UNK A   0       2.442   1.961  18.621  0.00  0.00    +0.000 C 
ATOM     28  C   UNK A   0       3.646   2.826  19.097  0.00  0.00    +0.000 C 
ATOM     29  C   UNK A   0       4.496   1.920  20.038  0.00  0.00    +0.000 C 
ATOM     30  C   UNK A   0       4.542   3.039  17.843  0.00  0.00    +0.000 C 
ATOM     31  C   UNK A   0       3.257   4.206  19.817  0.00  0.00    +0.000 C 
BRANCH  31  32
ATOM     32  O   UNK A   0       3.820   4.198  21.143  0.00  0.00    +0.000 OA
ATOM     33  H   UNK A   0       3.998   5.122  21.387  0.00  0.00    +0.000 HD
ENDBRANCH  31  32
ENDBRANCH  20  31
ENDBRANCH   1  21
TORSDOF 10
ENDMDL
MODEL 8
REMARK VINA RESULT:      -6.7      4.880      7.651
REMARK  Name = 
REMARK  14 active torsions:
REMARK  status: ('A' for Active; 'I' for Inactive)
REMARK    1  A    between atoms: C_1  and  C_2
REMARK    2  A    between atoms: C_7  and  C_8
REMARK    3  A    between atoms: C_7  and  C_9
REMARK    4  A    between atoms: C_10  and  O_11
REMARK    5  A    between atoms: C_10  and  C_12
REMARK    6  A    between atoms: C_13  and  C_14
REMARK    7  A    between atoms: C_14  and  C_15
REMARK    8  A    between atoms: C_16  and  C_17
REMARK    9  A    between atoms: N_19  and  CA_20
REMARK   10  A    between atoms: CA_20  and  CB_21
REMARK   11  A    between atoms: CA_20  and  C_26
REMARK   12  A    between atoms: CB_21  and  CG_22
REMARK   13  A    between atoms: CG_22  and  CD_23
REMARK   14  A    between atoms: C_26  and  OXT_28
REMARK                            x       y       z     vdW  Elec       q    Type
REMARK                         _______ _______ _______ _____ _____    ______ ____
ROOT
ATOM      1  C   UNK A   0       1.065   8.898  21.069  0.00  0.00    +0.000 C 
ATOM      2  C   UNK A   0       0.861   9.080  22.556  0.00  0.00    +0.000 C 
ATOM      3  C   UNK A   0       1.905   7.931  20.638  0.00  0.00    +0.000 C 
ENDROOT
BRANCH   3   4
ATOM      4  C   UNK A   0       2.235   7.605  19.216  0.00  0.00    +0.000 C 
ATOM      5  O   UNK A   0       1.972   8.334  18.271  0.00  0.00    +0.000 OA
ATOM      6  N   GLN A   1       2.858   6.396  19.051  0.00  0.00    +0.000 N 
ATOM      7  H   GLN A   1       3.048   5.786  19.842  0.00  0.00    +0.000 HD
BRANCH   6   8
ATOM      8  CA  GLN A   1       3.238   5.914  17.725  0.00  0.00    +0.000 C 
BRANCH   8   9
ATOM      9  C   GLN A   1       2.704   4.486  17.575  0.00  0.00    +0.000 C 
ATOM     10  O   GLN A   1       3.414   3.488  17.569  0.00  0.00    +0.000 OA
BRANCH   9  11
ATOM     11  OXT GLN A   1       1.360   4.415  17.419  0.00  0.00    +0.000 OA
ATOM     12  HXT GLN A   1       0.859   4.304  18.251  0.00  0.00    +0.000 HD
ENDBRANCH   9  11
ENDBRANCH   8   9
BRANCH   8  13
ATOM     13  CB  GLN A   1       4.759   5.967  17.532  0.00  0.00    +0.000 C 
BRANCH  13  14
ATOM     14  CG  GLN A   1       5.170   6.050  16.059  0.00  0.00    +0.000 C 
BRANCH  14  15
ATOM     15  CD  GLN A   1       6.312   5.121  15.718  0.00  0.00    +0.000 C 
ATOM     16  NE2 GLN A   1       6.187   3.867  16.242  0.00  0.00    +0.000 N 
ATOM     17  OE1 GLN A   1       7.278   5.430  15.033  0.00  0.00    +0.000 OA
ATOM     18 HE21 GLN A   1       5.468   3.609  16.905  0.00  0.00    +0.000 HD
ATOM     19 HE22 GLN A   1       6.945   3.217  16.078  0.00  0.00    +0.000 HD
ENDBRANCH  14  15
ENDBRANCH  13  14
ENDBRANCH   8  13
ENDBRANCH   6   8
ENDBRANCH   3   4
BRANCH   1  21
ATOM     20  C   UNK A   0      -0.872  10.140  20.076  0.00  0.00    +0.000 C 
ATOM     21  C   UNK A   0       0.442   9.869  20.187  0.00  0.00    +0.000 C 
BRANCH  20  31
ATOM     22  C   UNK A   0      -1.606   9.733  17.172  0.00  0.00    +0.000 C 
ATOM     23  C   UNK A   0      -2.282  10.725  18.102  0.00  0.00    +0.000 C 
ATOM     24  C   UNK A   0      -3.565  11.028  17.876  0.00  0.00    +0.000 C 
ATOM     25  C   UNK A   0      -4.311  11.980  18.698  0.00  0.00    +0.000 C 
ATOM     26  O   UNK A   0      -5.501  12.164  18.444  0.00  0.00    +0.000 OA
ATOM     27  C   UNK A   0      -3.619  12.761  19.777  0.00  0.00    +0.000 C 
ATOM     28  C   UNK A   0      -2.139  12.439  20.136  0.00  0.00    +0.000 C 
ATOM     29  C   UNK A   0      -1.354  13.780  20.018  0.00  0.00    +0.000 C 
ATOM     30  C   UNK A   0      -2.129  12.113  21.658  0.00  0.00    +0.000 C 
ATOM     31  C   UNK A   0      -1.453  11.286  19.255  0.00  0.00    +0.000 C 
BRANCH  31  32
ATOM     32  O   UNK A   0      -0.295  11.843  18.605  0.00  0.00    +0.000 OA
ATOM     33  H   UNK A   0       0.416  11.885  19.267  0.00  0.00    +0.000 HD
ENDBRANCH  31  32
ENDBRANCH  20  31
ENDBRANCH   1  21
TORSDOF 10
ENDMDL
MODEL 9
REMARK VINA RESULT:      -6.6      1.673      3.178
REMARK  Name = 
REMARK  14 active torsions:
REMARK  status: ('A' for Active; 'I' for Inactive)
REMARK    1  A    between atoms: C_1  and  C_2
REMARK    2  A    between atoms: C_7  and  C_8
REMARK    3  A    between atoms: C_7  and  C_9
REMARK    4  A    between atoms: C_10  and  O_11
REMARK    5  A    between atoms: C_10  and  C_12
REMARK    6  A    between atoms: C_13  and  C_14
REMARK    7  A    between atoms: C_14  and  C_15
REMARK    8  A    between atoms: C_16  and  C_17
REMARK    9  A    between atoms: N_19  and  CA_20
REMARK   10  A    between atoms: CA_20  and  CB_21
REMARK   11  A    between atoms: CA_20  and  C_26
REMARK   12  A    between atoms: CB_21  and  CG_22
REMARK   13  A    between atoms: CG_22  and  CD_23
REMARK   14  A    between atoms: C_26  and  OXT_28
REMARK                            x       y       z     vdW  Elec       q    Type
REMARK                         _______ _______ _______ _____ _____    ______ ____
ROOT
ATOM      1  C   UNK A   0       2.923   7.279  18.199  0.00  0.00    +0.000 C 
ATOM      2  C   UNK A   0       1.991   8.295  18.819  0.00  0.00    +0.000 C 
ATOM      3  C   UNK A   0       3.636   7.627  17.106  0.00  0.00    +0.000 C 
ENDROOT
BRANCH   3   4
ATOM      4  C   UNK A   0       4.600   6.763  16.357  0.00  0.00    +0.000 C 
ATOM      5  O   UNK A   0       5.012   7.016  15.234  0.00  0.00    +0.000 OA
ATOM      6  N   GLN A   1       4.984   5.636  17.036  0.00  0.00    +0.000 N 
ATOM      7  H   GLN A   1       4.614   5.422  17.958  0.00  0.00    +0.000 HD
BRANCH   6   8
ATOM      8  CA  GLN A   1       5.909   4.674  16.443  0.00  0.00    +0.000 C 
BRANCH   8   9
ATOM      9  C   GLN A   1       7.335   5.128  16.774  0.00  0.00    +0.000 C 
ATOM     10  O   GLN A   1       7.753   6.262  16.581  0.00  0.00    +0.000 OA
BRANCH   9  11
ATOM     11  OXT GLN A   1       8.119   4.148  17.283  0.00  0.00    +0.000 OA
ATOM     12  HXT GLN A   1       8.589   4.389  18.106  0.00  0.00    +0.000 HD
ENDBRANCH   9  11
ENDBRANCH   8   9
BRANCH   8  13
ATOM     13  CB  GLN A   1       5.696   4.560  14.929  0.00  0.00    +0.000 C 
BRANCH  13  14
ATOM     14  CG  GLN A   1       6.963   4.144  14.177  0.00  0.00    +0.000 C 
BRANCH  14  15
ATOM     15  CD  GLN A   1       6.711   3.872  12.712  0.00  0.00    +0.000 C 
ATOM     16  NE2 GLN A   1       5.800   2.882  12.476  0.00  0.00    +0.000 N 
ATOM     17  OE1 GLN A   1       7.252   4.469  11.791  0.00  0.00    +0.000 OA
ATOM     18 HE21 GLN A   1       5.421   2.289  13.202  0.00  0.00    +0.000 HD
ATOM     19 HE22 GLN A   1       5.625   2.632  11.512  0.00  0.00    +0.000 HD
ENDBRANCH  14  15
ENDBRANCH  13  14
ENDBRANCH   8  13
ENDBRANCH   6   8
ENDBRANCH   3   4
BRANCH   1  21
ATOM     20  C   UNK A   0       1.886   5.046  18.673  0.00  0.00    +0.000 C 
ATOM     21  C   UNK A   0       2.897   5.932  18.743  0.00  0.00    +0.000 C 
BRANCH  20  31
ATOM     22  C   UNK A   0       2.751   2.902  16.727  0.00  0.00    +0.000 C 
ATOM     23  C   UNK A   0       2.974   2.845  18.227  0.00  0.00    +0.000 C 
ATOM     24  C   UNK A   0       4.038   2.173  18.683  0.00  0.00    +0.000 C 
ATOM     25  C   UNK A   0       4.340   2.042  20.107  0.00  0.00    +0.000 C 
ATOM     26  O   UNK A   0       5.366   1.444  20.433  0.00  0.00    +0.000 OA
ATOM     27  C   UNK A   0       3.386   2.564  21.141  0.00  0.00    +0.000 C 
ATOM     28  C   UNK A   0       2.147   3.397  20.699  0.00  0.00    +0.000 C 
ATOM     29  C   UNK A   0       0.900   2.696  21.317  0.00  0.00    +0.000 C 
ATOM     30  C   UNK A   0       2.251   4.752  21.457  0.00  0.00    +0.000 C 
ATOM     31  C   UNK A   0       1.979   3.590  19.115  0.00  0.00    +0.000 C 
BRANCH  31  32
ATOM     32  O   UNK A   0       0.702   3.048  18.728  0.00  0.00    +0.000 OA
ATOM     33  H   UNK A   0       0.017   3.638  19.086  0.00  0.00    +0.000 HD
ENDBRANCH  31  32
ENDBRANCH  20  31
ENDBRANCH   1  21
TORSDOF 10
ENDMDL
