MODEL 1
REMARK VINA RESULT:      -7.8      0.000      0.000
REMARK  Name = 
REMARK  6 active torsions:
REMARK  status: ('A' for Active; 'I' for Inactive)
REMARK    1  A    between atoms: C_1  and  C_2
REMARK    2  A    between atoms: C_7  and  N_8
REMARK    3  A    between atoms: N_11  and  C_12
REMARK    4  A    between atoms: C_17  and  C_19
REMARK    5  A    between atoms: C_19  and  O_20
REMARK    6  A    between atoms: O_20  and  C_21
REMARK                            x       y       z     vdW  Elec       q    Type
REMARK                         _______ _______ _______ _____ _____    ______ ____
ROOT
ATOM      1  C   UNL     1      -0.328  12.169  21.070  0.00  0.00    +0.000 C 
ATOM      2  C   UNL     1      -0.942  11.881  22.455  0.00  0.00    +0.000 C 
ATOM      3  C   UNL     1      -0.623  10.528  23.106  0.00  0.00    +0.000 C 
ATOM      4  C   UNL     1      -0.225   9.363  22.191  0.00  0.00    +0.000 C 
ATOM      5  N   UNL     1       0.232   9.743  20.857  0.00  0.00    +0.000 N 
ATOM      6  C   UNL     1       1.036   8.955  20.032  0.00  0.00    +0.000 C 
ATOM      7  O   UNL     1       1.219   9.229  18.841  0.00  0.00    +0.000 OA
ATOM      8  C   UNL     1      -0.458  10.872  20.237  0.00  0.00    +0.000 C 
ENDROOT
BRANCH   1  12
ATOM      9  N   UNL     1       1.361  15.200  19.190  0.00  0.00    +0.000 N 
ATOM     10  C   UNL     1       1.310  13.851  18.577  0.00  0.00    +0.000 C 
ATOM     11  C   UNL     1       1.642  12.732  19.602  0.00  0.00    +0.000 C 
ATOM     12  N   UNL     1       0.986  12.831  20.921  0.00  0.00    +0.000 NA
ATOM     13  C   UNL     1       1.166  14.194  21.428  0.00  0.00    +0.000 C 
ATOM     14  C   UNL     1       0.641  15.271  20.475  0.00  0.00    +0.000 C 
BRANCH   9  21
ATOM     15  C   UNL     1       3.609  16.547  17.874  0.00  0.00    +0.000 C 
ATOM     16  C   UNL     1       2.181  16.995  17.738  0.00  0.00    +0.000 A 
ATOM     17  C   UNL     1       1.932  18.141  16.959  0.00  0.00    +0.000 A 
ATOM     18  C   UNL     1       0.634  18.607  16.770  0.00  0.00    +0.000 A 
ATOM     19  C   UNL     1      -0.427  17.947  17.372  0.00  0.00    +0.000 A 
ATOM     20  C   UNL     1      -0.189  16.816  18.161  0.00  0.00    +0.000 A 
ATOM     21  C   UNL     1       1.110  16.320  18.375  0.00  0.00    +0.000 A 
ENDBRANCH   9  21
ENDBRANCH   1  12
BRANCH   6  22
ATOM     22  C   UNL     1       1.773   7.761  20.629  0.00  0.00    +0.000 C 
BRANCH  22  23
ATOM     23  O   UNL     1       2.472   7.089  19.594  0.00  0.00    +0.000 OA
BRANCH  23  24
ATOM     24  C   UNL     1       2.243   5.747  19.478  0.00  0.00    +0.000 A 
ATOM     25  C   UNL     1       1.476   5.202  20.511  0.00  0.00    +0.000 A 
ATOM     26  C   UNL     1       1.186   3.837  20.536  0.00  0.00    +0.000 A 
ATOM     27  C   UNL     1       1.650   3.011  19.515  0.00  0.00    +0.000 A 
ATOM     28  C   UNL     1       2.388   3.553  18.465  0.00  0.00    +0.000 A 
ATOM     29  C   UNL     1       2.683   4.920  18.444  0.00  0.00    +0.000 A 
ENDBRANCH  23  24
ENDBRANCH  22  23
ENDBRANCH   6  22
TORSDOF 5
ENDMDL
MODEL 2
REMARK VINA RESULT:      -7.7      1.277      1.526
REMARK  Name = 
REMARK  6 active torsions:
REMARK  status: ('A' for Active; 'I' for Inactive)
REMARK    1  A    between atoms: C_1  and  C_2
REMARK    2  A    between atoms: C_7  and  N_8
REMARK    3  A    between atoms: N_11  and  C_12
REMARK    4  A    between atoms: C_17  and  C_19
REMARK    5  A    between atoms: C_19  and  O_20
REMARK    6  A    between atoms: O_20  and  C_21
REMARK                            x       y       z     vdW  Elec       q    Type
REMARK                         _______ _______ _______ _____ _____    ______ ____
ROOT
ATOM      1  C   UNL     1       0.397  11.251  20.427  0.00  0.00    +0.000 C 
ATOM      2  C   UNL     1       0.049  10.701  21.824  0.00  0.00    +0.000 C 
ATOM      3  C   UNL     1       0.616   9.327  22.209  0.00  0.00    +0.000 C 
ATOM      4  C   UNL     1       0.989   8.359  21.081  0.00  0.00    +0.000 C 
ATOM      5  N   UNL     1       1.182   8.970  19.769  0.00  0.00    +0.000 N 
ATOM      6  C   UNL     1       1.926   8.414  18.727  0.00  0.00    +0.000 C 
ATOM      7  O   UNL     1       1.885   8.867  17.578  0.00  0.00    +0.000 OA
ATOM      8  C   UNL     1       0.280  10.071  19.432  0.00  0.00    +0.000 C 
ENDROOT
BRANCH   1  12
ATOM      9  N   UNL     1       1.388  14.798  19.011  0.00  0.00    +0.000 N 
ATOM     10  C   UNL     1       1.331  13.610  18.127  0.00  0.00    +0.000 C 
ATOM     11  C   UNL     1       1.964  12.357  18.791  0.00  0.00    +0.000 C 
ATOM     12  N   UNL     1       1.589  12.096  20.195  0.00  0.00    +0.000 NA
ATOM     13  C   UNL     1       1.750  13.336  20.957  0.00  0.00    +0.000 C 
ATOM     14  C   UNL     1       0.947  14.508  20.388  0.00  0.00    +0.000 C 
BRANCH   9  21
ATOM     15  C   UNL     1       3.180  16.653  17.614  0.00  0.00    +0.000 C 
ATOM     16  C   UNL     1       1.726  16.938  17.866  0.00  0.00    +0.000 A 
ATOM     17  C   UNL     1       1.222  18.177  17.427  0.00  0.00    +0.000 A 
ATOM     18  C   UNL     1      -0.118  18.507  17.606  0.00  0.00    +0.000 A 
ATOM     19  C   UNL     1      -0.966  17.612  18.242  0.00  0.00    +0.000 A 
ATOM     20  C   UNL     1      -0.472  16.383  18.695  0.00  0.00    +0.000 A 
ATOM     21  C   UNL     1       0.877  16.020  18.533  0.00  0.00    +0.000 A 
ENDBRANCH   9  21
ENDBRANCH   1  12
BRANCH   6  22
ATOM     22  C   UNL     1       2.877   7.260  19.024  0.00  0.00    +0.000 C 
BRANCH  22  23
ATOM     23  O   UNL     1       3.266   6.659  17.799  0.00  0.00    +0.000 OA
BRANCH  23  24
ATOM     24  C   UNL     1       3.150   5.299  17.727  0.00  0.00    +0.000 A 
ATOM     25  C   UNL     1       1.889   4.808  18.073  0.00  0.00    +0.000 A 
ATOM     26  C   UNL     1       1.637   3.435  18.071  0.00  0.00    +0.000 A 
ATOM     27  C   UNL     1       2.643   2.545  17.704  0.00  0.00    +0.000 A 
ATOM     28  C   UNL     1       3.894   3.030  17.327  0.00  0.00    +0.000 A 
ATOM     29  C   UNL     1       4.148   4.405  17.334  0.00  0.00    +0.000 A 
ENDBRANCH  23  24
ENDBRANCH  22  23
ENDBRANCH   6  22
TORSDOF 5
ENDMDL
MODEL 3
REMARK VINA RESULT:      -7.7      1.686      2.165
REMARK  Name = 
REMARK  6 active torsions:
REMARK  status: ('A' for Active; 'I' for Inactive)
REMARK    1  A    between atoms: C_1  and  C_2
REMARK    2  A    between atoms: C_7  and  N_8
REMARK    3  A    between atoms: N_11  and  C_12
REMARK    4  A    between atoms: C_17  and  C_19
REMARK    5  A    between atoms: C_19  and  O_20
REMARK    6  A    between atoms: O_20  and  C_21
REMARK                            x       y       z     vdW  Elec       q    Type
REMARK                         _______ _______ _______ _____ _____    ______ ____
ROOT
ATOM      1  C   UNL     1       0.387  11.388  20.571  0.00  0.00    +0.000 C 
ATOM      2  C   UNL     1       0.094  10.682  21.909  0.00  0.00    +0.000 C 
ATOM      3  C   UNL     1       0.663   9.270  22.107  0.00  0.00    +0.000 C 
ATOM      4  C   UNL     1       0.977   8.437  20.858  0.00  0.00    +0.000 C 
ATOM      5  N   UNL     1       1.118   9.196  19.619  0.00  0.00    +0.000 N 
ATOM      6  C   UNL     1       1.810   8.761  18.487  0.00  0.00    +0.000 C 
ATOM      7  O   UNL     1       1.723   9.345  17.402  0.00  0.00    +0.000 OA
ATOM      8  C   UNL     1       0.214  10.334  19.452  0.00  0.00    +0.000 C 
ENDROOT
BRANCH   1  12
ATOM      9  N   UNL     1       1.408  14.894  19.075  0.00  0.00    +0.000 N 
ATOM     10  C   UNL     1       1.435  13.669  18.241  0.00  0.00    +0.000 C 
ATOM     11  C   UNL     1       2.043  12.459  19.001  0.00  0.00    +0.000 C 
ATOM     12  N   UNL     1       1.575  12.248  20.386  0.00  0.00    +0.000 NA
ATOM     13  C   UNL     1       1.660  13.523  21.103  0.00  0.00    +0.000 C 
ATOM     14  C   UNL     1       0.877  14.653  20.430  0.00  0.00    +0.000 C 
BRANCH   9  21
ATOM     15  C   UNL     1       3.227  16.645  17.581  0.00  0.00    +0.000 C 
ATOM     16  C   UNL     1       1.771  16.951  17.794  0.00  0.00    +0.000 A 
ATOM     17  C   UNL     1       1.279  18.160  17.268  0.00  0.00    +0.000 A 
ATOM     18  C   UNL     1      -0.062  18.507  17.408  0.00  0.00    +0.000 A 
ATOM     19  C   UNL     1      -0.922  17.660  18.090  0.00  0.00    +0.000 A 
ATOM     20  C   UNL     1      -0.440  16.462  18.630  0.00  0.00    +0.000 A 
ATOM     21  C   UNL     1       0.909  16.084  18.510  0.00  0.00    +0.000 A 
ENDBRANCH   9  21
ENDBRANCH   1  12
BRANCH   6  22
ATOM     22  C   UNL     1       2.761   7.575  18.606  0.00  0.00    +0.000 C 
BRANCH  22  23
ATOM     23  O   UNL     1       3.716   7.646  17.559  0.00  0.00    +0.000 OA
BRANCH  23  24
ATOM     24  C   UNL     1       4.206   6.455  17.102  0.00  0.00    +0.000 A 
ATOM     25  C   UNL     1       3.559   5.330  17.618  0.00  0.00    +0.000 A 
ATOM     26  C   UNL     1       3.973   4.046  17.260  0.00  0.00    +0.000 A 
ATOM     27  C   UNL     1       5.029   3.882  16.366  0.00  0.00    +0.000 A 
ATOM     28  C   UNL     1       5.658   5.000  15.823  0.00  0.00    +0.000 A 
ATOM     29  C   UNL     1       5.246   6.286  16.187  0.00  0.00    +0.000 A 
ENDBRANCH  23  24
ENDBRANCH  22  23
ENDBRANCH   6  22
TORSDOF 5
ENDMDL
MODEL 4
REMARK VINA RESULT:      -7.6      1.117      1.485
REMARK  Name = 
REMARK  6 active torsions:
REMARK  status: ('A' for Active; 'I' for Inactive)
REMARK    1  A    between atoms: C_1  and  C_2
REMARK    2  A    between atoms: C_7  and  N_8
REMARK    3  A    between atoms: N_11  and  C_12
REMARK    4  A    between atoms: C_17  and  C_19
REMARK    5  A    between atoms: C_19  and  O_20
REMARK    6  A    between atoms: O_20  and  C_21
REMARK                            x       y       z     vdW  Elec       q    Type
REMARK                         _______ _______ _______ _____ _____    ______ ____
ROOT
ATOM      1  C   UNL     1       0.314  11.223  20.523  0.00  0.00    +0.000 C 
ATOM      2  C   UNL     1      -0.079  10.691  21.916  0.00  0.00    +0.000 C 
ATOM      3  C   UNL     1       0.464   9.316  22.331  0.00  0.00    +0.000 C 
ATOM      4  C   UNL     1       0.861   8.333  21.224  0.00  0.00    +0.000 C 
ATOM      5  N   UNL     1       1.097   8.929  19.912  0.00  0.00    +0.000 N 
ATOM      6  C   UNL     1       1.865   8.355  18.898  0.00  0.00    +0.000 C 
ATOM      7  O   UNL     1       1.862   8.796  17.743  0.00  0.00    +0.000 OA
ATOM      8  C   UNL     1       0.216  10.034  19.538  0.00  0.00    +0.000 C 
ENDROOT
BRANCH   1  12
ATOM      9  N   UNL     1       1.383  14.731  19.067  0.00  0.00    +0.000 N 
ATOM     10  C   UNL     1       1.349  13.525  18.208  0.00  0.00    +0.000 C 
ATOM     11  C   UNL     1       1.948  12.282  18.922  0.00  0.00    +0.000 C 
ATOM     12  N   UNL     1       1.520  12.054  20.318  0.00  0.00    +0.000 NA
ATOM     13  C   UNL     1       1.662  13.311  21.057  0.00  0.00    +0.000 C 
ATOM     14  C   UNL     1       0.889  14.475  20.434  0.00  0.00    +0.000 C 
BRANCH   9  21
ATOM     15  C   UNL     1       3.236  16.538  17.688  0.00  0.00    +0.000 C 
ATOM     16  C   UNL     1       1.777  16.840  17.884  0.00  0.00    +0.000 A 
ATOM     17  C   UNL     1       1.299  18.072  17.400  0.00  0.00    +0.000 A 
ATOM     18  C   UNL     1      -0.043  18.417  17.527  0.00  0.00    +0.000 A 
ATOM     19  C   UNL     1      -0.920  17.545  18.155  0.00  0.00    +0.000 A 
ATOM     20  C   UNL     1      -0.452  16.324  18.653  0.00  0.00    +0.000 A 
ATOM     21  C   UNL     1       0.899  15.946  18.544  0.00  0.00    +0.000 A 
ENDBRANCH   9  21
ENDBRANCH   1  12
BRANCH   6  22
ATOM     22  C   UNL     1       2.797   7.196  19.234  0.00  0.00    +0.000 C 
BRANCH  22  23
ATOM     23  O   UNL     1       2.244   5.997  18.713  0.00  0.00    +0.000 OA
BRANCH  23  24
ATOM     24  C   UNL     1       2.283   4.905  19.533  0.00  0.00    +0.000 A 
ATOM     25  C   UNL     1       3.411   4.098  19.366  0.00  0.00    +0.000 A 
ATOM     26  C   UNL     1       3.569   2.933  20.119  0.00  0.00    +0.000 A 
ATOM     27  C   UNL     1       2.603   2.578  21.058  0.00  0.00    +0.000 A 
ATOM     28  C   UNL     1       1.492   3.395  21.253  0.00  0.00    +0.000 A 
ATOM     29  C   UNL     1       1.331   4.559  20.494  0.00  0.00    +0.000 A 
ENDBRANCH  23  24
ENDBRANCH  22  23
ENDBRANCH   6  22
TORSDOF 5
ENDMDL
MODEL 5
REMARK VINA RESULT:      -7.6      2.468      8.709
REMARK  Name = 
REMARK  6 active torsions:
REMARK  status: ('A' for Active; 'I' for Inactive)
REMARK    1  A    between atoms: C_1  and  C_2
REMARK    2  A    between atoms: C_7  and  N_8
REMARK    3  A    between atoms: N_11  and  C_12
REMARK    4  A    between atoms: C_17  and  C_19
REMARK    5  A    between atoms: C_19  and  O_20
REMARK    6  A    between atoms: O_20  and  C_21
REMARK                            x       y       z     vdW  Elec       q    Type
REMARK                         _______ _______ _______ _____ _____    ______ ____
ROOT
ATOM      1  C   UNL     1      -0.410   9.920  19.354  0.00  0.00    +0.000 C 
ATOM      2  C   UNL     1      -1.091  10.649  18.178  0.00  0.00    +0.000 C 
ATOM      3  C   UNL     1      -1.383  12.147  18.344  0.00  0.00    +0.000 C 
ATOM      4  C   UNL     1      -1.518  12.703  19.767  0.00  0.00    +0.000 C 
ATOM      5  N   UNL     1      -0.940  11.874  20.820  0.00  0.00    +0.000 N 
ATOM      6  C   UNL     1      -0.548  12.335  22.078  0.00  0.00    +0.000 C 
ATOM      7  O   UNL     1      -0.262  11.562  22.999  0.00  0.00    +0.000 OA
ATOM      8  C   UNL     1      -1.080  10.428  20.653  0.00  0.00    +0.000 C 
ENDROOT
BRANCH   1  12
ATOM      9  N   UNL     1       2.507   7.342  18.713  0.00  0.00    +0.000 N 
ATOM     10  C   UNL     1       1.830   7.420  20.029  0.00  0.00    +0.000 C 
ATOM     11  C   UNL     1       1.595   8.888  20.479  0.00  0.00    +0.000 C 
ATOM     12  N   UNL     1       1.061   9.812  19.457  0.00  0.00    +0.000 NA
ATOM     13  C   UNL     1       1.859   9.668  18.238  0.00  0.00    +0.000 C 
ATOM     14  C   UNL     1       1.903   8.233  17.705  0.00  0.00    +0.000 C 
BRANCH   9  21
ATOM     15  C   UNL     1       5.084   6.928  17.374  0.00  0.00    +0.000 C 
ATOM     16  C   UNL     1       4.047   5.851  17.526  0.00  0.00    +0.000 A 
ATOM     17  C   UNL     1       4.332   4.592  16.963  0.00  0.00    +0.000 A 
ATOM     18  C   UNL     1       3.430   3.538  17.077  0.00  0.00    +0.000 A 
ATOM     19  C   UNL     1       2.226   3.733  17.738  0.00  0.00    +0.000 A 
ATOM     20  C   UNL     1       1.926   4.985  18.287  0.00  0.00    +0.000 A 
ATOM     21  C   UNL     1       2.814   6.072  18.187  0.00  0.00    +0.000 A 
ENDBRANCH   9  21
ENDBRANCH   1  12
BRANCH   6  22
ATOM     22  C   UNL     1      -0.393  13.834  22.307  0.00  0.00    +0.000 C 
BRANCH  22  23
ATOM     23  O   UNL     1       0.983  14.171  22.226  0.00  0.00    +0.000 OA
BRANCH  23  24
ATOM     24  C   UNL     1       1.504  14.296  20.969  0.00  0.00    +0.000 A 
ATOM     25  C   UNL     1       0.992  15.369  20.236  0.00  0.00    +0.000 A 
ATOM     26  C   UNL     1       1.414  15.600  18.925  0.00  0.00    +0.000 A 
ATOM     27  C   UNL     1       2.368  14.765  18.347  0.00  0.00    +0.000 A 
ATOM     28  C   UNL     1       2.907  13.713  19.084  0.00  0.00    +0.000 A 
ATOM     29  C   UNL     1       2.479  13.478  20.394  0.00  0.00    +0.000 A 
ENDBRANCH  23  24
ENDBRANCH  22  23
ENDBRANCH   6  22
TORSDOF 5
ENDMDL
MODEL 6
REMARK VINA RESULT:      -7.5      0.912      1.021
REMARK  Name = 
REMARK  6 active torsions:
REMARK  status: ('A' for Active; 'I' for Inactive)
REMARK    1  A    between atoms: C_1  and  C_2
REMARK    2  A    between atoms: C_7  and  N_8
REMARK    3  A    between atoms: N_11  and  C_12
REMARK    4  A    between atoms: C_17  and  C_19
REMARK    5  A    between atoms: C_19  and  O_20
REMARK    6  A    between atoms: O_20  and  C_21
REMARK                            x       y       z     vdW  Elec       q    Type
REMARK                         _______ _______ _______ _____ _____    ______ ____
ROOT
ATOM      1  C   UNL     1       0.193  11.342  20.639  0.00  0.00    +0.000 C 
ATOM      2  C   UNL     1      -0.218  10.902  22.059  0.00  0.00    +0.000 C 
ATOM      3  C   UNL     1       0.296   9.546  22.560  0.00  0.00    +0.000 C 
ATOM      4  C   UNL     1       0.680   8.490  21.517  0.00  0.00    +0.000 C 
ATOM      5  N   UNL     1       0.935   9.001  20.173  0.00  0.00    +0.000 N 
ATOM      6  C   UNL     1       1.698   8.352  19.201  0.00  0.00    +0.000 C 
ATOM      7  O   UNL     1       1.709   8.723  18.022  0.00  0.00    +0.000 OA
ATOM      8  C   UNL     1       0.077  10.098  19.727  0.00  0.00    +0.000 C 
ENDROOT
BRANCH   1  12
ATOM      9  N   UNL     1       1.323  14.785  19.079  0.00  0.00    +0.000 N 
ATOM     10  C   UNL     1       1.243  13.560  18.250  0.00  0.00    +0.000 C 
ATOM     11  C   UNL     1       1.823  12.320  18.984  0.00  0.00    +0.000 C 
ATOM     12  N   UNL     1       1.415  12.137  20.392  0.00  0.00    +0.000 NA
ATOM     13  C   UNL     1       1.602  13.406  21.098  0.00  0.00    +0.000 C 
ATOM     14  C   UNL     1       0.848  14.575  20.460  0.00  0.00    +0.000 C 
BRANCH   9  21
ATOM     15  C   UNL     1       3.218  16.558  17.711  0.00  0.00    +0.000 C 
ATOM     16  C   UNL     1       1.759  16.877  17.880  0.00  0.00    +0.000 A 
ATOM     17  C   UNL     1       1.302  18.109  17.375  0.00  0.00    +0.000 A 
ATOM     18  C   UNL     1      -0.039  18.469  17.475  0.00  0.00    +0.000 A 
ATOM     19  C   UNL     1      -0.935  17.612  18.098  0.00  0.00    +0.000 A 
ATOM     20  C   UNL     1      -0.488  16.392  18.617  0.00  0.00    +0.000 A 
ATOM     21  C   UNL     1       0.861  15.999  18.534  0.00  0.00    +0.000 A 
ENDBRANCH   9  21
ENDBRANCH   1  12
BRANCH   6  22
ATOM     22  C   UNL     1       2.605   7.198  19.613  0.00  0.00    +0.000 C 
BRANCH  22  23
ATOM     23  O   UNL     1       1.813   6.180  20.204  0.00  0.00    +0.000 OA
BRANCH  23  24
ATOM     24  C   UNL     1       1.754   4.991  19.534  0.00  0.00    +0.000 A 
ATOM     25  C   UNL     1       1.312   3.915  20.306  0.00  0.00    +0.000 A 
ATOM     26  C   UNL     1       1.229   2.634  19.758  0.00  0.00    +0.000 A 
ATOM     27  C   UNL     1       1.573   2.427  18.424  0.00  0.00    +0.000 A 
ATOM     28  C   UNL     1       1.984   3.502  17.639  0.00  0.00    +0.000 A 
ATOM     29  C   UNL     1       2.072   4.784  18.190  0.00  0.00    +0.000 A 
ENDBRANCH  23  24
ENDBRANCH  22  23
ENDBRANCH   6  22
TORSDOF 5
ENDMDL
MODEL 7
REMARK VINA RESULT:      -7.5      2.273      9.446
REMARK  Name = 
REMARK  6 active torsions:
REMARK  status: ('A' for Active; 'I' for Inactive)
REMARK    1  A    between atoms: C_1  and  C_2
REMARK    2  A    between atoms: C_7  and  N_8
REMARK    3  A    between atoms: N_11  and  C_12
REMARK    4  A    between atoms: C_17  and  C_19
REMARK    5  A    between atoms: C_19  and  O_20
REMARK    6  A    between atoms: O_20  and  C_21
REMARK                            x       y       z     vdW  Elec       q    Type
REMARK                         _______ _______ _______ _____ _____    ______ ____
ROOT
ATOM      1  C   UNL     1      -0.384   9.974  19.512  0.00  0.00    +0.000 C 
ATOM      2  C   UNL     1      -1.222  10.187  18.236  0.00  0.00    +0.000 C 
ATOM      3  C   UNL     1      -1.528  11.632  17.819  0.00  0.00    +0.000 C 
ATOM      4  C   UNL     1      -1.500  12.717  18.902  0.00  0.00    +0.000 C 
ATOM      5  N   UNL     1      -0.777  12.366  20.121  0.00  0.00    +0.000 N 
ATOM      6  C   UNL     1      -0.244  13.284  21.028  0.00  0.00    +0.000 C 
ATOM      7  O   UNL     1       0.171  12.940  22.140  0.00  0.00    +0.000 OA
ATOM      8  C   UNL     1      -0.901  10.980  20.568  0.00  0.00    +0.000 C 
ENDROOT
BRANCH   1  12
ATOM      9  N   UNL     1       2.474   7.385  18.679  0.00  0.00    +0.000 N 
ATOM     10  C   UNL     1       1.934   7.511  20.052  0.00  0.00    +0.000 C 
ATOM     11  C   UNL     1       1.733   8.995  20.467  0.00  0.00    +0.000 C 
ATOM     12  N   UNL     1       1.091   9.876  19.470  0.00  0.00    +0.000 NA
ATOM     13  C   UNL     1       1.762   9.688  18.182  0.00  0.00    +0.000 C 
ATOM     14  C   UNL     1       1.764   8.234  17.703  0.00  0.00    +0.000 C 
BRANCH   9  21
ATOM     15  C   UNL     1       5.048   6.851  17.377  0.00  0.00    +0.000 C 
ATOM     16  C   UNL     1       3.967   5.818  17.530  0.00  0.00    +0.000 A 
ATOM     17  C   UNL     1       4.209   4.542  16.988  0.00  0.00    +0.000 A 
ATOM     18  C   UNL     1       3.264   3.526  17.105  0.00  0.00    +0.000 A 
ATOM     19  C   UNL     1       2.061   3.778  17.747  0.00  0.00    +0.000 A 
ATOM     20  C   UNL     1       1.805   5.047  18.276  0.00  0.00    +0.000 A 
ATOM     21  C   UNL     1       2.736   6.097  18.173  0.00  0.00    +0.000 A 
ENDBRANCH   9  21
ENDBRANCH   1  12
BRANCH   6  22
ATOM     22  C   UNL     1      -0.099  14.743  20.613  0.00  0.00    +0.000 C 
BRANCH  22  23
ATOM     23  O   UNL     1       0.945  14.847  19.658  0.00  0.00    +0.000 OA
BRANCH  23  24
ATOM     24  C   UNL     1       0.902  15.931  18.827  0.00  0.00    +0.000 A 
ATOM     25  C   UNL     1      -0.385  16.408  18.568  0.00  0.00    +0.000 A 
ATOM     26  C   UNL     1      -0.581  17.494  17.713  0.00  0.00    +0.000 A 
ATOM     27  C   UNL     1       0.515  18.121  17.126  0.00  0.00    +0.000 A 
ATOM     28  C   UNL     1       1.804  17.672  17.406  0.00  0.00    +0.000 A 
ATOM     29  C   UNL     1       1.999  16.580  18.258  0.00  0.00    +0.000 A 
ENDBRANCH  23  24
ENDBRANCH  22  23
ENDBRANCH   6  22
TORSDOF 5
ENDMDL
MODEL 8
REMARK VINA RESULT:      -7.4      3.564      6.525
REMARK  Name = 
REMARK  6 active torsions:
REMARK  status: ('A' for Active; 'I' for Inactive)
REMARK    1  A    between atoms: C_1  and  C_2
REMARK    2  A    between atoms: C_7  and  N_8
REMARK    3  A    between atoms: N_11  and  C_12
REMARK    4  A    between atoms: C_17  and  C_19
REMARK    5  A    between atoms: C_19  and  O_20
REMARK    6  A    between atoms: O_20  and  C_21
REMARK                            x       y       z     vdW  Elec       q    Type
REMARK                         _______ _______ _______ _____ _____    ______ ____
ROOT
ATOM      1  C   UNL     1       1.647   5.509  19.667  0.00  0.00    +0.000 C 
ATOM      2  C   UNL     1       1.609   4.488  20.821  0.00  0.00    +0.000 C 
ATOM      3  C   UNL     1       2.704   3.413  20.856  0.00  0.00    +0.000 C 
ATOM      4  C   UNL     1       3.400   3.049  19.539  0.00  0.00    +0.000 C 
ATOM      5  N   UNL     1       3.275   4.037  18.471  0.00  0.00    +0.000 N 
ATOM      6  C   UNL     1       4.142   4.156  17.384  0.00  0.00    +0.000 C 
ATOM      7  O   UNL     1       3.875   4.864  16.407  0.00  0.00    +0.000 OA
ATOM      8  C   UNL     1       1.988   4.726  18.377  0.00  0.00    +0.000 C 
ENDROOT
BRANCH   1  12
ATOM      9  N   UNL     1       1.146   9.369  19.018  0.00  0.00    +0.000 N 
ATOM     10  C   UNL     1       1.688   8.480  17.963  0.00  0.00    +0.000 C 
ATOM     11  C   UNL     1       2.732   7.477  18.525  0.00  0.00    +0.000 C 
ATOM     12  N   UNL     1       2.376   6.791  19.784  0.00  0.00    +0.000 NA
ATOM     13  C   UNL     1       1.916   7.795  20.746  0.00  0.00    +0.000 C 
ATOM     14  C   UNL     1       0.745   8.636  20.234  0.00  0.00    +0.000 C 
BRANCH   9  21
ATOM     15  C   UNL     1       1.690  12.178  19.662  0.00  0.00    +0.000 C 
ATOM     16  C   UNL     1       0.442  11.715  18.964  0.00  0.00    +0.000 A 
ATOM     17  C   UNL     1      -0.518  12.691  18.637  0.00  0.00    +0.000 A 
ATOM     18  C   UNL     1      -1.692  12.344  17.974  0.00  0.00    +0.000 A 
ATOM     19  C   UNL     1      -1.929  11.017  17.646  0.00  0.00    +0.000 A 
ATOM     20  C   UNL     1      -0.987  10.037  17.981  0.00  0.00    +0.000 A 
ATOM     21  C   UNL     1       0.207  10.353  18.653  0.00  0.00    +0.000 A 
ENDBRANCH   9  21
ENDBRANCH   1  12
BRANCH   6  22
ATOM     22  C   UNL     1       5.494   3.452  17.428  0.00  0.00    +0.000 C 
BRANCH  22  23
ATOM     23  O   UNL     1       6.418   4.184  16.639  0.00  0.00    +0.000 OA
BRANCH  23  24
ATOM     24  C   UNL     1       6.980   5.283  17.224  0.00  0.00    +0.000 A 
ATOM     25  C   UNL     1       7.577   5.035  18.463  0.00  0.00    +0.000 A 
ATOM     26  C   UNL     1       8.166   6.072  19.188  0.00  0.00    +0.000 A 
ATOM     27  C   UNL     1       8.177   7.364  18.666  0.00  0.00    +0.000 A 
ATOM     28  C   UNL     1       7.612   7.612  17.417  0.00  0.00    +0.000 A 
ATOM     29  C   UNL     1       7.017   6.574  16.694  0.00  0.00    +0.000 A 
ENDBRANCH  23  24
ENDBRANCH  22  23
ENDBRANCH   6  22
TORSDOF 5
ENDMDL
MODEL 9
REMARK VINA RESULT:      -7.4      4.015      6.936
REMARK  Name = 
REMARK  6 active torsions:
REMARK  status: ('A' for Active; 'I' for Inactive)
REMARK    1  A    between atoms: C_1  and  C_2
REMARK    2  A    between atoms: C_7  and  N_8
REMARK    3  A    between atoms: N_11  and  C_12
REMARK    4  A    between atoms: C_17  and  C_19
REMARK    5  A    between atoms: C_19  and  O_20
REMARK    6  A    between atoms: O_20  and  C_21
REMARK                            x       y       z     vdW  Elec       q    Type
REMARK                         _______ _______ _______ _____ _____    ______ ____
ROOT
ATOM      1  C   UNL     1       2.159   6.136  19.061  0.00  0.00    +0.000 C 
ATOM      2  C   UNL     1       2.370   4.962  20.037  0.00  0.00    +0.000 C 
ATOM      3  C   UNL     1       3.726   4.245  20.003  0.00  0.00    +0.000 C 
ATOM      4  C   UNL     1       4.550   4.320  18.712  0.00  0.00    +0.000 C 
ATOM      5  N   UNL     1       4.188   5.401  17.801  0.00  0.00    +0.000 N 
ATOM      6  C   UNL     1       5.028   5.940  16.824  0.00  0.00    +0.000 C 
ATOM      7  O   UNL     1       4.607   6.703  15.948  0.00  0.00    +0.000 OA
ATOM      8  C   UNL     1       2.763   5.711  17.701  0.00  0.00    +0.000 C 
ENDROOT
BRANCH   1  12
ATOM      9  N   UNL     1       0.505   9.717  19.197  0.00  0.00    +0.000 N 
ATOM     10  C   UNL     1       1.225   9.252  17.987  0.00  0.00    +0.000 C 
ATOM     11  C   UNL     1       2.549   8.521  18.341  0.00  0.00    +0.000 C 
ATOM     12  N   UNL     1       2.482   7.530  19.435  0.00  0.00    +0.000 NA
ATOM     13  C   UNL     1       1.802   8.145  20.577  0.00  0.00    +0.000 C 
ATOM     14  C   UNL     1       0.407   8.678  20.239  0.00  0.00    +0.000 C 
BRANCH   9  21
ATOM     15  C   UNL     1      -0.030  12.050  20.891  0.00  0.00    +0.000 C 
ATOM     16  C   UNL     1      -0.988  11.547  19.848  0.00  0.00    +0.000 A 
ATOM     17  C   UNL     1      -2.214  12.225  19.710  0.00  0.00    +0.000 A 
ATOM     18  C   UNL     1      -3.145  11.832  18.754  0.00  0.00    +0.000 A 
ATOM     19  C   UNL     1      -2.872  10.745  17.937  0.00  0.00    +0.000 A 
ATOM     20  C   UNL     1      -1.663  10.054  18.075  0.00  0.00    +0.000 A 
ATOM     21  C   UNL     1      -0.701  10.424  19.033  0.00  0.00    +0.000 A 
ENDBRANCH   9  21
ENDBRANCH   1  12
BRANCH   6  22
ATOM     22  C   UNL     1       6.522   5.643  16.879  0.00  0.00    +0.000 C 
BRANCH  22  23
ATOM     23  O   UNL     1       6.768   4.409  16.222  0.00  0.00    +0.000 OA
BRANCH  23  24
ATOM     24  C   UNL     1       6.894   4.461  14.862  0.00  0.00    +0.000 A 
ATOM     25  C   UNL     1       6.035   3.603  14.171  0.00  0.00    +0.000 A 
ATOM     26  C   UNL     1       6.074   3.531  12.777  0.00  0.00    +0.000 A 
ATOM     27  C   UNL     1       6.963   4.333  12.066  0.00  0.00    +0.000 A 
ATOM     28  C   UNL     1       7.800   5.214  12.747  0.00  0.00    +0.000 A 
ATOM     29  C   UNL     1       7.765   5.282  14.144  0.00  0.00    +0.000 A 
ENDBRANCH  23  24
ENDBRANCH  22  23
ENDBRANCH   6  22
TORSDOF 5
ENDMDL
