MODEL 1
REMARK VINA RESULT:      -7.9      0.000      0.000
REMARK  Name = 
REMARK  8 active torsions:
REMARK  status: ('A' for Active; 'I' for Inactive)
REMARK    1  A    between atoms: C_1  and  C_2
REMARK    2  A    between atoms: C_2  and  C_3
REMARK    3  A    between atoms: C_3  and  C_4
REMARK    4  A    between atoms: C_6  and  O_7
REMARK    5  A    between atoms: O_7  and  C_8
REMARK    6  A    between atoms: C_16  and  C_17
REMARK    7  A    between atoms: C_21  and  C_22
REMARK    8  A    between atoms: C_22  and  O_24
REMARK                            x       y       z     vdW  Elec       q    Type
REMARK                         _______ _______ _______ _____ _____    ______ ____
ROOT
ATOM      1  C   UNL     1       4.675   6.435  17.663  0.00  0.00    +0.000 A 
ATOM      2  C   UNL     1       4.000   7.564  17.171  0.00  0.00    +0.000 A 
ATOM      3  C   UNL     1       2.751   7.930  17.674  0.00  0.00    +0.000 A 
ATOM      4  C   UNL     1       2.120   7.111  18.616  0.00  0.00    +0.000 A 
ATOM      5  C   UNL     1       2.750   5.960  19.093  0.00  0.00    +0.000 A 
ATOM      6  C   UNL     1       4.029   5.632  18.613  0.00  0.00    +0.000 A 
ATOM      7  O   UNL     1       4.700   4.532  19.085  0.00  0.00    +0.000 OA
ATOM      8  C   UNL     1       3.851   3.430  19.499  0.00  0.00    +0.000 C 
ATOM      9  C   UNL     1       2.667   3.905  20.317  0.00  0.00    +0.000 C 
ATOM     10  C   UNL     1       2.123   5.116  20.106  0.00  0.00    +0.000 C 
ENDROOT
BRANCH   8  11
ATOM     11  C   UNL     1       3.452   2.536  18.302  0.00  0.00    +0.000 C 
ATOM     12  F   UNL     1       2.205   2.822  17.848  0.00  0.00    +0.000 F 
ATOM     13  F   UNL     1       4.290   2.710  17.252  0.00  0.00    +0.000 F 
ATOM     14  F   UNL     1       3.456   1.218  18.611  0.00  0.00    +0.000 F 
ENDBRANCH   8  11
BRANCH   9  15
ATOM     15  C   UNL     1       2.154   2.895  21.264  0.00  0.00    +0.000 C 
ATOM     16  O   UNL     1       2.890   2.319  22.047  0.00  0.00    +0.000 OA
BRANCH  15  17
ATOM     17  O   UNL     1       0.822   2.711  21.243  0.00  0.00    +0.000 OA
ATOM     18  H   UNL     1       0.352   3.077  20.474  0.00  0.00    +0.000 HD
ENDBRANCH  15  17
ENDBRANCH   9  15
BRANCH   1  19
ATOM     19  C   UNL     1       6.055   6.096  17.139  0.00  0.00    +0.000 C 
BRANCH  19  21
ATOM     20  C   UNL     1       7.735   7.970  17.583  0.00  0.00    +0.000 C 
ATOM     21  C   UNL     1       7.210   6.607  18.010  0.00  0.00    +0.000 C 
ENDBRANCH  19  21
ENDBRANCH   1  19
BRANCH   3  22
ATOM     22  O   UNL     1       2.027   9.014  17.276  0.00  0.00    +0.000 OA
BRANCH  22  23
ATOM     23  C   UNL     1       1.624   9.983  18.238  0.00  0.00    +0.000 C 
ATOM     24  F   UNL     1       1.728   9.579  19.523  0.00  0.00    +0.000 F 
ATOM     25  F   UNL     1       2.364  11.100  18.076  0.00  0.00    +0.000 F 
ATOM     26  F   UNL     1       0.330  10.297  18.011  0.00  0.00    +0.000 F 
ENDBRANCH  22  23
ENDBRANCH   3  22
TORSDOF 7
ENDMDL
MODEL 2
REMARK VINA RESULT:      -7.9      1.304      1.731
REMARK  Name = 
REMARK  8 active torsions:
REMARK  status: ('A' for Active; 'I' for Inactive)
REMARK    1  A    between atoms: C_1  and  C_2
REMARK    2  A    between atoms: C_2  and  C_3
REMARK    3  A    between atoms: C_3  and  C_4
REMARK    4  A    between atoms: C_6  and  O_7
REMARK    5  A    between atoms: O_7  and  C_8
REMARK    6  A    between atoms: C_16  and  C_17
REMARK    7  A    between atoms: C_21  and  C_22
REMARK    8  A    between atoms: C_22  and  O_24
REMARK                            x       y       z     vdW  Elec       q    Type
REMARK                         _______ _______ _______ _____ _____    ______ ____
ROOT
ATOM      1  C   UNL     1       3.618   7.071  17.775  0.00  0.00    +0.000 A 
ATOM      2  C   UNL     1       2.999   8.333  17.802  0.00  0.00    +0.000 A 
ATOM      3  C   UNL     1       2.097   8.668  18.812  0.00  0.00    +0.000 A 
ATOM      4  C   UNL     1       1.731   7.705  19.758  0.00  0.00    +0.000 A 
ATOM      5  C   UNL     1       2.299   6.429  19.731  0.00  0.00    +0.000 A 
ATOM      6  C   UNL     1       3.244   6.123  18.737  0.00  0.00    +0.000 A 
ATOM      7  O   UNL     1       3.855   4.895  18.698  0.00  0.00    +0.000 OA
ATOM      8  C   UNL     1       3.051   3.796  19.202  0.00  0.00    +0.000 C 
ATOM      9  C   UNL     1       2.341   4.160  20.490  0.00  0.00    +0.000 C 
ATOM     10  C   UNL     1       1.959   5.426  20.735  0.00  0.00    +0.000 C 
ENDROOT
BRANCH   8  11
ATOM     11  C   UNL     1       2.104   3.237  18.115  0.00  0.00    +0.000 C 
ATOM     12  F   UNL     1       2.536   3.534  16.863  0.00  0.00    +0.000 F 
ATOM     13  F   UNL     1       2.019   1.886  18.180  0.00  0.00    +0.000 F 
ATOM     14  F   UNL     1       0.847   3.729  18.215  0.00  0.00    +0.000 F 
ENDBRANCH   8  11
BRANCH   9  15
ATOM     15  C   UNL     1       2.054   3.003  21.360  0.00  0.00    +0.000 C 
ATOM     16  O   UNL     1       2.936   2.438  21.986  0.00  0.00    +0.000 OA
BRANCH  15  17
ATOM     17  O   UNL     1       0.757   2.664  21.460  0.00  0.00    +0.000 OA
ATOM     18  H   UNL     1       0.368   2.232  20.680  0.00  0.00    +0.000 HD
ENDBRANCH  15  17
ENDBRANCH   9  15
BRANCH   1  19
ATOM     19  C   UNL     1       4.636   6.757  16.699  0.00  0.00    +0.000 C 
BRANCH  19  21
ATOM     20  C   UNL     1       6.937   5.908  17.421  0.00  0.00    +0.000 C 
ATOM     21  C   UNL     1       6.082   7.117  17.068  0.00  0.00    +0.000 C 
ENDBRANCH  19  21
ENDBRANCH   1  19
BRANCH   3  22
ATOM     22  O   UNL     1       1.462   9.867  18.935  0.00  0.00    +0.000 OA
BRANCH  22  23
ATOM     23  C   UNL     1       0.121  10.003  18.475  0.00  0.00    +0.000 C 
ATOM     24  F   UNL     1      -0.189   9.238  17.406  0.00  0.00    +0.000 F 
ATOM     25  F   UNL     1      -0.724   9.698  19.483  0.00  0.00    +0.000 F 
ATOM     26  F   UNL     1      -0.083  11.293  18.129  0.00  0.00    +0.000 F 
ENDBRANCH  22  23
ENDBRANCH   3  22
TORSDOF 7
ENDMDL
MODEL 3
REMARK VINA RESULT:      -7.9      0.226      1.094
REMARK  Name = 
REMARK  8 active torsions:
REMARK  status: ('A' for Active; 'I' for Inactive)
REMARK    1  A    between atoms: C_1  and  C_2
REMARK    2  A    between atoms: C_2  and  C_3
REMARK    3  A    between atoms: C_3  and  C_4
REMARK    4  A    between atoms: C_6  and  O_7
REMARK    5  A    between atoms: O_7  and  C_8
REMARK    6  A    between atoms: C_16  and  C_17
REMARK    7  A    between atoms: C_21  and  C_22
REMARK    8  A    between atoms: C_22  and  O_24
REMARK                            x       y       z     vdW  Elec       q    Type
REMARK                         _______ _______ _______ _____ _____    ______ ____
ROOT
ATOM      1  C   UNL     1       4.809   6.312  17.714  0.00  0.00    +0.000 A 
ATOM      2  C   UNL     1       4.177   7.454  17.192  0.00  0.00    +0.000 A 
ATOM      3  C   UNL     1       2.929   7.862  17.664  0.00  0.00    +0.000 A 
ATOM      4  C   UNL     1       2.255   7.073  18.603  0.00  0.00    +0.000 A 
ATOM      5  C   UNL     1       2.843   5.911  19.108  0.00  0.00    +0.000 A 
ATOM      6  C   UNL     1       4.121   5.541  18.660  0.00  0.00    +0.000 A 
ATOM      7  O   UNL     1       4.750   4.428  19.160  0.00  0.00    +0.000 OA
ATOM      8  C   UNL     1       3.862   3.356  19.570  0.00  0.00    +0.000 C 
ATOM      9  C   UNL     1       2.675   3.876  20.356  0.00  0.00    +0.000 C 
ATOM     10  C   UNL     1       2.170   5.099  20.119  0.00  0.00    +0.000 C 
ENDROOT
BRANCH   8  11
ATOM     11  C   UNL     1       3.462   2.459  18.376  0.00  0.00    +0.000 C 
ATOM     12  F   UNL     1       4.251   2.673  17.293  0.00  0.00    +0.000 F 
ATOM     13  F   UNL     1       3.583   1.144  18.682  0.00  0.00    +0.000 F 
ATOM     14  F   UNL     1       2.187   2.666  17.971  0.00  0.00    +0.000 F 
ENDBRANCH   8  11
BRANCH   9  15
ATOM     15  C   UNL     1       2.114   2.894  21.305  0.00  0.00    +0.000 C 
ATOM     16  O   UNL     1       2.819   2.298  22.102  0.00  0.00    +0.000 OA
BRANCH  15  17
ATOM     17  O   UNL     1       0.777   2.757  21.269  0.00  0.00    +0.000 OA
ATOM     18  H   UNL     1       0.444   1.851  21.145  0.00  0.00    +0.000 HD
ENDBRANCH  15  17
ENDBRANCH   9  15
BRANCH   1  19
ATOM     19  C   UNL     1       6.189   5.928  17.223  0.00  0.00    +0.000 C 
BRANCH  19  21
ATOM     20  C   UNL     1       7.777   7.895  17.604  0.00  0.00    +0.000 C 
ATOM     21  C   UNL     1       7.343   6.507  18.052  0.00  0.00    +0.000 C 
ENDBRANCH  19  21
ENDBRANCH   1  19
BRANCH   3  22
ATOM     22  O   UNL     1       2.245   8.959  17.237  0.00  0.00    +0.000 OA
BRANCH  22  23
ATOM     23  C   UNL     1       1.539   9.760  18.181  0.00  0.00    +0.000 C 
ATOM     24  F   UNL     1       1.883  11.066  18.180  0.00  0.00    +0.000 F 
ATOM     25  F   UNL     1       0.215   9.662  17.939  0.00  0.00    +0.000 F 
ATOM     26  F   UNL     1       1.779   9.273  19.418  0.00  0.00    +0.000 F 
ENDBRANCH  22  23
ENDBRANCH   3  22
TORSDOF 7
ENDMDL
MODEL 4
REMARK VINA RESULT:      -7.8      1.231      1.549
REMARK  Name = 
REMARK  8 active torsions:
REMARK  status: ('A' for Active; 'I' for Inactive)
REMARK    1  A    between atoms: C_1  and  C_2
REMARK    2  A    between atoms: C_2  and  C_3
REMARK    3  A    between atoms: C_3  and  C_4
REMARK    4  A    between atoms: C_6  and  O_7
REMARK    5  A    between atoms: O_7  and  C_8
REMARK    6  A    between atoms: C_16  and  C_17
REMARK    7  A    between atoms: C_21  and  C_22
REMARK    8  A    between atoms: C_22  and  O_24
REMARK                            x       y       z     vdW  Elec       q    Type
REMARK                         _______ _______ _______ _____ _____    ______ ____
ROOT
ATOM      1  C   UNL     1       3.695   7.022  17.667  0.00  0.00    +0.000 A 
ATOM      2  C   UNL     1       3.117   8.303  17.677  0.00  0.00    +0.000 A 
ATOM      3  C   UNL     1       2.226   8.680  18.682  0.00  0.00    +0.000 A 
ATOM      4  C   UNL     1       1.829   7.740  19.640  0.00  0.00    +0.000 A 
ATOM      5  C   UNL     1       2.357   6.447  19.629  0.00  0.00    +0.000 A 
ATOM      6  C   UNL     1       3.292   6.099  18.641  0.00  0.00    +0.000 A 
ATOM      7  O   UNL     1       3.864   4.852  18.618  0.00  0.00    +0.000 OA
ATOM      8  C   UNL     1       3.026   3.786  19.135  0.00  0.00    +0.000 C 
ATOM      9  C   UNL     1       2.327   4.188  20.418  0.00  0.00    +0.000 C 
ATOM     10  C   UNL     1       1.985   5.468  20.647  0.00  0.00    +0.000 C 
ENDROOT
BRANCH   8  11
ATOM     11  C   UNL     1       2.063   3.242  18.055  0.00  0.00    +0.000 C 
ATOM     12  F   UNL     1       1.807   1.920  18.221  0.00  0.00    +0.000 F 
ATOM     13  F   UNL     1       0.864   3.872  18.098  0.00  0.00    +0.000 F 
ATOM     14  F   UNL     1       2.552   3.385  16.800  0.00  0.00    +0.000 F 
ENDBRANCH   8  11
BRANCH   9  15
ATOM     15  C   UNL     1       2.004   3.051  21.302  0.00  0.00    +0.000 C 
ATOM     16  O   UNL     1       2.853   2.521  22.000  0.00  0.00    +0.000 OA
BRANCH  15  17
ATOM     17  O   UNL     1       0.709   2.692  21.330  0.00  0.00    +0.000 OA
ATOM     18  H   UNL     1       0.398   2.281  22.155  0.00  0.00    +0.000 HD
ENDBRANCH  15  17
ENDBRANCH   9  15
BRANCH   1  19
ATOM     19  C   UNL     1       4.704   6.663  16.596  0.00  0.00    +0.000 C 
BRANCH  19  21
ATOM     20  C   UNL     1       7.015   7.460  17.344  0.00  0.00    +0.000 C 
ATOM     21  C   UNL     1       6.088   6.272  17.132  0.00  0.00    +0.000 C 
ENDBRANCH  19  21
ENDBRANCH   1  19
BRANCH   3  22
ATOM     22  O   UNL     1       1.628   9.899  18.789  0.00  0.00    +0.000 OA
BRANCH  22  23
ATOM     23  C   UNL     1       0.235  10.026  18.518  0.00  0.00    +0.000 C 
ATOM     24  F   UNL     1      -0.573   9.622  19.522  0.00  0.00    +0.000 F 
ATOM     25  F   UNL     1      -0.042  11.316  18.233  0.00  0.00    +0.000 F 
ATOM     26  F   UNL     1      -0.058   9.281  17.430  0.00  0.00    +0.000 F 
ENDBRANCH  22  23
ENDBRANCH   3  22
TORSDOF 7
ENDMDL
MODEL 5
REMARK VINA RESULT:      -7.7      0.673      1.046
REMARK  Name = 
REMARK  8 active torsions:
REMARK  status: ('A' for Active; 'I' for Inactive)
REMARK    1  A    between atoms: C_1  and  C_2
REMARK    2  A    between atoms: C_2  and  C_3
REMARK    3  A    between atoms: C_3  and  C_4
REMARK    4  A    between atoms: C_6  and  O_7
REMARK    5  A    between atoms: O_7  and  C_8
REMARK    6  A    between atoms: C_16  and  C_17
REMARK    7  A    between atoms: C_21  and  C_22
REMARK    8  A    between atoms: C_22  and  O_24
REMARK                            x       y       z     vdW  Elec       q    Type
REMARK                         _______ _______ _______ _____ _____    ______ ____
ROOT
ATOM      1  C   UNL     1       4.483   6.623  17.623  0.00  0.00    +0.000 A 
ATOM      2  C   UNL     1       3.799   7.771  17.186  0.00  0.00    +0.000 A 
ATOM      3  C   UNL     1       2.578   8.137  17.752  0.00  0.00    +0.000 A 
ATOM      4  C   UNL     1       1.979   7.303  18.702  0.00  0.00    +0.000 A 
ATOM      5  C   UNL     1       2.617   6.135  19.125  0.00  0.00    +0.000 A 
ATOM      6  C   UNL     1       3.870   5.805  18.582  0.00  0.00    +0.000 A 
ATOM      7  O   UNL     1       4.548   4.688  18.999  0.00  0.00    +0.000 OA
ATOM      8  C   UNL     1       3.706   3.585  19.425  0.00  0.00    +0.000 C 
ATOM      9  C   UNL     1       2.564   4.053  20.304  0.00  0.00    +0.000 C 
ATOM     10  C   UNL     1       2.024   5.274  20.145  0.00  0.00    +0.000 C 
ENDROOT
BRANCH   8  11
ATOM     11  C   UNL     1       3.245   2.723  18.227  0.00  0.00    +0.000 C 
ATOM     12  F   UNL     1       2.016   3.087  17.781  0.00  0.00    +0.000 F 
ATOM     13  F   UNL     1       4.087   2.850  17.172  0.00  0.00    +0.000 F 
ATOM     14  F   UNL     1       3.170   1.406  18.530  0.00  0.00    +0.000 F 
ENDBRANCH   8  11
BRANCH   9  15
ATOM     15  C   UNL     1       2.081   3.027  21.249  0.00  0.00    +0.000 C 
ATOM     16  O   UNL     1       2.834   2.475  22.035  0.00  0.00    +0.000 OA
BRANCH  15  17
ATOM     17  O   UNL     1       0.757   2.798  21.225  0.00  0.00    +0.000 OA
ATOM     18  H   UNL     1       0.369   2.448  22.046  0.00  0.00    +0.000 HD
ENDBRANCH  15  17
ENDBRANCH   9  15
BRANCH   1  19
ATOM     19  C   UNL     1       5.834   6.283  17.031  0.00  0.00    +0.000 C 
BRANCH  19  21
ATOM     20  C   UNL     1       6.852   4.473  15.541  0.00  0.00    +0.000 C 
ATOM     21  C   UNL     1       5.773   5.535  15.693  0.00  0.00    +0.000 C 
ENDBRANCH  19  21
ENDBRANCH   1  19
BRANCH   3  22
ATOM     22  O   UNL     1       1.849   9.236  17.410  0.00  0.00    +0.000 OA
BRANCH  22  23
ATOM     23  C   UNL     1       1.458  10.163  18.419  0.00  0.00    +0.000 C 
ATOM     24  F   UNL     1       1.531   9.687  19.681  0.00  0.00    +0.000 F 
ATOM     25  F   UNL     1       2.232  11.265  18.328  0.00  0.00    +0.000 F 
ATOM     26  F   UNL     1       0.177  10.527  18.191  0.00  0.00    +0.000 F 
ENDBRANCH  22  23
ENDBRANCH   3  22
TORSDOF 7
ENDMDL
MODEL 6
REMARK VINA RESULT:      -7.7      0.404      1.314
REMARK  Name = 
REMARK  8 active torsions:
REMARK  status: ('A' for Active; 'I' for Inactive)
REMARK    1  A    between atoms: C_1  and  C_2
REMARK    2  A    between atoms: C_2  and  C_3
REMARK    3  A    between atoms: C_3  and  C_4
REMARK    4  A    between atoms: C_6  and  O_7
REMARK    5  A    between atoms: O_7  and  C_8
REMARK    6  A    between atoms: C_16  and  C_17
REMARK    7  A    between atoms: C_21  and  C_22
REMARK    8  A    between atoms: C_22  and  O_24
REMARK                            x       y       z     vdW  Elec       q    Type
REMARK                         _______ _______ _______ _____ _____    ______ ____
ROOT
ATOM      1  C   UNL     1       4.784   6.285  17.632  0.00  0.00    +0.000 A 
ATOM      2  C   UNL     1       4.163   7.444  17.137  0.00  0.00    +0.000 A 
ATOM      3  C   UNL     1       2.944   7.883  17.654  0.00  0.00    +0.000 A 
ATOM      4  C   UNL     1       2.284   7.108  18.614  0.00  0.00    +0.000 A 
ATOM      5  C   UNL     1       2.858   5.929  19.094  0.00  0.00    +0.000 A 
ATOM      6  C   UNL     1       4.109   5.527  18.600  0.00  0.00    +0.000 A 
ATOM      7  O   UNL     1       4.726   4.397  19.073  0.00  0.00    +0.000 OA
ATOM      8  C   UNL     1       3.825   3.347  19.511  0.00  0.00    +0.000 C 
ATOM      9  C   UNL     1       2.681   3.894  20.340  0.00  0.00    +0.000 C 
ATOM     10  C   UNL     1       2.200   5.131  20.125  0.00  0.00    +0.000 C 
ENDROOT
BRANCH   8  11
ATOM     11  C   UNL     1       3.360   2.465  18.330  0.00  0.00    +0.000 C 
ATOM     12  F   UNL     1       4.152   2.620  17.237  0.00  0.00    +0.000 F 
ATOM     13  F   UNL     1       3.401   1.148  18.647  0.00  0.00    +0.000 F 
ATOM     14  F   UNL     1       2.097   2.748  17.932  0.00  0.00    +0.000 F 
ENDBRANCH   8  11
BRANCH   9  15
ATOM     15  C   UNL     1       2.128   2.923  21.305  0.00  0.00    +0.000 C 
ATOM     16  O   UNL     1       0.929   2.715  21.390  0.00  0.00    +0.000 OA
BRANCH  15  17
ATOM     17  O   UNL     1       3.038   2.247  22.028  0.00  0.00    +0.000 OA
ATOM     18  H   UNL     1       2.905   1.284  22.088  0.00  0.00    +0.000 HD
ENDBRANCH  15  17
ENDBRANCH   9  15
BRANCH   1  19
ATOM     19  C   UNL     1       6.135   5.867  17.091  0.00  0.00    +0.000 C 
BRANCH  19  21
ATOM     20  C   UNL     1       7.862   6.087  18.962  0.00  0.00    +0.000 C 
ATOM     21  C   UNL     1       7.320   6.658  17.660  0.00  0.00    +0.000 C 
ENDBRANCH  19  21
ENDBRANCH   1  19
BRANCH   3  22
ATOM     22  O   UNL     1       2.274   9.000  17.255  0.00  0.00    +0.000 OA
BRANCH  22  23
ATOM     23  C   UNL     1       1.410   9.666  18.170  0.00  0.00    +0.000 C 
ATOM     24  F   UNL     1       0.093   9.451  17.960  0.00  0.00    +0.000 F 
ATOM     25  F   UNL     1       1.715   9.280  19.427  0.00  0.00    +0.000 F 
ATOM     26  F   UNL     1       1.628  10.996  18.072  0.00  0.00    +0.000 F 
ENDBRANCH  22  23
ENDBRANCH   3  22
TORSDOF 7
ENDMDL
MODEL 7
REMARK VINA RESULT:      -7.6      2.541      4.763
REMARK  Name = 
REMARK  8 active torsions:
REMARK  status: ('A' for Active; 'I' for Inactive)
REMARK    1  A    between atoms: C_1  and  C_2
REMARK    2  A    between atoms: C_2  and  C_3
REMARK    3  A    between atoms: C_3  and  C_4
REMARK    4  A    between atoms: C_6  and  O_7
REMARK    5  A    between atoms: O_7  and  C_8
REMARK    6  A    between atoms: C_16  and  C_17
REMARK    7  A    between atoms: C_21  and  C_22
REMARK    8  A    between atoms: C_22  and  O_24
REMARK                            x       y       z     vdW  Elec       q    Type
REMARK                         _______ _______ _______ _____ _____    ______ ____
ROOT
ATOM      1  C   UNL     1       2.652   6.257  19.561  0.00  0.00    +0.000 A 
ATOM      2  C   UNL     1       2.059   7.518  19.738  0.00  0.00    +0.000 A 
ATOM      3  C   UNL     1       2.195   8.518  18.774  0.00  0.00    +0.000 A 
ATOM      4  C   UNL     1       3.010   8.294  17.660  0.00  0.00    +0.000 A 
ATOM      5  C   UNL     1       3.645   7.064  17.478  0.00  0.00    +0.000 A 
ATOM      6  C   UNL     1       3.458   6.050  18.433  0.00  0.00    +0.000 A 
ATOM      7  O   UNL     1       4.031   4.814  18.273  0.00  0.00    +0.000 OA
ATOM      8  C   UNL     1       5.292   4.814  17.554  0.00  0.00    +0.000 C 
ATOM      9  C   UNL     1       5.244   5.704  16.328  0.00  0.00    +0.000 C 
ATOM     10  C   UNL     1       4.466   6.800  16.300  0.00  0.00    +0.000 C 
ENDROOT
BRANCH   8  11
ATOM     11  C   UNL     1       6.483   5.124  18.491  0.00  0.00    +0.000 C 
ATOM     12  F   UNL     1       6.887   6.416  18.390  0.00  0.00    +0.000 F 
ATOM     13  F   UNL     1       6.155   4.926  19.790  0.00  0.00    +0.000 F 
ATOM     14  F   UNL     1       7.569   4.360  18.225  0.00  0.00    +0.000 F 
ENDBRANCH   8  11
BRANCH   9  15
ATOM     15  C   UNL     1       6.172   5.292  15.256  0.00  0.00    +0.000 C 
ATOM     16  O   UNL     1       7.316   5.713  15.202  0.00  0.00    +0.000 OA
BRANCH  15  17
ATOM     17  O   UNL     1       5.689   4.380  14.395  0.00  0.00    +0.000 OA
ATOM     18  H   UNL     1       6.206   3.561  14.306  0.00  0.00    +0.000 HD
ENDBRANCH  15  17
ENDBRANCH   9  15
BRANCH   1  19
ATOM     19  C   UNL     1       2.437   5.174  20.597  0.00  0.00    +0.000 C 
BRANCH  19  21
ATOM     20  C   UNL     1       1.250   2.955  21.048  0.00  0.00    +0.000 C 
ATOM     21  C   UNL     1       1.185   4.317  20.371  0.00  0.00    +0.000 C 
ENDBRANCH  19  21
ENDBRANCH   1  19
BRANCH   3  22
ATOM     22  O   UNL     1       1.646   9.762  18.845  0.00  0.00    +0.000 OA
BRANCH  22  23
ATOM     23  C   UNL     1       0.262   9.938  18.558  0.00  0.00    +0.000 C 
ATOM     24  F   UNL     1      -0.177   9.269  17.470  0.00  0.00    +0.000 F 
ATOM     25  F   UNL     1      -0.464   9.548  19.627  0.00  0.00    +0.000 F 
ATOM     26  F   UNL     1       0.033  11.254  18.350  0.00  0.00    +0.000 F 
ENDBRANCH  22  23
ENDBRANCH   3  22
TORSDOF 7
ENDMDL
MODEL 8
REMARK VINA RESULT:      -7.6      2.571      4.821
REMARK  Name = 
REMARK  8 active torsions:
REMARK  status: ('A' for Active; 'I' for Inactive)
REMARK    1  A    between atoms: C_1  and  C_2
REMARK    2  A    between atoms: C_2  and  C_3
REMARK    3  A    between atoms: C_3  and  C_4
REMARK    4  A    between atoms: C_6  and  O_7
REMARK    5  A    between atoms: O_7  and  C_8
REMARK    6  A    between atoms: C_16  and  C_17
REMARK    7  A    between atoms: C_21  and  C_22
REMARK    8  A    between atoms: C_22  and  O_24
REMARK                            x       y       z     vdW  Elec       q    Type
REMARK                         _______ _______ _______ _____ _____    ______ ____
ROOT
ATOM      1  C   UNL     1       3.183   6.080  19.080  0.00  0.00    +0.000 A 
ATOM      2  C   UNL     1       2.576   7.345  19.170  0.00  0.00    +0.000 A 
ATOM      3  C   UNL     1       2.713   8.282  18.146  0.00  0.00    +0.000 A 
ATOM      4  C   UNL     1       3.542   7.995  17.055  0.00  0.00    +0.000 A 
ATOM      5  C   UNL     1       4.190   6.762  16.960  0.00  0.00    +0.000 A 
ATOM      6  C   UNL     1       4.002   5.810  17.975  0.00  0.00    +0.000 A 
ATOM      7  O   UNL     1       4.589   4.572  17.900  0.00  0.00    +0.000 OA
ATOM      8  C   UNL     1       5.857   4.539  17.195  0.00  0.00    +0.000 C 
ATOM      9  C   UNL     1       5.813   5.347  15.915  0.00  0.00    +0.000 C 
ATOM     10  C   UNL     1       5.026   6.432  15.808  0.00  0.00    +0.000 C 
ENDROOT
BRANCH   8  11
ATOM     11  C   UNL     1       7.035   4.919  18.122  0.00  0.00    +0.000 C 
ATOM     12  F   UNL     1       7.439   6.201  17.930  0.00  0.00    +0.000 F 
ATOM     13  F   UNL     1       6.691   4.818  19.428  0.00  0.00    +0.000 F 
ATOM     14  F   UNL     1       8.125   4.140  17.928  0.00  0.00    +0.000 F 
ENDBRANCH   8  11
BRANCH   9  15
ATOM     15  C   UNL     1       6.756   4.877  14.881  0.00  0.00    +0.000 C 
ATOM     16  O   UNL     1       7.756   5.512  14.588  0.00  0.00    +0.000 OA
BRANCH  15  17
ATOM     17  O   UNL     1       6.469   3.680  14.341  0.00  0.00    +0.000 OA
ATOM     18  H   UNL     1       7.112   3.336  13.697  0.00  0.00    +0.000 HD
ENDBRANCH  15  17
ENDBRANCH   9  15
BRANCH   1  19
ATOM     19  C   UNL     1       2.967   5.064  20.181  0.00  0.00    +0.000 C 
BRANCH  19  21
ATOM     20  C   UNL     1       1.085   3.384  20.593  0.00  0.00    +0.000 C 
ATOM     21  C   UNL     1       1.499   4.848  20.570  0.00  0.00    +0.000 C 
ENDBRANCH  19  21
ENDBRANCH   1  19
BRANCH   3  22
ATOM     22  O   UNL     1       2.152   9.523  18.131  0.00  0.00    +0.000 OA
BRANCH  22  23
ATOM     23  C   UNL     1       0.754   9.666  18.366  0.00  0.00    +0.000 C 
ATOM     24  F   UNL     1       0.342   9.249  19.583  0.00  0.00    +0.000 F 
ATOM     25  F   UNL     1       0.412  10.962  18.215  0.00  0.00    +0.000 F 
ATOM     26  F   UNL     1       0.089   8.943  17.438  0.00  0.00    +0.000 F 
ENDBRANCH  22  23
ENDBRANCH   3  22
TORSDOF 7
ENDMDL
MODEL 9
REMARK VINA RESULT:      -7.6      0.770      1.543
REMARK  Name = 
REMARK  8 active torsions:
REMARK  status: ('A' for Active; 'I' for Inactive)
REMARK    1  A    between atoms: C_1  and  C_2
REMARK    2  A    between atoms: C_2  and  C_3
REMARK    3  A    between atoms: C_3  and  C_4
REMARK    4  A    between atoms: C_6  and  O_7
REMARK    5  A    between atoms: O_7  and  C_8
REMARK    6  A    between atoms: C_16  and  C_17
REMARK    7  A    between atoms: C_21  and  C_22
REMARK    8  A    between atoms: C_22  and  O_24
REMARK                            x       y       z     vdW  Elec       q    Type
REMARK                         _______ _______ _______ _____ _____    ______ ____
ROOT
ATOM      1  C   UNL     1       4.955   6.043  17.695  0.00  0.00    +0.000 A 
ATOM      2  C   UNL     1       4.376   7.198  17.142  0.00  0.00    +0.000 A 
ATOM      3  C   UNL     1       3.147   7.673  17.599  0.00  0.00    +0.000 A 
ATOM      4  C   UNL     1       2.435   6.940  18.554  0.00  0.00    +0.000 A 
ATOM      5  C   UNL     1       2.967   5.766  19.091  0.00  0.00    +0.000 A 
ATOM      6  C   UNL     1       4.229   5.327  18.658  0.00  0.00    +0.000 A 
ATOM      7  O   UNL     1       4.806   4.201  19.188  0.00  0.00    +0.000 OA
ATOM      8  C   UNL     1       3.869   3.181  19.621  0.00  0.00    +0.000 C 
ATOM      9  C   UNL     1       2.704   3.772  20.389  0.00  0.00    +0.000 C 
ATOM     10  C   UNL     1       2.255   5.011  20.118  0.00  0.00    +0.000 C 
ENDROOT
BRANCH   8  11
ATOM     11  C   UNL     1       3.433   2.271  18.449  0.00  0.00    +0.000 C 
ATOM     12  F   UNL     1       4.105   2.559  17.305  0.00  0.00    +0.000 F 
ATOM     13  F   UNL     1       3.676   0.966  18.717  0.00  0.00    +0.000 F 
ATOM     14  F   UNL     1       2.115   2.388  18.160  0.00  0.00    +0.000 F 
ENDBRANCH   8  11
BRANCH   9  15
ATOM     15  C   UNL     1       2.096   2.841  21.359  0.00  0.00    +0.000 C 
ATOM     16  O   UNL     1       2.768   2.249  22.187  0.00  0.00    +0.000 OA
BRANCH  15  17
ATOM     17  O   UNL     1       0.756   2.748  21.307  0.00  0.00    +0.000 OA
ATOM     18  H   UNL     1       0.352   2.077  21.883  0.00  0.00    +0.000 HD
ENDBRANCH  15  17
ENDBRANCH   9  15
BRANCH   1  19
ATOM     19  C   UNL     1       6.318   5.584  17.220  0.00  0.00    +0.000 C 
BRANCH  19  21
ATOM     20  C   UNL     1       6.258   5.009  14.731  0.00  0.00    +0.000 C 
ATOM     21  C   UNL     1       6.282   4.479  16.157  0.00  0.00    +0.000 C 
ENDBRANCH  19  21
ENDBRANCH   1  19
BRANCH   3  22
ATOM     22  O   UNL     1       2.514   8.789  17.141  0.00  0.00    +0.000 OA
BRANCH  22  23
ATOM     23  C   UNL     1       1.729   9.571  18.036  0.00  0.00    +0.000 C 
ATOM     24  F   UNL     1       2.023  10.889  18.040  0.00  0.00    +0.000 F 
ATOM     25  F   UNL     1       0.424   9.420  17.726  0.00  0.00    +0.000 F 
ATOM     26  F   UNL     1       1.921   9.105  19.290  0.00  0.00    +0.000 F 
ENDBRANCH  22  23
ENDBRANCH   3  22
TORSDOF 7
ENDMDL
