MODEL 1
REMARK VINA RESULT:      -7.3      0.000      0.000
REMARK  Name = 
REMARK  1 active torsions:
REMARK  status: ('A' for Active; 'I' for Inactive)
REMARK    1  A    between atoms: O_1  and  C_2
REMARK                            x       y       z     vdW  Elec       q    Type
REMARK                         _______ _______ _______ _____ _____    ______ ____
ROOT
ATOM      1  C   UNL     1       5.501   4.143  15.993  0.00  0.00    +0.000 A 
ATOM      2  C   UNL     1       5.638   5.485  15.693  0.00  0.00    +0.000 A 
ATOM      3  C   UNL     1       4.897   6.414  16.418  0.00  0.00    +0.000 A 
ATOM      4  C   UNL     1       4.023   6.002  17.438  0.00  0.00    +0.000 A 
ATOM      5  C   UNL     1       3.303   6.959  18.137  0.00  0.00    +0.000 A 
ATOM      6  C   UNL     1       2.441   6.561  19.141  0.00  0.00    +0.000 A 
ATOM      7  C   UNL     1       2.291   5.211  19.454  0.00  0.00    +0.000 A 
ATOM      8  C   UNL     1       1.408   4.842  20.479  0.00  0.00    +0.000 A 
ATOM      9  C   UNL     1       1.230   3.513  20.824  0.00  0.00    +0.000 A 
ATOM     10  C   UNL     1       1.942   2.555  20.136  0.00  0.00    +0.000 A 
ATOM     11  C   UNL     1       2.812   2.939  19.123  0.00  0.00    +0.000 A 
ATOM     12  N   UNL     1       3.004   4.243  18.766  0.00  0.00    +0.000 N 
ATOM     13  C   UNL     1       3.874   4.620  17.755  0.00  0.00    +0.000 A 
ATOM     14  C   UNL     1       4.640   3.710  17.000  0.00  0.00    +0.000 A 
ENDROOT
BRANCH   1  15
ATOM     15  O   UNL     1       6.196   3.184  15.322  0.00  0.00    +0.000 OA
ATOM     16  H   UNL     1       6.495   3.529  14.461  0.00  0.00    +0.000 HD
ENDBRANCH   1  15
TORSDOF 1
ENDMDL
MODEL 2
REMARK VINA RESULT:      -7.2      1.339      1.339
REMARK  Name = 
REMARK  1 active torsions:
REMARK  status: ('A' for Active; 'I' for Inactive)
REMARK    1  A    between atoms: O_1  and  C_2
REMARK                            x       y       z     vdW  Elec       q    Type
REMARK                         _______ _______ _______ _____ _____    ______ ____
ROOT
ATOM      1  C   UNL     1       6.950   4.860  17.441  0.00  0.00    +0.000 A 
ATOM      2  C   UNL     1       6.788   6.067  16.789  0.00  0.00    +0.000 A 
ATOM      3  C   UNL     1       5.600   6.771  16.964  0.00  0.00    +0.000 A 
ATOM      4  C   UNL     1       4.578   6.268  17.786  0.00  0.00    +0.000 A 
ATOM      5  C   UNL     1       3.409   7.000  17.934  0.00  0.00    +0.000 A 
ATOM      6  C   UNL     1       2.400   6.511  18.742  0.00  0.00    +0.000 A 
ATOM      7  C   UNL     1       2.548   5.295  19.405  0.00  0.00    +0.000 A 
ATOM      8  C   UNL     1       1.504   4.829  20.218  0.00  0.00    +0.000 A 
ATOM      9  C   UNL     1       1.609   3.626  20.895  0.00  0.00    +0.000 A 
ATOM     10  C   UNL     1       2.767   2.893  20.755  0.00  0.00    +0.000 A 
ATOM     11  C   UNL     1       3.791   3.369  19.946  0.00  0.00    +0.000 A 
ATOM     12  N   UNL     1       3.710   4.552  19.268  0.00  0.00    +0.000 N 
ATOM     13  C   UNL     1       4.735   5.024  18.463  0.00  0.00    +0.000 A 
ATOM     14  C   UNL     1       5.950   4.340  18.262  0.00  0.00    +0.000 A 
ENDROOT
BRANCH   1  15
ATOM     15  O   UNL     1       8.087   4.122  17.312  0.00  0.00    +0.000 OA
ATOM     16  H   UNL     1       8.080   3.384  17.949  0.00  0.00    +0.000 HD
ENDBRANCH   1  15
TORSDOF 1
ENDMDL
MODEL 3
REMARK VINA RESULT:      -7.2      1.585      1.658
REMARK  Name = 
REMARK  1 active torsions:
REMARK  status: ('A' for Active; 'I' for Inactive)
REMARK    1  A    between atoms: O_1  and  C_2
REMARK                            x       y       z     vdW  Elec       q    Type
REMARK                         _______ _______ _______ _____ _____    ______ ____
ROOT
ATOM      1  C   UNL     1       7.148   4.820  17.416  0.00  0.00    +0.000 A 
ATOM      2  C   UNL     1       7.089   6.186  17.217  0.00  0.00    +0.000 A 
ATOM      3  C   UNL     1       5.863   6.831  17.348  0.00  0.00    +0.000 A 
ATOM      4  C   UNL     1       4.701   6.112  17.676  0.00  0.00    +0.000 A 
ATOM      5  C   UNL     1       3.498   6.792  17.798  0.00  0.00    +0.000 A 
ATOM      6  C   UNL     1       2.352   6.091  18.120  0.00  0.00    +0.000 A 
ATOM      7  C   UNL     1       2.396   4.713  18.323  0.00  0.00    +0.000 A 
ATOM      8  C   UNL     1       1.213   4.033  18.650  0.00  0.00    +0.000 A 
ATOM      9  C   UNL     1       1.211   2.665  18.861  0.00  0.00    +0.000 A 
ATOM     10  C   UNL     1       2.402   1.981  18.743  0.00  0.00    +0.000 A 
ATOM     11  C   UNL     1       3.564   2.671  18.419  0.00  0.00    +0.000 A 
ATOM     12  N   UNL     1       3.590   4.020  18.206  0.00  0.00    +0.000 N 
ATOM     13  C   UNL     1       4.752   4.703  17.884  0.00  0.00    +0.000 A 
ATOM     14  C   UNL     1       6.009   4.085  17.743  0.00  0.00    +0.000 A 
ENDROOT
BRANCH   1  15
ATOM     15  O   UNL     1       8.316   4.129  17.303  0.00  0.00    +0.000 OA
ATOM     16  H   UNL     1       8.166   3.297  16.816  0.00  0.00    +0.000 HD
ENDBRANCH   1  15
TORSDOF 1
ENDMDL
MODEL 4
REMARK VINA RESULT:      -7.1      2.164      2.812
REMARK  Name = 
REMARK  1 active torsions:
REMARK  status: ('A' for Active; 'I' for Inactive)
REMARK    1  A    between atoms: O_1  and  C_2
REMARK                            x       y       z     vdW  Elec       q    Type
REMARK                         _______ _______ _______ _____ _____    ______ ____
ROOT
ATOM      1  C   UNL     1       7.150   5.434  18.794  0.00  0.00    +0.000 A 
ATOM      2  C   UNL     1       7.437   5.033  17.503  0.00  0.00    +0.000 A 
ATOM      3  C   UNL     1       6.434   4.429  16.750  0.00  0.00    +0.000 A 
ATOM      4  C   UNL     1       5.151   4.228  17.285  0.00  0.00    +0.000 A 
ATOM      5  C   UNL     1       4.179   3.623  16.502  0.00  0.00    +0.000 A 
ATOM      6  C   UNL     1       2.915   3.422  17.022  0.00  0.00    +0.000 A 
ATOM      7  C   UNL     1       2.612   3.821  18.323  0.00  0.00    +0.000 A 
ATOM      8  C   UNL     1       1.318   3.603  18.820  0.00  0.00    +0.000 A 
ATOM      9  C   UNL     1       0.973   3.983  20.105  0.00  0.00    +0.000 A 
ATOM     10  C   UNL     1       1.931   4.586  20.891  0.00  0.00    +0.000 A 
ATOM     11  C   UNL     1       3.208   4.794  20.382  0.00  0.00    +0.000 A 
ATOM     12  N   UNL     1       3.571   4.427  19.118  0.00  0.00    +0.000 N 
ATOM     13  C   UNL     1       4.845   4.639  18.615  0.00  0.00    +0.000 A 
ATOM     14  C   UNL     1       5.885   5.245  19.348  0.00  0.00    +0.000 A 
ENDROOT
BRANCH   1  15
ATOM     15  O   UNL     1       8.086   6.030  19.584  0.00  0.00    +0.000 OA
ATOM     16  H   UNL     1       8.943   5.576  19.487  0.00  0.00    +0.000 HD
ENDBRANCH   1  15
TORSDOF 1
ENDMDL
MODEL 5
REMARK VINA RESULT:      -6.8      2.137      4.350
REMARK  Name = 
REMARK  1 active torsions:
REMARK  status: ('A' for Active; 'I' for Inactive)
REMARK    1  A    between atoms: O_1  and  C_2
REMARK                            x       y       z     vdW  Elec       q    Type
REMARK                         _______ _______ _______ _____ _____    ______ ____
ROOT
ATOM      1  C   UNL     1       2.694   2.361  18.376  0.00  0.00    +0.000 A 
ATOM      2  C   UNL     1       1.485   3.029  18.360  0.00  0.00    +0.000 A 
ATOM      3  C   UNL     1       1.482   4.405  18.147  0.00  0.00    +0.000 A 
ATOM      4  C   UNL     1       2.682   5.108  17.952  0.00  0.00    +0.000 A 
ATOM      5  C   UNL     1       2.636   6.478  17.743  0.00  0.00    +0.000 A 
ATOM      6  C   UNL     1       3.813   7.175  17.551  0.00  0.00    +0.000 A 
ATOM      7  C   UNL     1       5.040   6.515  17.565  0.00  0.00    +0.000 A 
ATOM      8  C   UNL     1       6.216   7.253  17.365  0.00  0.00    +0.000 A 
ATOM      9  C   UNL     1       7.455   6.638  17.370  0.00  0.00    +0.000 A 
ATOM     10  C   UNL     1       7.511   5.276  17.576  0.00  0.00    +0.000 A 
ATOM     11  C   UNL     1       6.337   4.560  17.772  0.00  0.00    +0.000 A 
ATOM     12  N   UNL     1       5.103   5.146  17.771  0.00  0.00    +0.000 N 
ATOM     13  C   UNL     1       3.934   4.427  17.967  0.00  0.00    +0.000 A 
ATOM     14  C   UNL     1       3.899   3.036  18.185  0.00  0.00    +0.000 A 
ENDROOT
BRANCH   1  15
ATOM     15  O   UNL     1       2.767   1.016  18.579  0.00  0.00    +0.000 OA
ATOM     16  H   UNL     1       3.675   0.765  18.829  0.00  0.00    +0.000 HD
ENDBRANCH   1  15
TORSDOF 1
ENDMDL
MODEL 6
REMARK VINA RESULT:      -6.8      1.857      4.568
REMARK  Name = 
REMARK  1 active torsions:
REMARK  status: ('A' for Active; 'I' for Inactive)
REMARK    1  A    between atoms: O_1  and  C_2
REMARK                            x       y       z     vdW  Elec       q    Type
REMARK                         _______ _______ _______ _____ _____    ______ ____
ROOT
ATOM      1  C   UNL     1       1.635   2.517  19.182  0.00  0.00    +0.000 A 
ATOM      2  C   UNL     1       1.046   3.414  20.052  0.00  0.00    +0.000 A 
ATOM      3  C   UNL     1       1.405   4.757  19.976  0.00  0.00    +0.000 A 
ATOM      4  C   UNL     1       2.350   5.199  19.035  0.00  0.00    +0.000 A 
ATOM      5  C   UNL     1       2.680   6.545  18.991  0.00  0.00    +0.000 A 
ATOM      6  C   UNL     1       3.608   6.987  18.068  0.00  0.00    +0.000 A 
ATOM      7  C   UNL     1       4.211   6.093  17.184  0.00  0.00    +0.000 A 
ATOM      8  C   UNL     1       5.148   6.576  16.259  0.00  0.00    +0.000 A 
ATOM      9  C   UNL     1       5.770   5.724  15.363  0.00  0.00    +0.000 A 
ATOM     10  C   UNL     1       5.448   4.385  15.398  0.00  0.00    +0.000 A 
ATOM     11  C   UNL     1       4.517   3.924  16.321  0.00  0.00    +0.000 A 
ATOM     12  N   UNL     1       3.891   4.746  17.214  0.00  0.00    +0.000 N 
ATOM     13  C   UNL     1       2.962   4.281  18.133  0.00  0.00    +0.000 A 
ATOM     14  C   UNL     1       2.575   2.931  18.239  0.00  0.00    +0.000 A 
ENDROOT
BRANCH   1  15
ATOM     15  O   UNL     1       1.328   1.190  19.204  0.00  0.00    +0.000 OA
ATOM     16  H   UNL     1       1.785   0.730  18.476  0.00  0.00    +0.000 HD
ENDBRANCH   1  15
TORSDOF 1
ENDMDL
MODEL 7
REMARK VINA RESULT:      -6.8      1.490      2.613
REMARK  Name = 
REMARK  1 active torsions:
REMARK  status: ('A' for Active; 'I' for Inactive)
REMARK    1  A    between atoms: O_1  and  C_2
REMARK                            x       y       z     vdW  Elec       q    Type
REMARK                         _______ _______ _______ _____ _____    ______ ____
ROOT
ATOM      1  C   UNL     1       5.981   6.264  16.738  0.00  0.00    +0.000 A 
ATOM      2  C   UNL     1       6.165   5.296  15.769  0.00  0.00    +0.000 A 
ATOM      3  C   UNL     1       5.330   4.182  15.766  0.00  0.00    +0.000 A 
ATOM      4  C   UNL     1       4.317   4.037  16.729  0.00  0.00    +0.000 A 
ATOM      5  C   UNL     1       3.507   2.912  16.692  0.00  0.00    +0.000 A 
ATOM      6  C   UNL     1       2.508   2.763  17.635  0.00  0.00    +0.000 A 
ATOM      7  C   UNL     1       2.311   3.731  18.618  0.00  0.00    +0.000 A 
ATOM      8  C   UNL     1       1.287   3.548  19.560  0.00  0.00    +0.000 A 
ATOM      9  C   UNL     1       1.056   4.484  20.553  0.00  0.00    +0.000 A 
ATOM     10  C   UNL     1       1.855   5.606  20.598  0.00  0.00    +0.000 A 
ATOM     11  C   UNL     1       2.865   5.770  19.657  0.00  0.00    +0.000 A 
ATOM     12  N   UNL     1       3.111   4.860  18.668  0.00  0.00    +0.000 N 
ATOM     13  C   UNL     1       4.119   5.030  17.732  0.00  0.00    +0.000 A 
ATOM     14  C   UNL     1       4.982   6.143  17.703  0.00  0.00    +0.000 A 
ENDROOT
BRANCH   1  15
ATOM     15  O   UNL     1       6.762   7.377  16.796  0.00  0.00    +0.000 OA
ATOM     16  H   UNL     1       7.023   7.650  15.897  0.00  0.00    +0.000 HD
ENDBRANCH   1  15
TORSDOF 1
ENDMDL
MODEL 8
REMARK VINA RESULT:      -6.6      1.609      1.896
REMARK  Name = 
REMARK  1 active torsions:
REMARK  status: ('A' for Active; 'I' for Inactive)
REMARK    1  A    between atoms: O_1  and  C_2
REMARK                            x       y       z     vdW  Elec       q    Type
REMARK                         _______ _______ _______ _____ _____    ______ ____
ROOT
ATOM      1  C   UNL     1       6.174   3.939  15.048  0.00  0.00    +0.000 A 
ATOM      2  C   UNL     1       7.244   4.617  15.600  0.00  0.00    +0.000 A 
ATOM      3  C   UNL     1       7.121   5.130  16.888  0.00  0.00    +0.000 A 
ATOM      4  C   UNL     1       5.933   4.967  17.620  0.00  0.00    +0.000 A 
ATOM      5  C   UNL     1       5.851   5.493  18.900  0.00  0.00    +0.000 A 
ATOM      6  C   UNL     1       4.686   5.336  19.625  0.00  0.00    +0.000 A 
ATOM      7  C   UNL     1       3.598   4.655  19.081  0.00  0.00    +0.000 A 
ATOM      8  C   UNL     1       2.430   4.513  19.846  0.00  0.00    +0.000 A 
ATOM      9  C   UNL     1       1.327   3.844  19.346  0.00  0.00    +0.000 A 
ATOM     10  C   UNL     1       1.399   3.317  18.075  0.00  0.00    +0.000 A 
ATOM     11  C   UNL     1       2.564   3.467  17.332  0.00  0.00    +0.000 A 
ATOM     12  N   UNL     1       3.664   4.123  17.804  0.00  0.00    +0.000 N 
ATOM     13  C   UNL     1       4.824   4.269  17.059  0.00  0.00    +0.000 A 
ATOM     14  C   UNL     1       4.985   3.764  15.754  0.00  0.00    +0.000 A 
ENDROOT
BRANCH   1  15
ATOM     15  O   UNL     1       6.229   3.413  13.793  0.00  0.00    +0.000 OA
ATOM     16  H   UNL     1       7.126   3.517  13.426  0.00  0.00    +0.000 HD
ENDBRANCH   1  15
TORSDOF 1
ENDMDL
MODEL 9
REMARK VINA RESULT:      -6.6      2.009      2.357
REMARK  Name = 
REMARK  1 active torsions:
REMARK  status: ('A' for Active; 'I' for Inactive)
REMARK    1  A    between atoms: O_1  and  C_2
REMARK                            x       y       z     vdW  Elec       q    Type
REMARK                         _______ _______ _______ _____ _____    ______ ____
ROOT
ATOM      1  C   UNL     1       6.562   4.696  18.245  0.00  0.00    +0.000 A 
ATOM      2  C   UNL     1       6.340   4.746  16.882  0.00  0.00    +0.000 A 
ATOM      3  C   UNL     1       5.076   4.429  16.395  0.00  0.00    +0.000 A 
ATOM      4  C   UNL     1       4.037   4.061  17.268  0.00  0.00    +0.000 A 
ATOM      5  C   UNL     1       2.792   3.752  16.743  0.00  0.00    +0.000 A 
ATOM      6  C   UNL     1       1.767   3.390  17.596  0.00  0.00    +0.000 A 
ATOM      7  C   UNL     1       1.975   3.334  18.972  0.00  0.00    +0.000 A 
ATOM      8  C   UNL     1       0.912   2.964  19.809  0.00  0.00    +0.000 A 
ATOM      9  C   UNL     1       1.074   2.896  21.182  0.00  0.00    +0.000 A 
ATOM     10  C   UNL     1       2.308   3.202  21.713  0.00  0.00    +0.000 A 
ATOM     11  C   UNL     1       3.350   3.567  20.869  0.00  0.00    +0.000 A 
ATOM     12  N   UNL     1       3.213   3.641  19.513  0.00  0.00    +0.000 N 
ATOM     13  C   UNL     1       4.256   4.006  18.675  0.00  0.00    +0.000 A 
ATOM     14  C   UNL     1       5.548   4.334  19.131  0.00  0.00    +0.000 A 
ENDROOT
BRANCH   1  15
ATOM     15  O   UNL     1       7.775   4.994  18.786  0.00  0.00    +0.000 OA
ATOM     16  H   UNL     1       7.657   5.470  19.629  0.00  0.00    +0.000 HD
ENDBRANCH   1  15
TORSDOF 1
ENDMDL
