MODEL 1
REMARK VINA RESULT:      -7.1      0.000      0.000
REMARK  Name = 
REMARK  6 active torsions:
REMARK  status: ('A' for Active; 'I' for Inactive)
REMARK    1  A    between atoms: C_1  and  C_2
REMARK    2  A    between atoms: C_2  and  N_3
REMARK    3  A    between atoms: N_3  and  C_4
REMARK    4  A    between atoms: C_4  and  C_5
REMARK    5  A    between atoms: C_11  and  N_12
REMARK    6  A    between atoms: C_13  and  C_15
REMARK                            x       y       z     vdW  Elec       q    Type
REMARK                         _______ _______ _______ _____ _____    ______ ____
ROOT
ATOM      1  N   UNL     1       1.963   7.424  19.536  0.00  0.00    +0.000 N 
ATOM      2  C   UNL     1       2.495   6.138  19.608  0.00  0.00    +0.000 C 
ATOM      3  O   UNL     1       2.021   5.329  20.416  0.00  0.00    +0.000 OA
ATOM      4  N   UNL     1       3.526   5.730  18.765  0.00  0.00    +0.000 N 
ATOM      5  C   UNL     1       3.737   4.285  18.627  0.00  0.00    +0.000 C 
ATOM      6  C   UNL     1       5.177   3.881  18.927  0.00  0.00    +0.000 C 
ATOM      7  C   UNL     1       6.183   4.670  18.088  0.00  0.00    +0.000 C 
ATOM      8  C   UNL     1       5.925   6.165  18.238  0.00  0.00    +0.000 C 
ATOM      9  C   UNL     1       4.468   6.536  17.983  0.00  0.00    +0.000 C 
ENDROOT
BRANCH   7  10
ATOM     10  N   UNL     1       6.169   4.260  16.685  0.00  0.00    +0.000 N 
ATOM     11  C   UNL     1       6.876   4.966  15.728  0.00  0.00    +0.000 C 
ATOM     12  O   UNL     1       7.593   5.923  15.993  0.00  0.00    +0.000 OA
ATOM     13  H   UNL     1       5.419   3.658  16.371  0.00  0.00    +0.000 HD
BRANCH  11  14
ATOM     14  C   UNL     1       6.692   4.539  14.311  0.00  0.00    +0.000 A 
ATOM     15  C   UNL     1       5.575   3.753  13.994  0.00  0.00    +0.000 A 
ATOM     16  C   UNL     1       5.371   3.315  12.685  0.00  0.00    +0.000 A 
ATOM     17  C   UNL     1       6.277   3.666  11.684  0.00  0.00    +0.000 A 
ATOM     18  C   UNL     1       7.382   4.460  11.989  0.00  0.00    +0.000 A 
ATOM     19  C   UNL     1       7.590   4.900  13.298  0.00  0.00    +0.000 A 
ENDBRANCH  11  14
ENDBRANCH   7  10
BRANCH   1  21
ATOM     20  C   UNL     1       1.599   8.742  21.630  0.00  0.00    +0.000 C 
ATOM     21  C   UNL     1       1.017   7.774  20.606  0.00  0.00    +0.000 C 
ENDBRANCH   1  21
BRANCH   1  22
ATOM     22  C   UNL     1       2.280   8.445  18.534  0.00  0.00    +0.000 C 
ATOM     23  C   UNL     1       1.187   9.367  18.014  0.00  0.00    +0.000 C 
ENDBRANCH   1  22
TORSDOF 4
ENDMDL
MODEL 2
REMARK VINA RESULT:      -7.1      0.106      1.036
REMARK  Name = 
REMARK  6 active torsions:
REMARK  status: ('A' for Active; 'I' for Inactive)
REMARK    1  A    between atoms: C_1  and  C_2
REMARK    2  A    between atoms: C_2  and  N_3
REMARK    3  A    between atoms: N_3  and  C_4
REMARK    4  A    between atoms: C_4  and  C_5
REMARK    5  A    between atoms: C_11  and  N_12
REMARK    6  A    between atoms: C_13  and  C_15
REMARK                            x       y       z     vdW  Elec       q    Type
REMARK                         _______ _______ _______ _____ _____    ______ ____
ROOT
ATOM      1  N   UNL     1       1.949   7.516  19.608  0.00  0.00    +0.000 N 
ATOM      2  C   UNL     1       2.490   6.235  19.698  0.00  0.00    +0.000 C 
ATOM      3  O   UNL     1       2.040   5.443  20.536  0.00  0.00    +0.000 OA
ATOM      4  N   UNL     1       3.502   5.813  18.841  0.00  0.00    +0.000 N 
ATOM      5  C   UNL     1       3.720   4.366  18.733  0.00  0.00    +0.000 C 
ATOM      6  C   UNL     1       5.169   3.978  19.006  0.00  0.00    +0.000 C 
ATOM      7  C   UNL     1       6.149   4.751  18.125  0.00  0.00    +0.000 C 
ATOM      8  C   UNL     1       5.886   6.248  18.245  0.00  0.00    +0.000 C 
ATOM      9  C   UNL     1       4.421   6.605  18.017  0.00  0.00    +0.000 C 
ENDROOT
BRANCH   7  10
ATOM     10  N   UNL     1       6.104   4.307  16.733  0.00  0.00    +0.000 N 
ATOM     11  C   UNL     1       6.819   4.968  15.750  0.00  0.00    +0.000 C 
ATOM     12  O   UNL     1       7.568   5.909  15.981  0.00  0.00    +0.000 OA
ATOM     13  H   UNL     1       5.332   3.721  16.444  0.00  0.00    +0.000 HD
BRANCH  11  14
ATOM     14  C   UNL     1       6.603   4.511  14.346  0.00  0.00    +0.000 A 
ATOM     15  C   UNL     1       7.557   4.862  13.380  0.00  0.00    +0.000 A 
ATOM     16  C   UNL     1       7.388   4.471  12.051  0.00  0.00    +0.000 A 
ATOM     17  C   UNL     1       6.271   3.722  11.681  0.00  0.00    +0.000 A 
ATOM     18  C   UNL     1       5.327   3.356  12.640  0.00  0.00    +0.000 A 
ATOM     19  C   UNL     1       5.491   3.746  13.972  0.00  0.00    +0.000 A 
ENDBRANCH  11  14
ENDBRANCH   7  10
BRANCH   1  21
ATOM     20  C   UNL     1       1.614   8.910  21.657  0.00  0.00    +0.000 C 
ATOM     21  C   UNL     1       1.026   7.886  20.692  0.00  0.00    +0.000 C 
ENDBRANCH   1  21
BRANCH   1  22
ATOM     22  C   UNL     1       2.235   8.514  18.574  0.00  0.00    +0.000 C 
ATOM     23  C   UNL     1       1.109   9.361  18.001  0.00  0.00    +0.000 C 
ENDBRANCH   1  22
TORSDOF 4
ENDMDL
MODEL 3
REMARK VINA RESULT:      -6.6      3.851      8.951
REMARK  Name = 
REMARK  6 active torsions:
REMARK  status: ('A' for Active; 'I' for Inactive)
REMARK    1  A    between atoms: C_1  and  C_2
REMARK    2  A    between atoms: C_2  and  N_3
REMARK    3  A    between atoms: N_3  and  C_4
REMARK    4  A    between atoms: C_4  and  C_5
REMARK    5  A    between atoms: C_11  and  N_12
REMARK    6  A    between atoms: C_13  and  C_15
REMARK                            x       y       z     vdW  Elec       q    Type
REMARK                         _______ _______ _______ _____ _____    ______ ____
ROOT
ATOM      1  N   UNL     1       3.104   5.711  19.594  0.00  0.00    +0.000 N 
ATOM      2  C   UNL     1       3.071   6.816  18.745  0.00  0.00    +0.000 C 
ATOM      3  O   UNL     1       3.920   6.920  17.850  0.00  0.00    +0.000 OA
ATOM      4  N   UNL     1       2.081   7.788  18.857  0.00  0.00    +0.000 N 
ATOM      5  C   UNL     1       1.882   8.668  17.700  0.00  0.00    +0.000 C 
ATOM      6  C   UNL     1       1.963  10.144  18.077  0.00  0.00    +0.000 C 
ATOM      7  C   UNL     1       1.007  10.501  19.214  0.00  0.00    +0.000 C 
ATOM      8  C   UNL     1       1.225   9.558  20.392  0.00  0.00    +0.000 C 
ATOM      9  C   UNL     1       1.190   8.090  19.981  0.00  0.00    +0.000 C 
ENDROOT
BRANCH   7  10
ATOM     10  N   UNL     1      -0.389  10.504  18.779  0.00  0.00    +0.000 N 
ATOM     11  C   UNL     1      -1.010  11.674  18.382  0.00  0.00    +0.000 C 
ATOM     12  O   UNL     1      -0.432  12.751  18.311  0.00  0.00    +0.000 OA
ATOM     13  H   UNL     1      -0.974   9.725  19.050  0.00  0.00    +0.000 HD
BRANCH  11  14
ATOM     14  C   UNL     1      -2.467  11.586  18.078  0.00  0.00    +0.000 A 
ATOM     15  C   UNL     1      -2.855  11.148  16.804  0.00  0.00    +0.000 A 
ATOM     16  C   UNL     1      -4.208  11.066  16.469  0.00  0.00    +0.000 A 
ATOM     17  C   UNL     1      -5.180  11.414  17.407  0.00  0.00    +0.000 A 
ATOM     18  C   UNL     1      -4.801  11.836  18.681  0.00  0.00    +0.000 A 
ATOM     19  C   UNL     1      -3.449  11.919  19.021  0.00  0.00    +0.000 A 
ENDBRANCH  11  14
ENDBRANCH   7  10
BRANCH   1  21
ATOM     20  C   UNL     1       4.109   3.655  18.586  0.00  0.00    +0.000 C 
ATOM     21  C   UNL     1       4.306   4.870  19.486  0.00  0.00    +0.000 C 
ENDBRANCH   1  21
BRANCH   1  22
ATOM     22  C   UNL     1       2.089   5.341  20.584  0.00  0.00    +0.000 C 
ATOM     23  C   UNL     1       1.033   4.302  20.239  0.00  0.00    +0.000 C 
ENDBRANCH   1  22
TORSDOF 4
ENDMDL
MODEL 4
REMARK VINA RESULT:      -6.5      4.116      8.222
REMARK  Name = 
REMARK  6 active torsions:
REMARK  status: ('A' for Active; 'I' for Inactive)
REMARK    1  A    between atoms: C_1  and  C_2
REMARK    2  A    between atoms: C_2  and  N_3
REMARK    3  A    between atoms: N_3  and  C_4
REMARK    4  A    between atoms: C_4  and  C_5
REMARK    5  A    between atoms: C_11  and  N_12
REMARK    6  A    between atoms: C_13  and  C_15
REMARK                            x       y       z     vdW  Elec       q    Type
REMARK                         _______ _______ _______ _____ _____    ______ ____
ROOT
ATOM      1  N   UNL     1       3.016   3.720  19.443  0.00  0.00    +0.000 N 
ATOM      2  C   UNL     1       3.229   4.840  18.641  0.00  0.00    +0.000 C 
ATOM      3  O   UNL     1       4.121   4.812  17.783  0.00  0.00    +0.000 OA
ATOM      4  N   UNL     1       2.435   5.978  18.758  0.00  0.00    +0.000 N 
ATOM      5  C   UNL     1       2.457   6.920  17.634  0.00  0.00    +0.000 C 
ATOM      6  C   UNL     1       2.799   8.339  18.077  0.00  0.00    +0.000 C 
ATOM      7  C   UNL     1       1.878   8.831  19.193  0.00  0.00    +0.000 C 
ATOM      8  C   UNL     1       1.862   7.823  20.336  0.00  0.00    +0.000 C 
ATOM      9  C   UNL     1       1.569   6.404  19.861  0.00  0.00    +0.000 C 
ENDROOT
BRANCH   7  10
ATOM     10  N   UNL     1       0.528   9.114  18.707  0.00  0.00    +0.000 N 
ATOM     11  C   UNL     1       0.095  10.415  18.522  0.00  0.00    +0.000 C 
ATOM     12  O   UNL     1       0.813  11.392  18.689  0.00  0.00    +0.000 OA
ATOM     13  H   UNL     1      -0.172   8.390  18.795  0.00  0.00    +0.000 HD
BRANCH  11  14
ATOM     14  C   UNL     1      -1.337  10.594  18.146  0.00  0.00    +0.000 A 
ATOM     15  C   UNL     1      -2.108  11.506  18.881  0.00  0.00    +0.000 A 
ATOM     16  C   UNL     1      -3.457  11.694  18.575  0.00  0.00    +0.000 A 
ATOM     17  C   UNL     1      -4.041  10.979  17.531  0.00  0.00    +0.000 A 
ATOM     18  C   UNL     1      -3.276  10.081  16.785  0.00  0.00    +0.000 A 
ATOM     19  C   UNL     1      -1.926   9.889  17.087  0.00  0.00    +0.000 A 
ENDBRANCH  11  14
ENDBRANCH   7  10
BRANCH   1  21
ATOM     20  C   UNL     1       3.590   1.467  18.520  0.00  0.00    +0.000 C 
ATOM     21  C   UNL     1       4.041   2.670  19.342  0.00  0.00    +0.000 C 
ENDBRANCH   1  21
BRANCH   1  22
ATOM     22  C   UNL     1       1.907   3.514  20.378  0.00  0.00    +0.000 C 
ATOM     23  C   UNL     1       2.165   2.885  21.739  0.00  0.00    +0.000 C 
ENDBRANCH   1  22
TORSDOF 4
ENDMDL
MODEL 5
REMARK VINA RESULT:      -6.5      1.380      1.820
REMARK  Name = 
REMARK  6 active torsions:
REMARK  status: ('A' for Active; 'I' for Inactive)
REMARK    1  A    between atoms: C_1  and  C_2
REMARK    2  A    between atoms: C_2  and  N_3
REMARK    3  A    between atoms: N_3  and  C_4
REMARK    4  A    between atoms: C_4  and  C_5
REMARK    5  A    between atoms: C_11  and  N_12
REMARK    6  A    between atoms: C_13  and  C_15
REMARK                            x       y       z     vdW  Elec       q    Type
REMARK                         _______ _______ _______ _____ _____    ______ ____
ROOT
ATOM      1  N   UNL     1       2.708   6.927  19.015  0.00  0.00    +0.000 N 
ATOM      2  C   UNL     1       3.662   5.913  19.063  0.00  0.00    +0.000 C 
ATOM      3  O   UNL     1       3.865   5.319  20.131  0.00  0.00    +0.000 OA
ATOM      4  N   UNL     1       4.369   5.526  17.927  0.00  0.00    +0.000 N 
ATOM      5  C   UNL     1       5.031   4.217  17.972  0.00  0.00    +0.000 C 
ATOM      6  C   UNL     1       6.516   4.310  17.634  0.00  0.00    +0.000 C 
ATOM      7  C   UNL     1       6.759   5.008  16.297  0.00  0.00    +0.000 C 
ATOM      8  C   UNL     1       6.044   6.354  16.275  0.00  0.00    +0.000 C 
ATOM      9  C   UNL     1       4.574   6.242  16.665  0.00  0.00    +0.000 C 
ENDROOT
BRANCH   7  10
ATOM     10  N   UNL     1       6.369   4.174  15.162  0.00  0.00    +0.000 N 
ATOM     11  C   UNL     1       6.807   4.460  13.881  0.00  0.00    +0.000 C 
ATOM     12  O   UNL     1       7.582   5.372  13.625  0.00  0.00    +0.000 OA
ATOM     13  H   UNL     1       5.554   3.583  15.263  0.00  0.00    +0.000 HD
BRANCH  11  14
ATOM     14  C   UNL     1       6.248   3.621  12.781  0.00  0.00    +0.000 A 
ATOM     15  C   UNL     1       4.895   3.779  12.448  0.00  0.00    +0.000 A 
ATOM     16  C   UNL     1       4.325   3.004  11.437  0.00  0.00    +0.000 A 
ATOM     17  C   UNL     1       5.104   2.073  10.749  0.00  0.00    +0.000 A 
ATOM     18  C   UNL     1       6.454   1.923  11.065  0.00  0.00    +0.000 A 
ATOM     19  C   UNL     1       7.029   2.696  12.076  0.00  0.00    +0.000 A 
ENDBRANCH  11  14
ENDBRANCH   7  10
BRANCH   1  21
ATOM     20  C   UNL     1       1.010   6.505  20.802  0.00  0.00    +0.000 C 
ATOM     21  C   UNL     1       2.180   7.356  20.319  0.00  0.00    +0.000 C 
ENDBRANCH   1  21
BRANCH   1  22
ATOM     22  C   UNL     1       2.219   7.609  17.814  0.00  0.00    +0.000 C 
ATOM     23  C   UNL     1       1.905   9.097  17.858  0.00  0.00    +0.000 C 
ENDBRANCH   1  22
TORSDOF 4
ENDMDL
MODEL 6
REMARK VINA RESULT:      -6.5      3.935      8.869
REMARK  Name = 
REMARK  6 active torsions:
REMARK  status: ('A' for Active; 'I' for Inactive)
REMARK    1  A    between atoms: C_1  and  C_2
REMARK    2  A    between atoms: C_2  and  N_3
REMARK    3  A    between atoms: N_3  and  C_4
REMARK    4  A    between atoms: C_4  and  C_5
REMARK    5  A    between atoms: C_11  and  N_12
REMARK    6  A    between atoms: C_13  and  C_15
REMARK                            x       y       z     vdW  Elec       q    Type
REMARK                         _______ _______ _______ _____ _____    ______ ____
ROOT
ATOM      1  N   UNL     1       3.133   5.550  19.640  0.00  0.00    +0.000 N 
ATOM      2  C   UNL     1       3.134   6.649  18.783  0.00  0.00    +0.000 C 
ATOM      3  O   UNL     1       3.999   6.730  17.900  0.00  0.00    +0.000 OA
ATOM      4  N   UNL     1       2.162   7.641  18.873  0.00  0.00    +0.000 N 
ATOM      5  C   UNL     1       1.999   8.518  17.708  0.00  0.00    +0.000 C 
ATOM      6  C   UNL     1       2.104   9.994  18.077  0.00  0.00    +0.000 C 
ATOM      7  C   UNL     1       1.138  10.378  19.198  0.00  0.00    +0.000 C 
ATOM      8  C   UNL     1       1.319   9.438  20.385  0.00  0.00    +0.000 C 
ATOM      9  C   UNL     1       1.261   7.969  19.982  0.00  0.00    +0.000 C 
ENDROOT
BRANCH   7  10
ATOM     10  N   UNL     1      -0.251  10.405  18.741  0.00  0.00    +0.000 N 
ATOM     11  C   UNL     1      -0.881  11.600  18.445  0.00  0.00    +0.000 C 
ATOM     12  O   UNL     1      -0.316  12.685  18.484  0.00  0.00    +0.000 OA
ATOM     13  H   UNL     1      -0.830   9.598  18.930  0.00  0.00    +0.000 HD
BRANCH  11  14
ATOM     14  C   UNL     1      -2.333  11.524  18.110  0.00  0.00    +0.000 A 
ATOM     15  C   UNL     1      -3.259  11.942  19.076  0.00  0.00    +0.000 A 
ATOM     16  C   UNL     1      -4.628  11.874  18.814  0.00  0.00    +0.000 A 
ATOM     17  C   UNL     1      -5.079  11.395  17.585  0.00  0.00    +0.000 A 
ATOM     18  C   UNL     1      -4.163  10.992  16.613  0.00  0.00    +0.000 A 
ATOM     19  C   UNL     1      -2.791  11.058  16.871  0.00  0.00    +0.000 A 
ENDBRANCH  11  14
ENDBRANCH   7  10
BRANCH   1  21
ATOM     20  C   UNL     1       4.078   3.413  18.748  0.00  0.00    +0.000 C 
ATOM     21  C   UNL     1       4.319   4.685  19.554  0.00  0.00    +0.000 C 
ENDBRANCH   1  21
BRANCH   1  22
ATOM     22  C   UNL     1       2.097   5.206  20.616  0.00  0.00    +0.000 C 
ATOM     23  C   UNL     1       0.948   4.292  20.218  0.00  0.00    +0.000 C 
ENDBRANCH   1  22
TORSDOF 4
ENDMDL
MODEL 7
REMARK VINA RESULT:      -6.5      1.644      7.738
REMARK  Name = 
REMARK  6 active torsions:
REMARK  status: ('A' for Active; 'I' for Inactive)
REMARK    1  A    between atoms: C_1  and  C_2
REMARK    2  A    between atoms: C_2  and  N_3
REMARK    3  A    between atoms: N_3  and  C_4
REMARK    4  A    between atoms: C_4  and  C_5
REMARK    5  A    between atoms: C_11  and  N_12
REMARK    6  A    between atoms: C_13  and  C_15
REMARK                            x       y       z     vdW  Elec       q    Type
REMARK                         _______ _______ _______ _____ _____    ______ ____
ROOT
ATOM      1  N   UNL     1       6.167   3.674  12.673  0.00  0.00    +0.000 N 
ATOM      2  C   UNL     1       6.782   4.315  13.747  0.00  0.00    +0.000 C 
ATOM      3  O   UNL     1       7.993   4.566  13.691  0.00  0.00    +0.000 OA
ATOM      4  N   UNL     1       6.057   4.712  14.867  0.00  0.00    +0.000 N 
ATOM      5  C   UNL     1       6.679   5.715  15.738  0.00  0.00    +0.000 C 
ATOM      6  C   UNL     1       6.746   5.256  17.191  0.00  0.00    +0.000 C 
ATOM      7  C   UNL     1       5.378   4.832  17.724  0.00  0.00    +0.000 C 
ATOM      8  C   UNL     1       4.750   3.806  16.789  0.00  0.00    +0.000 C 
ATOM      9  C   UNL     1       4.741   4.267  15.335  0.00  0.00    +0.000 C 
ENDROOT
BRANCH   7  10
ATOM     10  N   UNL     1       4.493   5.977  17.938  0.00  0.00    +0.000 N 
ATOM     11  C   UNL     1       3.647   6.030  19.031  0.00  0.00    +0.000 C 
ATOM     12  O   UNL     1       3.624   5.173  19.905  0.00  0.00    +0.000 OA
ATOM     13  H   UNL     1       4.284   6.572  17.148  0.00  0.00    +0.000 HD
BRANCH  11  14
ATOM     14  C   UNL     1       2.698   7.180  19.085  0.00  0.00    +0.000 A 
ATOM     15  C   UNL     1       2.535   7.961  17.933  0.00  0.00    +0.000 A 
ATOM     16  C   UNL     1       1.671   9.057  17.942  0.00  0.00    +0.000 A 
ATOM     17  C   UNL     1       0.960   9.374  19.099  0.00  0.00    +0.000 A 
ATOM     18  C   UNL     1       1.106   8.591  20.245  0.00  0.00    +0.000 A 
ATOM     19  C   UNL     1       1.970   7.494  20.240  0.00  0.00    +0.000 A 
ENDBRANCH  11  14
ENDBRANCH   7  10
BRANCH   1  21
ATOM     20  C   UNL     1       6.867   1.663  11.361  0.00  0.00    +0.000 C 
ATOM     21  C   UNL     1       7.081   3.145  11.649  0.00  0.00    +0.000 C 
ENDBRANCH   1  21
BRANCH   1  22
ATOM     22  C   UNL     1       4.729   3.455  12.494  0.00  0.00    +0.000 C 
ATOM     23  C   UNL     1       4.109   3.564  11.109  0.00  0.00    +0.000 C 
ENDBRANCH   1  22
TORSDOF 4
ENDMDL
MODEL 8
REMARK VINA RESULT:      -6.4      4.068      8.180
REMARK  Name = 
REMARK  6 active torsions:
REMARK  status: ('A' for Active; 'I' for Inactive)
REMARK    1  A    between atoms: C_1  and  C_2
REMARK    2  A    between atoms: C_2  and  N_3
REMARK    3  A    between atoms: N_3  and  C_4
REMARK    4  A    between atoms: C_4  and  C_5
REMARK    5  A    between atoms: C_11  and  N_12
REMARK    6  A    between atoms: C_13  and  C_15
REMARK                            x       y       z     vdW  Elec       q    Type
REMARK                         _______ _______ _______ _____ _____    ______ ____
ROOT
ATOM      1  N   UNL     1       2.982   3.824  19.334  0.00  0.00    +0.000 N 
ATOM      2  C   UNL     1       3.271   4.938  18.548  0.00  0.00    +0.000 C 
ATOM      3  O   UNL     1       4.218   4.890  17.752  0.00  0.00    +0.000 OA
ATOM      4  N   UNL     1       2.495   6.092  18.611  0.00  0.00    +0.000 N 
ATOM      5  C   UNL     1       2.611   7.031  17.490  0.00  0.00    +0.000 C 
ATOM      6  C   UNL     1       2.951   8.444  17.954  0.00  0.00    +0.000 C 
ATOM      7  C   UNL     1       1.967   8.957  19.005  0.00  0.00    +0.000 C 
ATOM      8  C   UNL     1       1.854   7.951  20.146  0.00  0.00    +0.000 C 
ATOM      9  C   UNL     1       1.565   6.538  19.653  0.00  0.00    +0.000 C 
ENDROOT
BRANCH   7  10
ATOM     10  N   UNL     1       0.659   9.266  18.430  0.00  0.00    +0.000 N 
ATOM     11  C   UNL     1      -0.032  10.405  18.802  0.00  0.00    +0.000 C 
ATOM     12  O   UNL     1       0.418  11.243  19.572  0.00  0.00    +0.000 OA
ATOM     13  H   UNL     1       0.137   8.514  18.001  0.00  0.00    +0.000 HD
BRANCH  11  14
ATOM     14  C   UNL     1      -1.410  10.559  18.250  0.00  0.00    +0.000 A 
ATOM     15  C   UNL     1      -1.761   9.807  17.120  0.00  0.00    +0.000 A 
ATOM     16  C   UNL     1      -3.033   9.932  16.559  0.00  0.00    +0.000 A 
ATOM     17  C   UNL     1      -3.963  10.801  17.128  0.00  0.00    +0.000 A 
ATOM     18  C   UNL     1      -3.626  11.540  18.262  0.00  0.00    +0.000 A 
ATOM     19  C   UNL     1      -2.354  11.419  18.827  0.00  0.00    +0.000 A 
ENDBRANCH  11  14
ENDBRANCH   7  10
BRANCH   1  21
ATOM     20  C   UNL     1       3.525   1.512  18.549  0.00  0.00    +0.000 C 
ATOM     21  C   UNL     1       3.990   2.754  19.303  0.00  0.00    +0.000 C 
ENDBRANCH   1  21
BRANCH   1  22
ATOM     22  C   UNL     1       1.809   3.643  20.193  0.00  0.00    +0.000 C 
ATOM     23  C   UNL     1       1.972   3.082  21.597  0.00  0.00    +0.000 C 
ENDBRANCH   1  22
TORSDOF 4
ENDMDL
MODEL 9
REMARK VINA RESULT:      -6.4      1.064      1.538
REMARK  Name = 
REMARK  6 active torsions:
REMARK  status: ('A' for Active; 'I' for Inactive)
REMARK    1  A    between atoms: C_1  and  C_2
REMARK    2  A    between atoms: C_2  and  N_3
REMARK    3  A    between atoms: N_3  and  C_4
REMARK    4  A    between atoms: C_4  and  C_5
REMARK    5  A    between atoms: C_11  and  N_12
REMARK    6  A    between atoms: C_13  and  C_15
REMARK                            x       y       z     vdW  Elec       q    Type
REMARK                         _______ _______ _______ _____ _____    ______ ____
ROOT
ATOM      1  N   UNL     1       2.269   7.342  19.257  0.00  0.00    +0.000 N 
ATOM      2  C   UNL     1       3.130   6.251  19.359  0.00  0.00    +0.000 C 
ATOM      3  O   UNL     1       3.173   5.608  20.416  0.00  0.00    +0.000 OA
ATOM      4  N   UNL     1       3.916   5.845  18.284  0.00  0.00    +0.000 N 
ATOM      5  C   UNL     1       4.464   4.485  18.341  0.00  0.00    +0.000 C 
ATOM      6  C   UNL     1       5.978   4.464  18.157  0.00  0.00    +0.000 C 
ATOM      7  C   UNL     1       6.413   5.184  16.881  0.00  0.00    +0.000 C 
ATOM      8  C   UNL     1       5.814   6.585  16.843  0.00  0.00    +0.000 C 
ATOM      9  C   UNL     1       4.307   6.583  17.080  0.00  0.00    +0.000 C 
ENDROOT
BRANCH   7  10
ATOM     10  N   UNL     1       6.077   4.423  15.679  0.00  0.00    +0.000 N 
ATOM     11  C   UNL     1       6.755   4.628  14.491  0.00  0.00    +0.000 C 
ATOM     12  O   UNL     1       7.701   5.398  14.382  0.00  0.00    +0.000 OA
ATOM     13  H   UNL     1       5.171   3.976  15.636  0.00  0.00    +0.000 HD
BRANCH  11  14
ATOM     14  C   UNL     1       6.249   3.891  13.297  0.00  0.00    +0.000 A 
ATOM     15  C   UNL     1       7.172   3.191  12.508  0.00  0.00    +0.000 A 
ATOM     16  C   UNL     1       6.747   2.501  11.372  0.00  0.00    +0.000 A 
ATOM     17  C   UNL     1       5.397   2.501  11.022  0.00  0.00    +0.000 A 
ATOM     18  C   UNL     1       4.471   3.183  11.810  0.00  0.00    +0.000 A 
ATOM     19  C   UNL     1       4.892   3.875  12.948  0.00  0.00    +0.000 A 
ENDBRANCH  11  14
ENDBRANCH   7  10
BRANCH   1  21
ATOM     20  C   UNL     1       0.737   8.985  20.357  0.00  0.00    +0.000 C 
ATOM     21  C   UNL     1       1.645   7.770  20.518  0.00  0.00    +0.000 C 
ENDBRANCH   1  21
BRANCH   1  22
ATOM     22  C   UNL     1       1.963   8.103  18.043  0.00  0.00    +0.000 C 
ATOM     23  C   UNL     1       2.415   9.549  17.916  0.00  0.00    +0.000 C 
ENDBRANCH   1  22
TORSDOF 4
ENDMDL
