MODEL 1
REMARK VINA RESULT:      -8.7      0.000      0.000
REMARK  Name = 
REMARK  6 active torsions:
REMARK  status: ('A' for Active; 'I' for Inactive)
REMARK    1  A    between atoms: C_2  and  O_3
REMARK    2  A    between atoms: C_2  and  C_4
REMARK    3  A    between atoms: C_8  and  C_9
REMARK    4  A    between atoms: C_16  and  O_17
REMARK    5  A    between atoms: O_17  and  C_18
REMARK    6  A    between atoms: C_23  and  C_24
REMARK                            x       y       z     vdW  Elec       q    Type
REMARK                         _______ _______ _______ _____ _____    ______ ____
ROOT
ATOM      1  C   UNL     1       2.729   6.966  18.476  0.00  0.00    +0.000 A 
ATOM      2  C   UNL     1       2.377   8.136  17.825  0.00  0.00    +0.000 A 
ATOM      3  C   UNL     1       1.674   9.127  18.521  0.00  0.00    +0.000 A 
ATOM      4  C   UNL     1       1.346   8.946  19.856  0.00  0.00    +0.000 A 
ATOM      5  N   UNL     1       0.672   9.874  20.619  0.00  0.00    +0.000 N 
ATOM      6  C   UNL     1       0.921   9.834  22.062  0.00  0.00    +0.000 C 
ATOM      7  C   UNL     1      -0.417   9.950  22.775  0.00  0.00    +0.000 C 
ATOM      8  C   UNL     1      -1.135  11.244  22.379  0.00  0.00    +0.000 C 
ATOM      9  C   UNL     1      -1.215  11.388  20.851  0.00  0.00    +0.000 C 
ATOM     10  C   UNL     1       0.110  11.126  20.130  0.00  0.00    +0.000 C 
ATOM     11  N   UNL     1       1.695   7.775  20.435  0.00  0.00    +0.000 NA
ATOM     12  N   UNL     1       2.380   6.791  19.762  0.00  0.00    +0.000 NA
ENDROOT
BRANCH   1  17
ATOM     13  C   UNL     1       5.626   5.034  16.988  0.00  0.00    +0.000 A 
ATOM     14  C   UNL     1       5.038   3.787  16.743  0.00  0.00    +0.000 A 
ATOM     15  C   UNL     1       3.703   3.575  17.074  0.00  0.00    +0.000 A 
ATOM     16  C   UNL     1       2.947   4.600  17.644  0.00  0.00    +0.000 A 
ATOM     17  C   UNL     1       3.503   5.868  17.879  0.00  0.00    +0.000 A 
ATOM     18  C   UNL     1       4.855   6.068  17.529  0.00  0.00    +0.000 A 
BRANCH  13  20
ATOM     19  O   UNL     1       7.458   6.238  16.079  0.00  0.00    +0.000 OA
ATOM     20  C   UNL     1       7.049   5.230  16.629  0.00  0.00    +0.000 C 
BRANCH  20  21
ATOM     21  O   UNL     1       7.834   4.169  16.913  0.00  0.00    +0.000 OA
ATOM     22  H   UNL     1       8.773   4.264  16.663  0.00  0.00    +0.000 HD
ENDBRANCH  20  21
ENDBRANCH  13  20
ENDBRANCH   1  17
BRANCH   8  23
ATOM     23  O   UNL     1      -0.459  12.387  22.940  0.00  0.00    +0.000 OA
BRANCH  23  24
ATOM     24  C   UNL     1      -1.166  13.557  23.069  0.00  0.00    +0.000 A 
ATOM     25  C   UNL     1      -2.318  13.684  23.861  0.00  0.00    +0.000 A 
ATOM     26  C   UNL     1      -3.037  14.881  23.917  0.00  0.00    +0.000 A 
ATOM     27  C   UNL     1      -2.585  15.992  23.223  0.00  0.00    +0.000 A 
ATOM     28  C   UNL     1      -1.417  15.901  22.472  0.00  0.00    +0.000 A 
ATOM     29  C   UNL     1      -0.702  14.684  22.368  0.00  0.00    +0.000 A 
BRANCH  29  30
ATOM     30  C   UNL     1       0.507  14.684  21.465  0.00  0.00    +0.000 C 
ATOM     31  F   UNL     1       1.472  13.766  21.740  0.00  0.00    +0.000 F 
ATOM     32  F   UNL     1       0.156  14.459  20.162  0.00  0.00    +0.000 F 
ATOM     33  F   UNL     1       1.140  15.894  21.454  0.00  0.00    +0.000 F 
ENDBRANCH  29  30
ENDBRANCH  23  24
ENDBRANCH   8  23
TORSDOF 6
ENDMDL
MODEL 2
REMARK VINA RESULT:      -8.5      3.424      4.291
REMARK  Name = 
REMARK  6 active torsions:
REMARK  status: ('A' for Active; 'I' for Inactive)
REMARK    1  A    between atoms: C_2  and  O_3
REMARK    2  A    between atoms: C_2  and  C_4
REMARK    3  A    between atoms: C_8  and  C_9
REMARK    4  A    between atoms: C_16  and  O_17
REMARK    5  A    between atoms: O_17  and  C_18
REMARK    6  A    between atoms: C_23  and  C_24
REMARK                            x       y       z     vdW  Elec       q    Type
REMARK                         _______ _______ _______ _____ _____    ______ ____
ROOT
ATOM      1  C   UNL     1       2.187   7.549  18.972  0.00  0.00    +0.000 A 
ATOM      2  C   UNL     1       2.255   8.329  17.831  0.00  0.00    +0.000 A 
ATOM      3  C   UNL     1       1.828   9.662  17.882  0.00  0.00    +0.000 A 
ATOM      4  C   UNL     1       1.355  10.201  19.069  0.00  0.00    +0.000 A 
ATOM      5  N   UNL     1       0.931  11.505  19.212  0.00  0.00    +0.000 N 
ATOM      6  C   UNL     1       1.041  12.081  20.554  0.00  0.00    +0.000 C 
ATOM      7  C   UNL     1      -0.253  12.819  20.857  0.00  0.00    +0.000 C 
ATOM      8  C   UNL     1      -0.516  13.909  19.814  0.00  0.00    +0.000 C 
ATOM      9  C   UNL     1      -0.428  13.343  18.387  0.00  0.00    +0.000 C 
ATOM     10  C   UNL     1       0.811  12.479  18.135  0.00  0.00    +0.000 C 
ATOM     11  N   UNL     1       1.290   9.387  20.146  0.00  0.00    +0.000 NA
ATOM     12  N   UNL     1       1.700   8.075  20.110  0.00  0.00    +0.000 NA
ENDROOT
BRANCH   1  17
ATOM     13  C   UNL     1       2.531   3.980  20.193  0.00  0.00    +0.000 A 
ATOM     14  C   UNL     1       3.469   3.463  19.292  0.00  0.00    +0.000 A 
ATOM     15  C   UNL     1       3.979   4.273  18.282  0.00  0.00    +0.000 A 
ATOM     16  C   UNL     1       3.563   5.600  18.166  0.00  0.00    +0.000 A 
ATOM     17  C   UNL     1       2.641   6.154  19.069  0.00  0.00    +0.000 A 
ATOM     18  C   UNL     1       2.141   5.321  20.092  0.00  0.00    +0.000 A 
BRANCH  13  20
ATOM     19  O   UNL     1       2.717   2.567  22.090  0.00  0.00    +0.000 OA
ATOM     20  C   UNL     1       2.003   3.094  21.255  0.00  0.00    +0.000 C 
BRANCH  20  21
ATOM     21  O   UNL     1       0.673   2.879  21.174  0.00  0.00    +0.000 OA
ATOM     22  H   UNL     1       0.119   3.683  21.169  0.00  0.00    +0.000 HD
ENDBRANCH  20  21
ENDBRANCH  13  20
ENDBRANCH   1  17
BRANCH   8  23
ATOM     23  O   UNL     1       0.424  14.990  19.967  0.00  0.00    +0.000 OA
BRANCH  23  24
ATOM     24  C   UNL     1       0.269  16.099  19.171  0.00  0.00    +0.000 A 
ATOM     25  C   UNL     1      -0.957  16.757  18.987  0.00  0.00    +0.000 A 
ATOM     26  C   UNL     1      -1.077  17.848  18.123  0.00  0.00    +0.000 A 
ATOM     27  C   UNL     1       0.040  18.336  17.465  0.00  0.00    +0.000 A 
ATOM     28  C   UNL     1       1.275  17.728  17.673  0.00  0.00    +0.000 A 
ATOM     29  C   UNL     1       1.407  16.595  18.509  0.00  0.00    +0.000 A 
BRANCH  29  30
ATOM     30  C   UNL     1       2.779  15.974  18.598  0.00  0.00    +0.000 C 
ATOM     31  F   UNL     1       3.229  15.670  19.845  0.00  0.00    +0.000 F 
ATOM     32  F   UNL     1       2.842  14.802  17.895  0.00  0.00    +0.000 F 
ATOM     33  F   UNL     1       3.740  16.770  18.042  0.00  0.00    +0.000 F 
ENDBRANCH  29  30
ENDBRANCH  23  24
ENDBRANCH   8  23
TORSDOF 6
ENDMDL
MODEL 3
REMARK VINA RESULT:      -8.4      1.510      1.997
REMARK  Name = 
REMARK  6 active torsions:
REMARK  status: ('A' for Active; 'I' for Inactive)
REMARK    1  A    between atoms: C_2  and  O_3
REMARK    2  A    between atoms: C_2  and  C_4
REMARK    3  A    between atoms: C_8  and  C_9
REMARK    4  A    between atoms: C_16  and  O_17
REMARK    5  A    between atoms: O_17  and  C_18
REMARK    6  A    between atoms: C_23  and  C_24
REMARK                            x       y       z     vdW  Elec       q    Type
REMARK                         _______ _______ _______ _____ _____    ______ ____
ROOT
ATOM      1  C   UNL     1       2.469   7.339  18.492  0.00  0.00    +0.000 A 
ATOM      2  C   UNL     1       2.098   8.508  17.851  0.00  0.00    +0.000 A 
ATOM      3  C   UNL     1       1.413   9.498  18.566  0.00  0.00    +0.000 A 
ATOM      4  C   UNL     1       1.122   9.317  19.910  0.00  0.00    +0.000 A 
ATOM      5  N   UNL     1       0.467  10.244  20.691  0.00  0.00    +0.000 N 
ATOM      6  C   UNL     1       0.755  10.204  22.127  0.00  0.00    +0.000 C 
ATOM      7  C   UNL     1      -0.563  10.319  22.876  0.00  0.00    +0.000 C 
ATOM      8  C   UNL     1      -1.293  11.612  22.500  0.00  0.00    +0.000 C 
ATOM      9  C   UNL     1      -1.416  11.755  20.974  0.00  0.00    +0.000 C 
ATOM     10  C   UNL     1      -0.110  11.495  20.217  0.00  0.00    +0.000 C 
ATOM     11  N   UNL     1       1.487   8.147  20.479  0.00  0.00    +0.000 NA
ATOM     12  N   UNL     1       2.155   7.163  19.788  0.00  0.00    +0.000 NA
ENDROOT
BRANCH   1  17
ATOM     13  C   UNL     1       3.499   3.842  17.469  0.00  0.00    +0.000 A 
ATOM     14  C   UNL     1       4.640   4.097  16.700  0.00  0.00    +0.000 A 
ATOM     15  C   UNL     1       5.065   5.408  16.507  0.00  0.00    +0.000 A 
ATOM     16  C   UNL     1       4.362   6.468  17.079  0.00  0.00    +0.000 A 
ATOM     17  C   UNL     1       3.227   6.242  17.875  0.00  0.00    +0.000 A 
ATOM     18  C   UNL     1       2.815   4.906  18.068  0.00  0.00    +0.000 A 
BRANCH  13  20
ATOM     19  O   UNL     1       1.895   2.107  17.693  0.00  0.00    +0.000 OA
ATOM     20  C   UNL     1       3.067   2.437  17.654  0.00  0.00    +0.000 C 
BRANCH  20  21
ATOM     21  O   UNL     1       4.088   1.573  17.835  0.00  0.00    +0.000 OA
ATOM     22  H   UNL     1       4.320   1.389  18.765  0.00  0.00    +0.000 HD
ENDBRANCH  20  21
ENDBRANCH  13  20
ENDBRANCH   1  17
BRANCH   8  23
ATOM     23  O   UNL     1      -0.604  12.755  23.042  0.00  0.00    +0.000 OA
BRANCH  23  24
ATOM     24  C   UNL     1      -1.338  13.883  23.317  0.00  0.00    +0.000 A 
ATOM     25  C   UNL     1      -2.486  13.883  24.124  0.00  0.00    +0.000 A 
ATOM     26  C   UNL     1      -3.234  15.045  24.330  0.00  0.00    +0.000 A 
ATOM     27  C   UNL     1      -2.817  16.244  23.773  0.00  0.00    +0.000 A 
ATOM     28  C   UNL     1      -1.653  16.274  23.010  0.00  0.00    +0.000 A 
ATOM     29  C   UNL     1      -0.909  15.098  22.754  0.00  0.00    +0.000 A 
BRANCH  29  30
ATOM     30  C   UNL     1       0.291  15.239  21.850  0.00  0.00    +0.000 C 
ATOM     31  F   UNL     1       1.439  14.641  22.267  0.00  0.00    +0.000 F 
ATOM     32  F   UNL     1       0.043  14.720  20.609  0.00  0.00    +0.000 F 
ATOM     33  F   UNL     1       0.614  16.546  21.626  0.00  0.00    +0.000 F 
ENDBRANCH  29  30
ENDBRANCH  23  24
ENDBRANCH   8  23
TORSDOF 6
ENDMDL
MODEL 4
REMARK VINA RESULT:      -8.3      3.159      4.091
REMARK  Name = 
REMARK  6 active torsions:
REMARK  status: ('A' for Active; 'I' for Inactive)
REMARK    1  A    between atoms: C_2  and  O_3
REMARK    2  A    between atoms: C_2  and  C_4
REMARK    3  A    between atoms: C_8  and  C_9
REMARK    4  A    between atoms: C_16  and  O_17
REMARK    5  A    between atoms: O_17  and  C_18
REMARK    6  A    between atoms: C_23  and  C_24
REMARK                            x       y       z     vdW  Elec       q    Type
REMARK                         _______ _______ _______ _____ _____    ______ ____
ROOT
ATOM      1  C   UNL     1       1.882   7.832  19.585  0.00  0.00    +0.000 A 
ATOM      2  C   UNL     1       2.043   8.486  18.376  0.00  0.00    +0.000 A 
ATOM      3  C   UNL     1       1.688   9.836  18.271  0.00  0.00    +0.000 A 
ATOM      4  C   UNL     1       1.195  10.519  19.373  0.00  0.00    +0.000 A 
ATOM      5  N   UNL     1       0.838  11.850  19.362  0.00  0.00    +0.000 N 
ATOM      6  C   UNL     1       0.921  12.557  20.642  0.00  0.00    +0.000 C 
ATOM      7  C   UNL     1      -0.342  13.386  20.806  0.00  0.00    +0.000 C 
ATOM      8  C   UNL     1      -0.499  14.374  19.645  0.00  0.00    +0.000 C 
ATOM      9  C   UNL     1      -0.381  13.659  18.290  0.00  0.00    +0.000 C 
ATOM     10  C   UNL     1       0.818  12.712  18.188  0.00  0.00    +0.000 C 
ATOM     11  N   UNL     1       1.038   9.826  20.522  0.00  0.00    +0.000 NA
ATOM     12  N   UNL     1       1.376   8.498  20.639  0.00  0.00    +0.000 NA
ENDROOT
BRANCH   1  17
ATOM     13  C   UNL     1       3.840   4.591  19.551  0.00  0.00    +0.000 A 
ATOM     14  C   UNL     1       3.022   3.759  20.325  0.00  0.00    +0.000 A 
ATOM     15  C   UNL     1       1.841   4.258  20.866  0.00  0.00    +0.000 A 
ATOM     16  C   UNL     1       1.466   5.583  20.637  0.00  0.00    +0.000 A 
ATOM     17  C   UNL     1       2.254   6.434  19.845  0.00  0.00    +0.000 A 
ATOM     18  C   UNL     1       3.443   5.909  19.297  0.00  0.00    +0.000 A 
BRANCH  13  20
ATOM     19  O   UNL     1       6.173   4.581  19.121  0.00  0.00    +0.000 OA
ATOM     20  C   UNL     1       5.092   4.033  18.992  0.00  0.00    +0.000 C 
BRANCH  20  21
ATOM     21  O   UNL     1       4.915   2.901  18.280  0.00  0.00    +0.000 OA
ATOM     22  H   UNL     1       5.350   2.106  18.643  0.00  0.00    +0.000 HD
ENDBRANCH  20  21
ENDBRANCH  13  20
ENDBRANCH   1  17
BRANCH   8  23
ATOM     23  O   UNL     1       0.491  15.417  19.734  0.00  0.00    +0.000 OA
BRANCH  23  24
ATOM     24  C   UNL     1       0.432  16.444  18.824  0.00  0.00    +0.000 A 
ATOM     25  C   UNL     1      -0.733  17.181  18.561  0.00  0.00    +0.000 A 
ATOM     26  C   UNL     1      -0.761  18.181  17.586  0.00  0.00    +0.000 A 
ATOM     27  C   UNL     1       0.394  18.500  16.891  0.00  0.00    +0.000 A 
ATOM     28  C   UNL     1       1.573  17.815  17.171  0.00  0.00    +0.000 A 
ATOM     29  C   UNL     1       1.607  16.769  18.124  0.00  0.00    +0.000 A 
BRANCH  29  30
ATOM     30  C   UNL     1       2.921  16.046  18.289  0.00  0.00    +0.000 C 
ATOM     31  F   UNL     1       4.021  16.822  18.487  0.00  0.00    +0.000 F 
ATOM     32  F   UNL     1       2.888  15.189  19.354  0.00  0.00    +0.000 F 
ATOM     33  F   UNL     1       3.214  15.259  17.212  0.00  0.00    +0.000 F 
ENDBRANCH  29  30
ENDBRANCH  23  24
ENDBRANCH   8  23
TORSDOF 6
ENDMDL
MODEL 5
REMARK VINA RESULT:      -8.2      3.599     10.792
REMARK  Name = 
REMARK  6 active torsions:
REMARK  status: ('A' for Active; 'I' for Inactive)
REMARK    1  A    between atoms: C_2  and  O_3
REMARK    2  A    between atoms: C_2  and  C_4
REMARK    3  A    between atoms: C_8  and  C_9
REMARK    4  A    between atoms: C_16  and  O_17
REMARK    5  A    between atoms: O_17  and  C_18
REMARK    6  A    between atoms: C_23  and  C_24
REMARK                            x       y       z     vdW  Elec       q    Type
REMARK                         _______ _______ _______ _____ _____    ______ ____
ROOT
ATOM      1  C   UNL     1       0.304  10.327  21.351  0.00  0.00    +0.000 A 
ATOM      2  C   UNL     1       0.545   9.264  22.203  0.00  0.00    +0.000 A 
ATOM      3  C   UNL     1       1.168   8.112  21.707  0.00  0.00    +0.000 A 
ATOM      4  C   UNL     1       1.555   8.042  20.377  0.00  0.00    +0.000 A 
ATOM      5  N   UNL     1       2.187   6.956  19.811  0.00  0.00    +0.000 N 
ATOM      6  C   UNL     1       3.039   7.230  18.652  0.00  0.00    +0.000 C 
ATOM      7  C   UNL     1       2.745   6.180  17.592  0.00  0.00    +0.000 C 
ATOM      8  C   UNL     1       2.998   4.771  18.136  0.00  0.00    +0.000 C 
ATOM      9  C   UNL     1       2.263   4.551  19.468  0.00  0.00    +0.000 C 
ATOM     10  C   UNL     1       2.449   5.687  20.477  0.00  0.00    +0.000 C 
ATOM     11  N   UNL     1       1.274   9.101  19.585  0.00  0.00    +0.000 NA
ATOM     12  N   UNL     1       0.657  10.236  20.056  0.00  0.00    +0.000 NA
ENDROOT
BRANCH   1  17
ATOM     13  C   UNL     1      -2.140  12.823  22.813  0.00  0.00    +0.000 A 
ATOM     14  C   UNL     1      -1.498  14.038  22.545  0.00  0.00    +0.000 A 
ATOM     15  C   UNL     1      -0.265  14.041  21.900  0.00  0.00    +0.000 A 
ATOM     16  C   UNL     1       0.332  12.839  21.514  0.00  0.00    +0.000 A 
ATOM     17  C   UNL     1      -0.300  11.608  21.748  0.00  0.00    +0.000 A 
ATOM     18  C   UNL     1      -1.553  11.623  22.396  0.00  0.00    +0.000 A 
BRANCH  13  20
ATOM     19  O   UNL     1      -3.866  11.914  24.163  0.00  0.00    +0.000 OA
ATOM     20  C   UNL     1      -3.449  12.850  23.505  0.00  0.00    +0.000 C 
BRANCH  20  21
ATOM     21  O   UNL     1      -4.156  13.979  23.289  0.00  0.00    +0.000 OA
ATOM     22  H   UNL     1      -5.035  14.010  23.713  0.00  0.00    +0.000 HD
ENDBRANCH  20  21
ENDBRANCH  13  20
ENDBRANCH   1  17
BRANCH   8  23
ATOM     23  O   UNL     1       4.410   4.547  18.317  0.00  0.00    +0.000 OA
BRANCH  23  24
ATOM     24  C   UNL     1       5.216   4.567  17.205  0.00  0.00    +0.000 A 
ATOM     25  C   UNL     1       4.838   4.034  15.963  0.00  0.00    +0.000 A 
ATOM     26  C   UNL     1       5.714   4.027  14.875  0.00  0.00    +0.000 A 
ATOM     27  C   UNL     1       6.969   4.602  14.993  0.00  0.00    +0.000 A 
ATOM     28  C   UNL     1       7.344   5.181  16.202  0.00  0.00    +0.000 A 
ATOM     29  C   UNL     1       6.487   5.156  17.327  0.00  0.00    +0.000 A 
BRANCH  29  30
ATOM     30  C   UNL     1       7.031   5.745  18.606  0.00  0.00    +0.000 C 
ATOM     31  F   UNL     1       6.199   5.736  19.682  0.00  0.00    +0.000 F 
ATOM     32  F   UNL     1       8.159   5.089  19.017  0.00  0.00    +0.000 F 
ATOM     33  F   UNL     1       7.418   7.045  18.449  0.00  0.00    +0.000 F 
ENDBRANCH  29  30
ENDBRANCH  23  24
ENDBRANCH   8  23
TORSDOF 6
ENDMDL
MODEL 6
REMARK VINA RESULT:      -8.2      3.028      3.902
REMARK  Name = 
REMARK  6 active torsions:
REMARK  status: ('A' for Active; 'I' for Inactive)
REMARK    1  A    between atoms: C_2  and  O_3
REMARK    2  A    between atoms: C_2  and  C_4
REMARK    3  A    between atoms: C_8  and  C_9
REMARK    4  A    between atoms: C_16  and  O_17
REMARK    5  A    between atoms: O_17  and  C_18
REMARK    6  A    between atoms: C_23  and  C_24
REMARK                            x       y       z     vdW  Elec       q    Type
REMARK                         _______ _______ _______ _____ _____    ______ ____
ROOT
ATOM      1  C   UNL     1       1.933   7.513  19.391  0.00  0.00    +0.000 A 
ATOM      2  C   UNL     1       2.042   8.204  18.196  0.00  0.00    +0.000 A 
ATOM      3  C   UNL     1       1.685   9.556  18.148  0.00  0.00    +0.000 A 
ATOM      4  C   UNL     1       1.240  10.205  19.290  0.00  0.00    +0.000 A 
ATOM      5  N   UNL     1       0.884  11.536  19.335  0.00  0.00    +0.000 N 
ATOM      6  C   UNL     1       1.023  12.202  20.633  0.00  0.00    +0.000 C 
ATOM      7  C   UNL     1      -0.231  13.027  20.875  0.00  0.00    +0.000 C 
ATOM      8  C   UNL     1      -0.436  14.049  19.753  0.00  0.00    +0.000 C 
ATOM      9  C   UNL     1      -0.377  13.377  18.373  0.00  0.00    +0.000 C 
ATOM     10  C   UNL     1       0.816  12.433  18.190  0.00  0.00    +0.000 C 
ATOM     11  N   UNL     1       1.131   9.476  20.423  0.00  0.00    +0.000 NA
ATOM     12  N   UNL     1       1.473   8.146  20.485  0.00  0.00    +0.000 NA
ENDROOT
BRANCH   1  17
ATOM     13  C   UNL     1       3.388   4.078  18.739  0.00  0.00    +0.000 A 
ATOM     14  C   UNL     1       3.080   3.410  19.930  0.00  0.00    +0.000 A 
ATOM     15  C   UNL     1       2.409   4.083  20.947  0.00  0.00    +0.000 A 
ATOM     16  C   UNL     1       2.038   5.418  20.783  0.00  0.00    +0.000 A 
ATOM     17  C   UNL     1       2.313   6.107  19.591  0.00  0.00    +0.000 A 
ATOM     18  C   UNL     1       2.986   5.408  18.567  0.00  0.00    +0.000 A 
BRANCH  13  20
ATOM     19  O   UNL     1       4.641   3.895  16.733  0.00  0.00    +0.000 OA
ATOM     20  C   UNL     1       4.107   3.339  17.676  0.00  0.00    +0.000 C 
BRANCH  20  21
ATOM     21  O   UNL     1       4.062   1.998  17.820  0.00  0.00    +0.000 OA
ATOM     22  H   UNL     1       4.929   1.551  17.845  0.00  0.00    +0.000 HD
ENDBRANCH  20  21
ENDBRANCH  13  20
ENDBRANCH   1  17
BRANCH   8  23
ATOM     23  O   UNL     1       0.558  15.089  19.831  0.00  0.00    +0.000 OA
BRANCH  23  24
ATOM     24  C   UNL     1       0.427  16.174  18.999  0.00  0.00    +0.000 A 
ATOM     25  C   UNL     1      -0.780  16.865  18.810  0.00  0.00    +0.000 A 
ATOM     26  C   UNL     1      -0.879  17.929  17.910  0.00  0.00    +0.000 A 
ATOM     27  C   UNL     1       0.243  18.356  17.219  0.00  0.00    +0.000 A 
ATOM     28  C   UNL     1       1.461  17.715  17.429  0.00  0.00    +0.000 A 
ATOM     29  C   UNL     1       1.569  16.608  18.303  0.00  0.00    +0.000 A 
BRANCH  29  30
ATOM     30  C   UNL     1       2.921  15.946  18.393  0.00  0.00    +0.000 C 
ATOM     31  F   UNL     1       3.013  14.681  17.899  0.00  0.00    +0.000 F 
ATOM     32  F   UNL     1       3.874  16.664  17.724  0.00  0.00    +0.000 F 
ATOM     33  F   UNL     1       3.374  15.874  19.679  0.00  0.00    +0.000 F 
ENDBRANCH  29  30
ENDBRANCH  23  24
ENDBRANCH   8  23
TORSDOF 6
ENDMDL
MODEL 7
REMARK VINA RESULT:      -8.2      4.141     11.174
REMARK  Name = 
REMARK  6 active torsions:
REMARK  status: ('A' for Active; 'I' for Inactive)
REMARK    1  A    between atoms: C_2  and  O_3
REMARK    2  A    between atoms: C_2  and  C_4
REMARK    3  A    between atoms: C_8  and  C_9
REMARK    4  A    between atoms: C_16  and  O_17
REMARK    5  A    between atoms: O_17  and  C_18
REMARK    6  A    between atoms: C_23  and  C_24
REMARK                            x       y       z     vdW  Elec       q    Type
REMARK                         _______ _______ _______ _____ _____    ______ ____
ROOT
ATOM      1  C   UNL     1      -0.724  11.025  22.122  0.00  0.00    +0.000 A 
ATOM      2  C   UNL     1      -0.287   9.959  22.887  0.00  0.00    +0.000 A 
ATOM      3  C   UNL     1       0.420   8.916  22.276  0.00  0.00    +0.000 A 
ATOM      4  C   UNL     1       0.694   8.958  20.917  0.00  0.00    +0.000 A 
ATOM      5  N   UNL     1       1.396   7.985  20.240  0.00  0.00    +0.000 N 
ATOM      6  C   UNL     1       2.106   8.416  19.033  0.00  0.00    +0.000 C 
ATOM      7  C   UNL     1       1.844   7.391  17.941  0.00  0.00    +0.000 C 
ATOM      8  C   UNL     1       2.307   5.998  18.379  0.00  0.00    +0.000 C 
ATOM      9  C   UNL     1       1.721   5.626  19.751  0.00  0.00    +0.000 C 
ATOM     10  C   UNL     1       1.862   6.726  20.807  0.00  0.00    +0.000 C 
ATOM     11  N   UNL     1       0.224  10.012  20.215  0.00  0.00    +0.000 NA
ATOM     12  N   UNL     1      -0.477  11.041  20.800  0.00  0.00    +0.000 NA
ENDROOT
BRANCH   1  17
ATOM     13  C   UNL     1      -3.533  13.244  23.358  0.00  0.00    +0.000 A 
ATOM     14  C   UNL     1      -2.849  14.430  23.649  0.00  0.00    +0.000 A 
ATOM     15  C   UNL     1      -1.473  14.501  23.454  0.00  0.00    +0.000 A 
ATOM     16  C   UNL     1      -0.773  13.397  22.965  0.00  0.00    +0.000 A 
ATOM     17  C   UNL     1      -1.436  12.203  22.641  0.00  0.00    +0.000 A 
ATOM     18  C   UNL     1      -2.832  12.151  22.836  0.00  0.00    +0.000 A 
BRANCH  13  20
ATOM     19  O   UNL     1      -5.736  12.468  22.940  0.00  0.00    +0.000 OA
ATOM     20  C   UNL     1      -4.996  13.196  23.579  0.00  0.00    +0.000 C 
BRANCH  20  21
ATOM     21  O   UNL     1      -5.436  14.073  24.506  0.00  0.00    +0.000 OA
ATOM     22  H   UNL     1      -4.976  14.933  24.520  0.00  0.00    +0.000 HD
ENDBRANCH  20  21
ENDBRANCH  13  20
ENDBRANCH   1  17
BRANCH   8  23
ATOM     23  O   UNL     1       3.745   5.938  18.431  0.00  0.00    +0.000 OA
BRANCH  23  24
ATOM     24  C   UNL     1       4.419   5.559  17.296  0.00  0.00    +0.000 A 
ATOM     25  C   UNL     1       5.030   6.467  16.417  0.00  0.00    +0.000 A 
ATOM     26  C   UNL     1       5.655   6.039  15.244  0.00  0.00    +0.000 A 
ATOM     27  C   UNL     1       5.729   4.686  14.953  0.00  0.00    +0.000 A 
ATOM     28  C   UNL     1       5.173   3.766  15.837  0.00  0.00    +0.000 A 
ATOM     29  C   UNL     1       4.496   4.185  17.007  0.00  0.00    +0.000 A 
BRANCH  29  30
ATOM     30  C   UNL     1       3.867   3.103  17.849  0.00  0.00    +0.000 C 
ATOM     31  F   UNL     1       4.236   1.824  17.572  0.00  0.00    +0.000 F 
ATOM     32  F   UNL     1       4.146   3.280  19.177  0.00  0.00    +0.000 F 
ATOM     33  F   UNL     1       2.503   3.120  17.772  0.00  0.00    +0.000 F 
ENDBRANCH  29  30
ENDBRANCH  23  24
ENDBRANCH   8  23
TORSDOF 6
ENDMDL
MODEL 8
REMARK VINA RESULT:      -8.2      2.222      2.872
REMARK  Name = 
REMARK  6 active torsions:
REMARK  status: ('A' for Active; 'I' for Inactive)
REMARK    1  A    between atoms: C_2  and  O_3
REMARK    2  A    between atoms: C_2  and  C_4
REMARK    3  A    between atoms: C_8  and  C_9
REMARK    4  A    between atoms: C_16  and  O_17
REMARK    5  A    between atoms: O_17  and  C_18
REMARK    6  A    between atoms: C_23  and  C_24
REMARK                            x       y       z     vdW  Elec       q    Type
REMARK                         _______ _______ _______ _____ _____    ______ ____
ROOT
ATOM      1  C   UNL     1       2.536   7.110  18.661  0.00  0.00    +0.000 A 
ATOM      2  C   UNL     1       2.135   7.228  19.981  0.00  0.00    +0.000 A 
ATOM      3  C   UNL     1       1.468   8.386  20.397  0.00  0.00    +0.000 A 
ATOM      4  C   UNL     1       1.194   9.400  19.492  0.00  0.00    +0.000 A 
ATOM      5  N   UNL     1       0.529  10.564  19.812  0.00  0.00    +0.000 N 
ATOM      6  C   UNL     1      -0.193  11.221  18.720  0.00  0.00    +0.000 C 
ATOM      7  C   UNL     1       0.106  12.710  18.786  0.00  0.00    +0.000 C 
ATOM      8  C   UNL     1      -0.306  13.290  20.142  0.00  0.00    +0.000 C 
ATOM      9  C   UNL     1       0.289  12.471  21.299  0.00  0.00    +0.000 C 
ATOM     10  C   UNL     1       0.107  10.958  21.149  0.00  0.00    +0.000 C 
ATOM     11  N   UNL     1       1.628   9.242  18.222  0.00  0.00    +0.000 NA
ATOM     12  N   UNL     1       2.291   8.113  17.800  0.00  0.00    +0.000 NA
ENDROOT
BRANCH   1  17
ATOM     13  C   UNL     1       5.265   4.843  17.337  0.00  0.00    +0.000 A 
ATOM     14  C   UNL     1       4.538   3.699  16.988  0.00  0.00    +0.000 A 
ATOM     15  C   UNL     1       3.163   3.664  17.196  0.00  0.00    +0.000 A 
ATOM     16  C   UNL     1       2.504   4.765  17.746  0.00  0.00    +0.000 A 
ATOM     17  C   UNL     1       3.204   5.934  18.083  0.00  0.00    +0.000 A 
ATOM     18  C   UNL     1       4.596   5.957  17.858  0.00  0.00    +0.000 A 
BRANCH  13  20
ATOM     19  O   UNL     1       7.238   5.336  16.114  0.00  0.00    +0.000 OA
ATOM     20  C   UNL     1       6.728   4.851  17.109  0.00  0.00    +0.000 C 
BRANCH  20  21
ATOM     21  O   UNL     1       7.434   4.222  18.072  0.00  0.00    +0.000 OA
ATOM     22  H   UNL     1       7.900   4.807  18.699  0.00  0.00    +0.000 HD
ENDBRANCH  20  21
ENDBRANCH  13  20
ENDBRANCH   1  17
BRANCH   8  23
ATOM     23  O   UNL     1      -1.742  13.324  20.259  0.00  0.00    +0.000 OA
BRANCH  23  24
ATOM     24  C   UNL     1      -2.313  14.397  20.900  0.00  0.00    +0.000 A 
ATOM     25  C   UNL     1      -1.971  15.732  20.634  0.00  0.00    +0.000 A 
ATOM     26  C   UNL     1      -2.538  16.788  21.351  0.00  0.00    +0.000 A 
ATOM     27  C   UNL     1      -3.501  16.531  22.313  0.00  0.00    +0.000 A 
ATOM     28  C   UNL     1      -3.891  15.218  22.557  0.00  0.00    +0.000 A 
ATOM     29  C   UNL     1      -3.294  14.133  21.872  0.00  0.00    +0.000 A 
BRANCH  29  30
ATOM     30  C   UNL     1      -3.741  12.750  22.274  0.00  0.00    +0.000 C 
ATOM     31  F   UNL     1      -2.765  11.880  22.650  0.00  0.00    +0.000 F 
ATOM     32  F   UNL     1      -4.610  12.793  23.330  0.00  0.00    +0.000 F 
ATOM     33  F   UNL     1      -4.432  12.123  21.277  0.00  0.00    +0.000 F 
ENDBRANCH  29  30
ENDBRANCH  23  24
ENDBRANCH   8  23
TORSDOF 6
ENDMDL
MODEL 9
REMARK VINA RESULT:      -8.1      2.233      2.834
REMARK  Name = 
REMARK  6 active torsions:
REMARK  status: ('A' for Active; 'I' for Inactive)
REMARK    1  A    between atoms: C_2  and  O_3
REMARK    2  A    between atoms: C_2  and  C_4
REMARK    3  A    between atoms: C_8  and  C_9
REMARK    4  A    between atoms: C_16  and  O_17
REMARK    5  A    between atoms: O_17  and  C_18
REMARK    6  A    between atoms: C_23  and  C_24
REMARK                            x       y       z     vdW  Elec       q    Type
REMARK                         _______ _______ _______ _____ _____    ______ ____
ROOT
ATOM      1  C   UNL     1       2.715   6.716  18.913  0.00  0.00    +0.000 A 
ATOM      2  C   UNL     1       2.153   6.337  20.119  0.00  0.00    +0.000 A 
ATOM      3  C   UNL     1       1.320   7.230  20.803  0.00  0.00    +0.000 A 
ATOM      4  C   UNL     1       1.045   8.480  20.269  0.00  0.00    +0.000 A 
ATOM      5  N   UNL     1       0.224   9.413  20.865  0.00  0.00    +0.000 N 
ATOM      6  C   UNL     1      -0.433  10.368  19.970  0.00  0.00    +0.000 C 
ATOM      7  C   UNL     1      -0.307  11.753  20.583  0.00  0.00    +0.000 C 
ATOM      8  C   UNL     1      -0.935  11.790  21.980  0.00  0.00    +0.000 C 
ATOM      9  C   UNL     1      -0.392  10.654  22.862  0.00  0.00    +0.000 C 
ATOM     10  C   UNL     1      -0.390   9.283  22.179  0.00  0.00    +0.000 C 
ATOM     11  N   UNL     1       1.638   8.807  19.099  0.00  0.00    +0.000 NA
ATOM     12  N   UNL     1       2.464   7.942  18.419  0.00  0.00    +0.000 NA
ENDROOT
BRANCH   1  17
ATOM     13  C   UNL     1       5.653   5.558  16.823  0.00  0.00    +0.000 A 
ATOM     14  C   UNL     1       5.255   4.264  16.469  0.00  0.00    +0.000 A 
ATOM     15  C   UNL     1       4.036   3.767  16.920  0.00  0.00    +0.000 A 
ATOM     16  C   UNL     1       3.207   4.554  17.721  0.00  0.00    +0.000 A 
ATOM     17  C   UNL     1       3.569   5.864  18.073  0.00  0.00    +0.000 A 
ATOM     18  C   UNL     1       4.804   6.355  17.599  0.00  0.00    +0.000 A 
BRANCH  13  20
ATOM     19  O   UNL     1       7.606   6.902  16.926  0.00  0.00    +0.000 OA
ATOM     20  C   UNL     1       6.957   6.059  16.332  0.00  0.00    +0.000 C 
BRANCH  20  21
ATOM     21  O   UNL     1       7.326   5.541  15.142  0.00  0.00    +0.000 OA
ATOM     22  H   UNL     1       6.626   5.063  14.658  0.00  0.00    +0.000 HD
ENDBRANCH  20  21
ENDBRANCH  13  20
ENDBRANCH   1  17
BRANCH   8  23
ATOM     23  O   UNL     1      -2.370  11.693  21.889  0.00  0.00    +0.000 OA
BRANCH  23  24
ATOM     24  C   UNL     1      -3.123  12.682  22.473  0.00  0.00    +0.000 A 
ATOM     25  C   UNL     1      -2.909  13.153  23.778  0.00  0.00    +0.000 A 
ATOM     26  C   UNL     1      -3.737  14.121  24.350  0.00  0.00    +0.000 A 
ATOM     27  C   UNL     1      -4.766  14.678  23.607  0.00  0.00    +0.000 A 
ATOM     28  C   UNL     1      -4.964  14.260  22.294  0.00  0.00    +0.000 A 
ATOM     29  C   UNL     1      -4.163  13.248  21.714  0.00  0.00    +0.000 A 
BRANCH  29  30
ATOM     30  C   UNL     1      -4.520  12.822  20.312  0.00  0.00    +0.000 C 
ATOM     31  F   UNL     1      -3.482  12.545  19.478  0.00  0.00    +0.000 F 
ATOM     32  F   UNL     1      -5.292  11.693  20.314  0.00  0.00    +0.000 F 
ATOM     33  F   UNL     1      -5.273  13.761  19.666  0.00  0.00    +0.000 F 
ENDBRANCH  29  30
ENDBRANCH  23  24
ENDBRANCH   8  23
TORSDOF 6
ENDMDL
