MODEL 1
REMARK VINA RESULT:      -8.1      0.000      0.000
REMARK  Name = 
REMARK  4 active torsions:
REMARK  status: ('A' for Active; 'I' for Inactive)
REMARK    1  A    between atoms: C_2  and  C_18
REMARK    2  A    between atoms: N_3  and  C_4
REMARK    3  A    between atoms: C_7  and  N_8
REMARK    4  A    between atoms: C_9  and  C_11
REMARK                            x       y       z     vdW  Elec       q    Type
REMARK                         _______ _______ _______ _____ _____    ______ ____
ROOT
ATOM      1  C   UNL     1       1.520   8.415  20.156  0.00  0.00    +0.000 A 
ATOM      2  C   UNL     1       0.752   9.357  19.474  0.00  0.00    +0.000 A 
ATOM      3  C   UNL     1      -0.054  10.254  20.161  0.00  0.00    +0.000 A 
ATOM      4  C   UNL     1      -0.131  10.211  21.547  0.00  0.00    +0.000 A 
ATOM      5  C   UNL     1       0.642   9.279  22.244  0.00  0.00    +0.000 A 
ATOM      6  C   UNL     1       1.449   8.367  21.549  0.00  0.00    +0.000 A 
ENDROOT
BRANCH   1   9
ATOM      7  O   UNL     1       1.628   5.528  20.485  0.00  0.00    +0.000 OA
ATOM      8  C   UNL     1       2.369   6.147  19.728  0.00  0.00    +0.000 C 
ATOM      9  N   UNL     1       2.358   7.505  19.487  0.00  0.00    +0.000 N 
ATOM     10  H   UNL     1       2.891   7.856  18.703  0.00  0.00    +0.000 HD
BRANCH   8  11
ATOM     11  C   UNL     1       3.359   5.352  18.981  0.00  0.00    +0.000 A 
ATOM     12  C   UNL     1       3.118   4.894  17.668  0.00  0.00    +0.000 A 
ATOM     13  C   UNL     1       4.177   4.398  16.900  0.00  0.00    +0.000 A 
ATOM     14  C   UNL     1       5.435   4.427  17.465  0.00  0.00    +0.000 A 
ATOM     15  C   UNL     1       5.648   4.826  18.767  0.00  0.00    +0.000 A 
ATOM     16  C   UNL     1       4.628   5.262  19.565  0.00  0.00    +0.000 A 
ATOM     17  O   UNL     1       6.969   4.866  19.090  0.00  0.00    +0.000 OA
ATOM     18  C   UNL     1       7.523   4.804  17.763  0.00  0.00    +0.000 C 
ATOM     19  O   UNL     1       6.613   4.196  16.819  0.00  0.00    +0.000 OA
ENDBRANCH   8  11
ENDBRANCH   1   9
BRANCH   4  20
ATOM     20  N   UNL     1      -0.977  11.065  22.269  0.00  0.00    +0.000 N 
ATOM     21  C   UNL     1      -0.774  12.409  22.507  0.00  0.00    +0.000 C 
ATOM     22  O   UNL     1       0.178  13.074  22.113  0.00  0.00    +0.000 OA
ATOM     23  H   UNL     1      -1.861  10.697  22.592  0.00  0.00    +0.000 HD
BRANCH  21  24
ATOM     24  C   UNL     1      -1.829  13.027  23.277  0.00  0.00    +0.000 A 
ATOM     25  C   UNL     1      -3.124  12.605  23.505  0.00  0.00    +0.000 A 
ATOM     26  C   UNL     1      -3.717  13.572  24.345  0.00  0.00    +0.000 A 
ATOM     27  C   UNL     1      -2.753  14.527  24.569  0.00  0.00    +0.000 A 
ATOM     28  O   UNL     1      -1.599  14.204  23.931  0.00  0.00    +0.000 OA
ENDBRANCH  21  24
ENDBRANCH   4  20
TORSDOF 4
ENDMDL
MODEL 2
REMARK VINA RESULT:      -8.0      1.115      1.537
REMARK  Name = 
REMARK  4 active torsions:
REMARK  status: ('A' for Active; 'I' for Inactive)
REMARK    1  A    between atoms: C_2  and  C_18
REMARK    2  A    between atoms: N_3  and  C_4
REMARK    3  A    between atoms: C_7  and  N_8
REMARK    4  A    between atoms: C_9  and  C_11
REMARK                            x       y       z     vdW  Elec       q    Type
REMARK                         _______ _______ _______ _____ _____    ______ ____
ROOT
ATOM      1  C   UNL     1       1.430   8.799  19.836  0.00  0.00    +0.000 A 
ATOM      2  C   UNL     1       1.324   8.551  21.202  0.00  0.00    +0.000 A 
ATOM      3  C   UNL     1       0.394   9.225  21.981  0.00  0.00    +0.000 A 
ATOM      4  C   UNL     1      -0.434  10.186  21.414  0.00  0.00    +0.000 A 
ATOM      5  C   UNL     1      -0.345  10.438  20.042  0.00  0.00    +0.000 A 
ATOM      6  C   UNL     1       0.601   9.762  19.259  0.00  0.00    +0.000 A 
ENDROOT
BRANCH   1   9
ATOM      7  O   UNL     1       2.119   5.975  19.906  0.00  0.00    +0.000 OA
ATOM      8  C   UNL     1       2.646   6.778  19.141  0.00  0.00    +0.000 C 
ATOM      9  N   UNL     1       2.352   8.119  19.019  0.00  0.00    +0.000 N 
ATOM     10  H   UNL     1       2.723   8.620  18.224  0.00  0.00    +0.000 HD
BRANCH   8  11
ATOM     11  C   UNL     1       3.685   6.245  18.243  0.00  0.00    +0.000 A 
ATOM     12  C   UNL     1       3.991   6.850  17.006  0.00  0.00    +0.000 A 
ATOM     13  C   UNL     1       5.160   6.491  16.327  0.00  0.00    +0.000 A 
ATOM     14  C   UNL     1       5.992   5.579  16.940  0.00  0.00    +0.000 A 
ATOM     15  C   UNL     1       5.656   4.955  18.123  0.00  0.00    +0.000 A 
ATOM     16  C   UNL     1       4.494   5.239  18.784  0.00  0.00    +0.000 A 
ATOM     17  O   UNL     1       6.656   4.164  18.597  0.00  0.00    +0.000 OA
ATOM     18  C   UNL     1       7.735   4.660  17.783  0.00  0.00    +0.000 C 
ATOM     19  O   UNL     1       7.261   5.261  16.557  0.00  0.00    +0.000 OA
ENDBRANCH   8  11
ENDBRANCH   1   9
BRANCH   4  20
ATOM     20  N   UNL     1      -1.345  10.926  22.181  0.00  0.00    +0.000 N 
ATOM     21  C   UNL     1      -1.164  12.211  22.652  0.00  0.00    +0.000 C 
ATOM     22  O   UNL     1      -0.176  12.913  22.466  0.00  0.00    +0.000 OA
ATOM     23  H   UNL     1      -2.257  10.527  22.352  0.00  0.00    +0.000 HD
BRANCH  21  24
ATOM     24  C   UNL     1      -2.288  12.715  23.406  0.00  0.00    +0.000 A 
ATOM     25  C   UNL     1      -2.558  13.996  23.845  0.00  0.00    +0.000 A 
ATOM     26  C   UNL     1      -3.801  13.936  24.512  0.00  0.00    +0.000 A 
ATOM     27  C   UNL     1      -4.207  12.624  24.447  0.00  0.00    +0.000 A 
ATOM     28  O   UNL     1      -3.299  11.873  23.772  0.00  0.00    +0.000 OA
ENDBRANCH  21  24
ENDBRANCH   4  20
TORSDOF 4
ENDMDL
MODEL 3
REMARK VINA RESULT:      -7.8      1.346      1.536
REMARK  Name = 
REMARK  4 active torsions:
REMARK  status: ('A' for Active; 'I' for Inactive)
REMARK    1  A    between atoms: C_2  and  C_18
REMARK    2  A    between atoms: N_3  and  C_4
REMARK    3  A    between atoms: C_7  and  N_8
REMARK    4  A    between atoms: C_9  and  C_11
REMARK                            x       y       z     vdW  Elec       q    Type
REMARK                         _______ _______ _______ _____ _____    ______ ____
ROOT
ATOM      1  C   UNL     1       1.741   8.269  19.634  0.00  0.00    +0.000 A 
ATOM      2  C   UNL     1       1.064   9.317  19.015  0.00  0.00    +0.000 A 
ATOM      3  C   UNL     1       0.239  10.163  19.743  0.00  0.00    +0.000 A 
ATOM      4  C   UNL     1       0.050   9.962  21.104  0.00  0.00    +0.000 A 
ATOM      5  C   UNL     1       0.731   8.920  21.740  0.00  0.00    +0.000 A 
ATOM      6  C   UNL     1       1.558   8.061  21.002  0.00  0.00    +0.000 A 
ENDROOT
BRANCH   1   9
ATOM      7  O   UNL     1       1.798   5.362  19.713  0.00  0.00    +0.000 OA
ATOM      8  C   UNL     1       2.580   6.033  19.046  0.00  0.00    +0.000 C 
ATOM      9  N   UNL     1       2.597   7.407  18.925  0.00  0.00    +0.000 N 
ATOM     10  H   UNL     1       3.169   7.816  18.199  0.00  0.00    +0.000 HD
BRANCH   8  11
ATOM     11  C   UNL     1       3.592   5.289  18.276  0.00  0.00    +0.000 A 
ATOM     12  C   UNL     1       3.479   3.905  18.028  0.00  0.00    +0.000 A 
ATOM     13  C   UNL     1       4.296   3.303  17.066  0.00  0.00    +0.000 A 
ATOM     14  C   UNL     1       5.155   4.123  16.363  0.00  0.00    +0.000 A 
ATOM     15  C   UNL     1       5.294   5.463  16.653  0.00  0.00    +0.000 A 
ATOM     16  C   UNL     1       4.554   6.072  17.627  0.00  0.00    +0.000 A 
ATOM     17  O   UNL     1       6.123   6.100  15.783  0.00  0.00    +0.000 OA
ATOM     18  C   UNL     1       6.171   5.099  14.749  0.00  0.00    +0.000 C 
ATOM     19  O   UNL     1       5.869   3.779  15.254  0.00  0.00    +0.000 OA
ENDBRANCH   8  11
ENDBRANCH   1   9
BRANCH   4  20
ATOM     20  N   UNL     1      -0.820  10.762  21.859  0.00  0.00    +0.000 N 
ATOM     21  C   UNL     1      -0.608  12.073  22.232  0.00  0.00    +0.000 C 
ATOM     22  O   UNL     1       0.374  12.752  21.954  0.00  0.00    +0.000 OA
ATOM     23  H   UNL     1      -1.726  10.384  22.099  0.00  0.00    +0.000 HD
BRANCH  21  24
ATOM     24  C   UNL     1      -1.693  12.639  23.001  0.00  0.00    +0.000 A 
ATOM     25  C   UNL     1      -1.827  13.897  23.554  0.00  0.00    +0.000 A 
ATOM     26  C   UNL     1      -3.093  13.927  24.178  0.00  0.00    +0.000 A 
ATOM     27  C   UNL     1      -3.648  12.685  23.976  0.00  0.00    +0.000 A 
ATOM     28  O   UNL     1      -2.810  11.895  23.256  0.00  0.00    +0.000 OA
ENDBRANCH  21  24
ENDBRANCH   4  20
TORSDOF 4
ENDMDL
MODEL 4
REMARK VINA RESULT:      -7.8      1.626      2.052
REMARK  Name = 
REMARK  4 active torsions:
REMARK  status: ('A' for Active; 'I' for Inactive)
REMARK    1  A    between atoms: C_2  and  C_18
REMARK    2  A    between atoms: N_3  and  C_4
REMARK    3  A    between atoms: C_7  and  N_8
REMARK    4  A    between atoms: C_9  and  C_11
REMARK                            x       y       z     vdW  Elec       q    Type
REMARK                         _______ _______ _______ _____ _____    ______ ____
ROOT
ATOM      1  C   UNL     1       1.883   8.248  19.368  0.00  0.00    +0.000 A 
ATOM      2  C   UNL     1       1.530   8.041  20.699  0.00  0.00    +0.000 A 
ATOM      3  C   UNL     1       0.650   8.896  21.346  0.00  0.00    +0.000 A 
ATOM      4  C   UNL     1       0.123   9.997  20.683  0.00  0.00    +0.000 A 
ATOM      5  C   UNL     1       0.460  10.211  19.344  0.00  0.00    +0.000 A 
ATOM      6  C   UNL     1       1.356   9.351  18.694  0.00  0.00    +0.000 A 
ENDROOT
BRANCH   1   9
ATOM      7  O   UNL     1       1.805   5.342  19.266  0.00  0.00    +0.000 OA
ATOM      8  C   UNL     1       2.671   6.012  18.713  0.00  0.00    +0.000 C 
ATOM      9  N   UNL     1       2.759   7.388  18.682  0.00  0.00    +0.000 N 
ATOM     10  H   UNL     1       3.411   7.811  18.035  0.00  0.00    +0.000 HD
BRANCH   8  11
ATOM     11  C   UNL     1       3.714   5.267  17.987  0.00  0.00    +0.000 A 
ATOM     12  C   UNL     1       3.641   3.871  17.791  0.00  0.00    +0.000 A 
ATOM     13  C   UNL     1       4.488   3.255  16.865  0.00  0.00    +0.000 A 
ATOM     14  C   UNL     1       5.336   4.069  16.144  0.00  0.00    +0.000 A 
ATOM     15  C   UNL     1       5.435   5.423  16.383  0.00  0.00    +0.000 A 
ATOM     16  C   UNL     1       4.664   6.049  17.321  0.00  0.00    +0.000 A 
ATOM     17  O   UNL     1       6.260   6.048  15.500  0.00  0.00    +0.000 OA
ATOM     18  C   UNL     1       6.350   5.010  14.507  0.00  0.00    +0.000 C 
ATOM     19  O   UNL     1       6.075   3.702  15.059  0.00  0.00    +0.000 OA
ENDBRANCH   8  11
ENDBRANCH   1   9
BRANCH   4  20
ATOM     20  N   UNL     1      -0.725  10.913  21.322  0.00  0.00    +0.000 N 
ATOM     21  C   UNL     1      -0.851  11.098  22.684  0.00  0.00    +0.000 C 
ATOM     22  O   UNL     1      -0.233  10.494  23.553  0.00  0.00    +0.000 OA
ATOM     23  H   UNL     1      -1.246  11.561  20.748  0.00  0.00    +0.000 HD
BRANCH  21  24
ATOM     24  C   UNL     1      -1.800  12.127  23.043  0.00  0.00    +0.000 A 
ATOM     25  C   UNL     1      -1.588  13.446  23.393  0.00  0.00    +0.000 A 
ATOM     26  C   UNL     1      -2.862  14.008  23.621  0.00  0.00    +0.000 A 
ATOM     27  C   UNL     1      -3.770  12.998  23.408  0.00  0.00    +0.000 A 
ATOM     28  O   UNL     1      -3.138  11.851  23.049  0.00  0.00    +0.000 OA
ENDBRANCH  21  24
ENDBRANCH   4  20
TORSDOF 4
ENDMDL
MODEL 5
REMARK VINA RESULT:      -7.8      1.192      1.602
REMARK  Name = 
REMARK  4 active torsions:
REMARK  status: ('A' for Active; 'I' for Inactive)
REMARK    1  A    between atoms: C_2  and  C_18
REMARK    2  A    between atoms: N_3  and  C_4
REMARK    3  A    between atoms: C_7  and  N_8
REMARK    4  A    between atoms: C_9  and  C_11
REMARK                            x       y       z     vdW  Elec       q    Type
REMARK                         _______ _______ _______ _____ _____    ______ ____
ROOT
ATOM      1  C   UNL     1       1.516   8.486  20.190  0.00  0.00    +0.000 A 
ATOM      2  C   UNL     1       1.486   8.440  21.581  0.00  0.00    +0.000 A 
ATOM      3  C   UNL     1       0.617   9.245  22.305  0.00  0.00    +0.000 A 
ATOM      4  C   UNL     1      -0.224  10.136  21.651  0.00  0.00    +0.000 A 
ATOM      5  C   UNL     1      -0.211  10.186  20.254  0.00  0.00    +0.000 A 
ATOM      6  C   UNL     1       0.673   9.378  19.526  0.00  0.00    +0.000 A 
ENDROOT
BRANCH   1   9
ATOM      7  O   UNL     1       1.628   5.580  20.148  0.00  0.00    +0.000 OA
ATOM      8  C   UNL     1       2.385   6.292  19.496  0.00  0.00    +0.000 C 
ATOM      9  N   UNL     1       2.374   7.670  19.431  0.00  0.00    +0.000 N 
ATOM     10  H   UNL     1       2.925   8.119  18.712  0.00  0.00    +0.000 HD
BRANCH   8  11
ATOM     11  C   UNL     1       3.396   5.600  18.678  0.00  0.00    +0.000 A 
ATOM     12  C   UNL     1       3.431   4.195  18.558  0.00  0.00    +0.000 A 
ATOM     13  C   UNL     1       4.213   3.602  17.561  0.00  0.00    +0.000 A 
ATOM     14  C   UNL     1       4.884   4.445  16.699  0.00  0.00    +0.000 A 
ATOM     15  C   UNL     1       4.884   5.813  16.861  0.00  0.00    +0.000 A 
ATOM     16  C   UNL     1       4.179   6.423  17.860  0.00  0.00    +0.000 A 
ATOM     17  O   UNL     1       5.531   6.456  15.851  0.00  0.00    +0.000 OA
ATOM     18  C   UNL     1       5.595   5.374  14.905  0.00  0.00    +0.000 C 
ATOM     19  O   UNL     1       5.516   4.082  15.548  0.00  0.00    +0.000 OA
ENDBRANCH   8  11
ENDBRANCH   1   9
BRANCH   4  20
ATOM     20  N   UNL     1      -1.073  11.005  22.351  0.00  0.00    +0.000 N 
ATOM     21  C   UNL     1      -0.857  12.347  22.586  0.00  0.00    +0.000 C 
ATOM     22  O   UNL     1       0.112  12.997  22.211  0.00  0.00    +0.000 OA
ATOM     23  H   UNL     1      -1.969  10.651  22.656  0.00  0.00    +0.000 HD
BRANCH  21  24
ATOM     24  C   UNL     1      -1.920  12.983  23.330  0.00  0.00    +0.000 A 
ATOM     25  C   UNL     1      -3.214  12.561  23.566  0.00  0.00    +0.000 A 
ATOM     26  C   UNL     1      -3.817  13.551  24.371  0.00  0.00    +0.000 A 
ATOM     27  C   UNL     1      -2.861  14.519  24.568  0.00  0.00    +0.000 A 
ATOM     28  O   UNL     1      -1.702  14.183  23.946  0.00  0.00    +0.000 OA
ENDBRANCH  21  24
ENDBRANCH   4  20
TORSDOF 4
ENDMDL
MODEL 6
REMARK VINA RESULT:      -7.8      1.645     10.502
REMARK  Name = 
REMARK  4 active torsions:
REMARK  status: ('A' for Active; 'I' for Inactive)
REMARK    1  A    between atoms: C_2  and  C_18
REMARK    2  A    between atoms: N_3  and  C_4
REMARK    3  A    between atoms: C_7  and  N_8
REMARK    4  A    between atoms: C_9  and  C_11
REMARK                            x       y       z     vdW  Elec       q    Type
REMARK                         _______ _______ _______ _____ _____    ______ ____
ROOT
ATOM      1  C   UNL     1       0.431   9.719  20.595  0.00  0.00    +0.000 A 
ATOM      2  C   UNL     1       0.641   9.966  19.241  0.00  0.00    +0.000 A 
ATOM      3  C   UNL     1       1.441   9.128  18.477  0.00  0.00    +0.000 A 
ATOM      4  C   UNL     1       2.073   8.037  19.059  0.00  0.00    +0.000 A 
ATOM      5  C   UNL     1       1.863   7.772  20.416  0.00  0.00    +0.000 A 
ATOM      6  C   UNL     1       1.061   8.624  21.187  0.00  0.00    +0.000 A 
ENDROOT
BRANCH   1   9
ATOM      7  O   UNL     1       0.967  12.438  21.479  0.00  0.00    +0.000 OA
ATOM      8  C   UNL     1      -0.042  11.814  21.794  0.00  0.00    +0.000 C 
ATOM      9  N   UNL     1      -0.388  10.542  21.390  0.00  0.00    +0.000 N 
ATOM     10  H   UNL     1      -1.331  10.224  21.568  0.00  0.00    +0.000 HD
BRANCH   8  11
ATOM     11  C   UNL     1      -0.994  12.509  22.678  0.00  0.00    +0.000 A 
ATOM     12  C   UNL     1      -0.911  13.895  22.930  0.00  0.00    +0.000 A 
ATOM     13  C   UNL     1      -1.986  14.557  23.533  0.00  0.00    +0.000 A 
ATOM     14  C   UNL     1      -3.112  13.810  23.812  0.00  0.00    +0.000 A 
ATOM     15  C   UNL     1      -3.159  12.448  23.611  0.00  0.00    +0.000 A 
ATOM     16  C   UNL     1      -2.106  11.759  23.077  0.00  0.00    +0.000 A 
ATOM     17  O   UNL     1      -4.390  11.926  23.865  0.00  0.00    +0.000 OA
ATOM     18  C   UNL     1      -5.149  13.149  23.884  0.00  0.00    +0.000 C 
ATOM     19  O   UNL     1      -4.326  14.297  24.194  0.00  0.00    +0.000 OA
ENDBRANCH   8  11
ENDBRANCH   1   9
BRANCH   4  20
ATOM     20  N   UNL     1       2.933   7.202  18.332  0.00  0.00    +0.000 N 
ATOM     21  C   UNL     1       2.781   5.845  18.134  0.00  0.00    +0.000 C 
ATOM     22  O   UNL     1       1.861   5.154  18.557  0.00  0.00    +0.000 OA
ATOM     23  H   UNL     1       3.702   7.628  17.835  0.00  0.00    +0.000 HD
BRANCH  21  24
ATOM     24  C   UNL     1       3.826   5.256  17.328  0.00  0.00    +0.000 A 
ATOM     25  C   UNL     1       4.142   3.929  17.117  0.00  0.00    +0.000 A 
ATOM     26  C   UNL     1       5.236   3.915  16.225  0.00  0.00    +0.000 A 
ATOM     27  C   UNL     1       5.526   5.232  15.956  0.00  0.00    +0.000 A 
ATOM     28  O   UNL     1       4.672   6.057  16.615  0.00  0.00    +0.000 OA
ENDBRANCH  21  24
ENDBRANCH   4  20
TORSDOF 4
ENDMDL
MODEL 7
REMARK VINA RESULT:      -7.7      1.793      2.086
REMARK  Name = 
REMARK  4 active torsions:
REMARK  status: ('A' for Active; 'I' for Inactive)
REMARK    1  A    between atoms: C_2  and  C_18
REMARK    2  A    between atoms: N_3  and  C_4
REMARK    3  A    between atoms: C_7  and  N_8
REMARK    4  A    between atoms: C_9  and  C_11
REMARK                            x       y       z     vdW  Elec       q    Type
REMARK                         _______ _______ _______ _____ _____    ______ ____
ROOT
ATOM      1  C   UNL     1       1.995   8.223  18.895  0.00  0.00    +0.000 A 
ATOM      2  C   UNL     1       1.359   9.241  18.190  0.00  0.00    +0.000 A 
ATOM      3  C   UNL     1       0.428  10.065  18.808  0.00  0.00    +0.000 A 
ATOM      4  C   UNL     1       0.092   9.869  20.141  0.00  0.00    +0.000 A 
ATOM      5  C   UNL     1       0.730   8.857  20.863  0.00  0.00    +0.000 A 
ATOM      6  C   UNL     1       1.663   8.021  20.236  0.00  0.00    +0.000 A 
ENDROOT
BRANCH   1   9
ATOM      7  O   UNL     1       1.719   5.407  18.218  0.00  0.00    +0.000 OA
ATOM      8  C   UNL     1       2.753   6.044  18.042  0.00  0.00    +0.000 C 
ATOM      9  N   UNL     1       2.955   7.384  18.299  0.00  0.00    +0.000 N 
ATOM     10  H   UNL     1       3.788   7.821  17.932  0.00  0.00    +0.000 HD
BRANCH   8  11
ATOM     11  C   UNL     1       3.892   5.302  17.472  0.00  0.00    +0.000 A 
ATOM     12  C   UNL     1       3.968   3.894  17.517  0.00  0.00    +0.000 A 
ATOM     13  C   UNL     1       4.907   3.224  16.725  0.00  0.00    +0.000 A 
ATOM     14  C   UNL     1       5.691   3.991  15.889  0.00  0.00    +0.000 A 
ATOM     15  C   UNL     1       5.643   5.369  15.895  0.00  0.00    +0.000 A 
ATOM     16  C   UNL     1       4.780   6.058  16.698  0.00  0.00    +0.000 A 
ATOM     17  O   UNL     1       6.430   5.921  14.932  0.00  0.00    +0.000 OA
ATOM     18  C   UNL     1       6.661   4.745  14.134  0.00  0.00    +0.000 C 
ATOM     19  O   UNL     1       6.502   3.528  14.897  0.00  0.00    +0.000 OA
ENDBRANCH   8  11
ENDBRANCH   1   9
BRANCH   4  20
ATOM     20  N   UNL     1      -0.885  10.645  20.781  0.00  0.00    +0.000 N 
ATOM     21  C   UNL     1      -0.660  11.760  21.564  0.00  0.00    +0.000 C 
ATOM     22  O   UNL     1       0.432  12.254  21.815  0.00  0.00    +0.000 OA
ATOM     23  H   UNL     1      -1.856  10.429  20.605  0.00  0.00    +0.000 HD
BRANCH  21  24
ATOM     24  C   UNL     1      -1.870  12.357  22.081  0.00  0.00    +0.000 A 
ATOM     25  C   UNL     1      -2.288  12.524  23.387  0.00  0.00    +0.000 A 
ATOM     26  C   UNL     1      -3.532  13.187  23.326  0.00  0.00    +0.000 A 
ATOM     27  C   UNL     1      -3.802  13.375  21.991  0.00  0.00    +0.000 A 
ATOM     28  O   UNL     1      -2.795  12.881  21.224  0.00  0.00    +0.000 OA
ENDBRANCH  21  24
ENDBRANCH   4  20
TORSDOF 4
ENDMDL
MODEL 8
REMARK VINA RESULT:      -7.7      1.571      1.669
REMARK  Name = 
REMARK  4 active torsions:
REMARK  status: ('A' for Active; 'I' for Inactive)
REMARK    1  A    between atoms: C_2  and  C_18
REMARK    2  A    between atoms: N_3  and  C_4
REMARK    3  A    between atoms: C_7  and  N_8
REMARK    4  A    between atoms: C_9  and  C_11
REMARK                            x       y       z     vdW  Elec       q    Type
REMARK                         _______ _______ _______ _____ _____    ______ ____
ROOT
ATOM      1  C   UNL     1       1.326   8.538  20.414  0.00  0.00    +0.000 A 
ATOM      2  C   UNL     1       0.677   9.536  19.692  0.00  0.00    +0.000 A 
ATOM      3  C   UNL     1      -0.143  10.459  20.325  0.00  0.00    +0.000 A 
ATOM      4  C   UNL     1      -0.354  10.387  21.696  0.00  0.00    +0.000 A 
ATOM      5  C   UNL     1       0.298   9.397  22.435  0.00  0.00    +0.000 A 
ATOM      6  C   UNL     1       1.119   8.460  21.792  0.00  0.00    +0.000 A 
ENDROOT
BRANCH   1   9
ATOM      7  O   UNL     1       2.264   8.523  17.661  0.00  0.00    +0.000 OA
ATOM      8  C   UNL     1       2.547   7.648  18.474  0.00  0.00    +0.000 C 
ATOM      9  N   UNL     1       2.175   7.599  19.801  0.00  0.00    +0.000 N 
ATOM     10  H   UNL     1       2.631   6.926  20.401  0.00  0.00    +0.000 HD
BRANCH   8  11
ATOM     11  C   UNL     1       3.391   6.544  17.983  0.00  0.00    +0.000 A 
ATOM     12  C   UNL     1       2.994   5.194  18.080  0.00  0.00    +0.000 A 
ATOM     13  C   UNL     1       3.680   4.214  17.356  0.00  0.00    +0.000 A 
ATOM     14  C   UNL     1       4.701   4.637  16.531  0.00  0.00    +0.000 A 
ATOM     15  C   UNL     1       5.114   5.951  16.486  0.00  0.00    +0.000 A 
ATOM     16  C   UNL     1       4.504   6.926  17.225  0.00  0.00    +0.000 A 
ATOM     17  O   UNL     1       6.070   6.165  15.542  0.00  0.00    +0.000 OA
ATOM     18  C   UNL     1       5.921   4.943  14.796  0.00  0.00    +0.000 C 
ATOM     19  O   UNL     1       5.343   3.885  15.593  0.00  0.00    +0.000 OA
ENDBRANCH   8  11
ENDBRANCH   1   9
BRANCH   4  20
ATOM     20  N   UNL     1      -1.220  11.267  22.361  0.00  0.00    +0.000 N 
ATOM     21  C   UNL     1      -0.939  12.567  22.730  0.00  0.00    +0.000 C 
ATOM     22  O   UNL     1       0.113  13.162  22.526  0.00  0.00    +0.000 OA
ATOM     23  H   UNL     1      -2.170  10.966  22.528  0.00  0.00    +0.000 HD
BRANCH  21  24
ATOM     24  C   UNL     1      -2.038  13.231  23.394  0.00  0.00    +0.000 A 
ATOM     25  C   UNL     1      -3.325  12.792  23.633  0.00  0.00    +0.000 A 
ATOM     26  C   UNL     1      -3.975  13.826  24.339  0.00  0.00    +0.000 A 
ATOM     27  C   UNL     1      -3.051  14.835  24.478  0.00  0.00    +0.000 A 
ATOM     28  O   UNL     1      -1.867  14.482  23.914  0.00  0.00    +0.000 OA
ENDBRANCH  21  24
ENDBRANCH   4  20
TORSDOF 4
ENDMDL
MODEL 9
REMARK VINA RESULT:      -7.6      7.039     10.244
REMARK  Name = 
REMARK  4 active torsions:
REMARK  status: ('A' for Active; 'I' for Inactive)
REMARK    1  A    between atoms: C_2  and  C_18
REMARK    2  A    between atoms: N_3  and  C_4
REMARK    3  A    between atoms: C_7  and  N_8
REMARK    4  A    between atoms: C_9  and  C_11
REMARK                            x       y       z     vdW  Elec       q    Type
REMARK                         _______ _______ _______ _____ _____    ______ ____
ROOT
ATOM      1  C   UNL     1       7.962   8.407  17.898  0.00  0.00    +0.000 A 
ATOM      2  C   UNL     1       8.348   7.305  18.657  0.00  0.00    +0.000 A 
ATOM      3  C   UNL     1       7.558   6.166  18.716  0.00  0.00    +0.000 A 
ATOM      4  C   UNL     1       6.347   6.114  18.038  0.00  0.00    +0.000 A 
ATOM      5  C   UNL     1       5.952   7.208  17.264  0.00  0.00    +0.000 A 
ATOM      6  C   UNL     1       6.747   8.362  17.212  0.00  0.00    +0.000 A 
ENDROOT
BRANCH   1   9
ATOM      7  O   UNL     1       8.936  10.070  20.076  0.00  0.00    +0.000 OA
ATOM      8  C   UNL     1       9.143  10.321  18.892  0.00  0.00    +0.000 C 
ATOM      9  N   UNL     1       8.750   9.568  17.806  0.00  0.00    +0.000 N 
ATOM     10  H   UNL     1       9.148   9.787  16.903  0.00  0.00    +0.000 HD
BRANCH   8  11
ATOM     11  C   UNL     1       9.913  11.544  18.605  0.00  0.00    +0.000 A 
ATOM     12  C   UNL     1      11.017  11.547  17.727  0.00  0.00    +0.000 A 
ATOM     13  C   UNL     1      11.534  12.762  17.266  0.00  0.00    +0.000 A 
ATOM     14  C   UNL     1      10.891  13.915  17.665  0.00  0.00    +0.000 A 
ATOM     15  C   UNL     1       9.847  13.901  18.565  0.00  0.00    +0.000 A 
ATOM     16  C   UNL     1       9.355  12.736  19.082  0.00  0.00    +0.000 A 
ATOM     17  O   UNL     1       9.302  15.134  18.749  0.00  0.00    +0.000 OA
ATOM     18  C   UNL     1       9.879  15.803  17.612  0.00  0.00    +0.000 C 
ATOM     19  O   UNL     1      11.097  15.166  17.165  0.00  0.00    +0.000 OA
ENDBRANCH   8  11
ENDBRANCH   1   9
BRANCH   4  20
ATOM     20  N   UNL     1       5.497   5.001  18.121  0.00  0.00    +0.000 N 
ATOM     21  C   UNL     1       4.327   4.918  18.849  0.00  0.00    +0.000 C 
ATOM     22  O   UNL     1       3.840   5.811  19.533  0.00  0.00    +0.000 OA
ATOM     23  H   UNL     1       5.704   4.200  17.541  0.00  0.00    +0.000 HD
BRANCH  21  24
ATOM     24  C   UNL     1       3.660   3.642  18.729  0.00  0.00    +0.000 A 
ATOM     25  C   UNL     1       2.319   3.354  18.569  0.00  0.00    +0.000 A 
ATOM     26  C   UNL     1       2.220   1.949  18.482  0.00  0.00    +0.000 A 
ATOM     27  C   UNL     1       3.502   1.466  18.604  0.00  0.00    +0.000 A 
ATOM     28  O   UNL     1       4.387   2.486  18.748  0.00  0.00    +0.000 OA
ENDBRANCH  21  24
ENDBRANCH   4  20
TORSDOF 4
ENDMDL
