MODEL 1
REMARK VINA RESULT:      -7.5      0.000      0.000
REMARK  Name = 
REMARK  8 active torsions:
REMARK  status: ('A' for Active; 'I' for Inactive)
REMARK    1  A    between atoms: C_1  and  C_2
REMARK    2  A    between atoms: C_2  and  O_3
REMARK    3  A    between atoms: O_3  and  C_4
REMARK    4  A    between atoms: C_10  and  C_12
REMARK    5  A    between atoms: C_12  and  N_13
REMARK    6  A    between atoms: C_12  and  C_26
REMARK    7  A    between atoms: N_13  and  S_14
REMARK    8  A    between atoms: S_14  and  C_17
REMARK                            x       y       z     vdW  Elec       q    Type
REMARK                         _______ _______ _______ _____ _____    ______ ____
ROOT
ATOM      1  C   UNL     1       0.210  10.294  19.193  0.00  0.00    +0.000 C 
ENDROOT
BRANCH   1   8
ATOM      2  C   UNL     1       2.271   4.315  20.099  0.00  0.00    +0.000 C 
ATOM      3  O   UNL     1       1.928   3.866  21.185  0.00  0.00    +0.000 OA
ATOM      4  N   UNL     1       2.118   5.638  19.729  0.00  0.00    +0.000 N 
ATOM      5  C   UNL     1       1.287   6.513  20.556  0.00  0.00    +0.000 C 
ATOM      6  C   UNL     1       1.750   7.980  20.530  0.00  0.00    +0.000 C 
ATOM      7  N   UNL     1       1.972   8.433  19.157  0.00  0.00    +0.000 N 
ATOM      8  C   UNL     1       1.318   9.459  18.479  0.00  0.00    +0.000 C 
ATOM      9  O   UNL     1       1.569   9.614  17.280  0.00  0.00    +0.000 OA
ATOM     10  C   UNL     1       2.929   7.596  18.419  0.00  0.00    +0.000 C 
ATOM     11  C   UNL     1       2.474   6.130  18.392  0.00  0.00    +0.000 C 
BRANCH   2  12
ATOM     12  O   UNL     1       2.896   3.585  19.137  0.00  0.00    +0.000 OA
BRANCH  12  14
ATOM     13  C   UNL     1       3.615   1.404  18.505  0.00  0.00    +0.000 C 
ATOM     14  C   UNL     1       3.647   2.456  19.599  0.00  0.00    +0.000 C 
ENDBRANCH  12  14
ENDBRANCH   2  12
ENDBRANCH   1   8
BRANCH   1  15
ATOM     15  C   UNL     1      -1.129  10.393  18.446  0.00  0.00    +0.000 A 
ATOM     16  C   UNL     1      -2.099  11.319  18.873  0.00  0.00    +0.000 A 
ATOM     17  C   UNL     1      -3.279  11.515  18.145  0.00  0.00    +0.000 A 
ATOM     18  C   UNL     1      -3.511  10.793  16.976  0.00  0.00    +0.000 A 
ATOM     19  C   UNL     1      -2.571   9.869  16.542  0.00  0.00    +0.000 A 
ATOM     20  C   UNL     1      -1.391   9.679  17.265  0.00  0.00    +0.000 A 
ENDBRANCH   1  15
BRANCH   1  21
ATOM     21  N   UNL     1       0.600  11.606  19.726  0.00  0.00    +0.000 NA
ATOM     22  H   UNL     1       0.676  12.408  19.107  0.00  0.00    +0.000 HD
BRANCH  21  23
ATOM     23  S   UNL     1       0.741  11.954  21.340  0.00  0.00    +0.000 S 
ATOM     24  O   UNL     1       1.040  10.701  21.999  0.00  0.00    +0.000 OA
ATOM     25  O   UNL     1       1.668  13.067  21.443  0.00  0.00    +0.000 OA
BRANCH  23  26
ATOM     26  C   UNL     1      -0.826  12.495  21.921  0.00  0.00    +0.000 A 
ATOM     27  C   UNL     1      -1.528  11.706  22.866  0.00  0.00    +0.000 A 
ATOM     28  C   UNL     1      -2.759  12.092  23.447  0.00  0.00    +0.000 A 
ATOM     29  C   UNL     1      -3.411  13.291  23.122  0.00  0.00    +0.000 A 
ATOM     30  C   UNL     1      -2.768  14.113  22.162  0.00  0.00    +0.000 A 
ATOM     31  N   UNL     1      -3.231  15.294  21.724  0.00  0.00    +0.000 NA
ATOM     32  S   UNL     1      -2.120  15.853  20.627  0.00  0.00    +0.000 S 
ATOM     33  N   UNL     1      -0.997  14.630  20.660  0.00  0.00    +0.000 NA
ATOM     34  C   UNL     1      -1.440  13.711  21.537  0.00  0.00    +0.000 A 
ENDBRANCH  23  26
ENDBRANCH  21  23
ENDBRANCH   1  21
TORSDOF 7
ENDMDL
MODEL 2
REMARK VINA RESULT:      -7.4      2.750      4.754
REMARK  Name = 
REMARK  8 active torsions:
REMARK  status: ('A' for Active; 'I' for Inactive)
REMARK    1  A    between atoms: C_1  and  C_2
REMARK    2  A    between atoms: C_2  and  O_3
REMARK    3  A    between atoms: O_3  and  C_4
REMARK    4  A    between atoms: C_10  and  C_12
REMARK    5  A    between atoms: C_12  and  N_13
REMARK    6  A    between atoms: C_12  and  C_26
REMARK    7  A    between atoms: N_13  and  S_14
REMARK    8  A    between atoms: S_14  and  C_17
REMARK                            x       y       z     vdW  Elec       q    Type
REMARK                         _______ _______ _______ _____ _____    ______ ____
ROOT
ATOM      1  C   UNL     1      -1.082  12.542  21.953  0.00  0.00    +0.000 C 
ENDROOT
BRANCH   1   8
ATOM      2  C   UNL     1       2.162   8.312  18.432  0.00  0.00    +0.000 C 
ATOM      3  O   UNL     1       2.216   8.635  17.252  0.00  0.00    +0.000 OA
ATOM      4  N   UNL     1       1.371   8.949  19.370  0.00  0.00    +0.000 N 
ATOM      5  C   UNL     1       0.746  10.224  19.021  0.00  0.00    +0.000 C 
ATOM      6  C   UNL     1      -0.596  10.450  19.738  0.00  0.00    +0.000 C 
ATOM      7  N   UNL     1      -0.474  10.178  21.171  0.00  0.00    +0.000 N 
ATOM      8  C   UNL     1      -0.667  11.063  22.228  0.00  0.00    +0.000 C 
ATOM      9  O   UNL     1      -0.403  10.670  23.370  0.00  0.00    +0.000 OA
ATOM     10  C   UNL     1       0.024   8.826  21.462  0.00  0.00    +0.000 C 
ATOM     11  C   UNL     1       1.383   8.582  20.792  0.00  0.00    +0.000 C 
BRANCH   2  12
ATOM     12  O   UNL     1       2.831   7.253  18.962  0.00  0.00    +0.000 OA
BRANCH  12  14
ATOM     13  C   UNL     1       3.816   5.602  17.557  0.00  0.00    +0.000 C 
ATOM     14  C   UNL     1       2.578   5.984  18.347  0.00  0.00    +0.000 C 
ENDBRANCH  12  14
ENDBRANCH   2  12
ENDBRANCH   1   8
BRANCH   1  15
ATOM     15  C   UNL     1      -2.584  12.777  21.730  0.00  0.00    +0.000 A 
ATOM     16  C   UNL     1      -3.090  12.857  20.419  0.00  0.00    +0.000 A 
ATOM     17  C   UNL     1      -4.467  12.954  20.183  0.00  0.00    +0.000 A 
ATOM     18  C   UNL     1      -5.363  12.972  21.249  0.00  0.00    +0.000 A 
ATOM     19  C   UNL     1      -4.884  12.902  22.550  0.00  0.00    +0.000 A 
ATOM     20  C   UNL     1      -3.512  12.798  22.785  0.00  0.00    +0.000 A 
ENDBRANCH   1  15
BRANCH   1  21
ATOM     21  N   UNL     1      -0.292  13.285  20.962  0.00  0.00    +0.000 NA
ATOM     22  H   UNL     1      -0.708  13.554  20.074  0.00  0.00    +0.000 HD
BRANCH  21  23
ATOM     23  S   UNL     1       1.211  13.920  21.251  0.00  0.00    +0.000 S 
ATOM     24  O   UNL     1       1.114  14.628  22.509  0.00  0.00    +0.000 OA
ATOM     25  O   UNL     1       2.156  12.828  21.103  0.00  0.00    +0.000 OA
BRANCH  23  26
ATOM     26  C   UNL     1       1.551  15.107  20.002  0.00  0.00    +0.000 A 
ATOM     27  C   UNL     1       2.833  15.134  19.398  0.00  0.00    +0.000 A 
ATOM     28  C   UNL     1       3.179  16.001  18.336  0.00  0.00    +0.000 A 
ATOM     29  C   UNL     1       2.283  16.935  17.793  0.00  0.00    +0.000 A 
ATOM     30  C   UNL     1       0.991  16.972  18.372  0.00  0.00    +0.000 A 
ATOM     31  N   UNL     1      -0.002  17.791  17.992  0.00  0.00    +0.000 NA
ATOM     32  S   UNL     1      -1.297  17.438  18.965  0.00  0.00    +0.000 S 
ATOM     33  N   UNL     1      -0.665  16.228  19.910  0.00  0.00    +0.000 NA
ATOM     34  C   UNL     1       0.605  16.039  19.511  0.00  0.00    +0.000 A 
ENDBRANCH  23  26
ENDBRANCH  21  23
ENDBRANCH   1  21
TORSDOF 7
ENDMDL
MODEL 3
REMARK VINA RESULT:      -7.4      3.829      9.642
REMARK  Name = 
REMARK  8 active torsions:
REMARK  status: ('A' for Active; 'I' for Inactive)
REMARK    1  A    between atoms: C_1  and  C_2
REMARK    2  A    between atoms: C_2  and  O_3
REMARK    3  A    between atoms: O_3  and  C_4
REMARK    4  A    between atoms: C_10  and  C_12
REMARK    5  A    between atoms: C_12  and  N_13
REMARK    6  A    between atoms: C_12  and  C_26
REMARK    7  A    between atoms: N_13  and  S_14
REMARK    8  A    between atoms: S_14  and  C_17
REMARK                            x       y       z     vdW  Elec       q    Type
REMARK                         _______ _______ _______ _____ _____    ______ ____
ROOT
ATOM      1  C   UNL     1       1.863   6.723  19.965  0.00  0.00    +0.000 C 
ENDROOT
BRANCH   1   8
ATOM      2  C   UNL     1      -1.715  11.869  18.731  0.00  0.00    +0.000 C 
ATOM      3  O   UNL     1      -1.766  12.122  17.534  0.00  0.00    +0.000 OA
ATOM      4  N   UNL     1      -0.868  10.927  19.284  0.00  0.00    +0.000 N 
ATOM      5  C   UNL     1      -0.164  10.000  18.398  0.00  0.00    +0.000 C 
ATOM      6  C   UNL     1       1.201   9.560  18.953  0.00  0.00    +0.000 C 
ATOM      7  N   UNL     1       1.085   9.134  20.348  0.00  0.00    +0.000 N 
ATOM      8  C   UNL     1       1.355   7.877  20.883  0.00  0.00    +0.000 C 
ATOM      9  O   UNL     1       1.083   7.683  22.073  0.00  0.00    +0.000 OA
ATOM     10  C   UNL     1       0.502  10.164  21.220  0.00  0.00    +0.000 C 
ATOM     11  C   UNL     1      -0.881  10.597  20.715  0.00  0.00    +0.000 C 
BRANCH   2  12
ATOM     12  O   UNL     1      -2.445  12.517  19.677  0.00  0.00    +0.000 OA
BRANCH  12  14
ATOM     13  C   UNL     1      -4.468  12.820  20.898  0.00  0.00    +0.000 C 
ATOM     14  C   UNL     1      -3.867  12.370  19.579  0.00  0.00    +0.000 C 
ENDBRANCH  12  14
ENDBRANCH   2  12
ENDBRANCH   1   8
BRANCH   1  15
ATOM     15  C   UNL     1       1.668   5.303  20.519  0.00  0.00    +0.000 A 
ATOM     16  C   UNL     1       0.667   4.474  19.978  0.00  0.00    +0.000 A 
ATOM     17  C   UNL     1       0.542   3.139  20.380  0.00  0.00    +0.000 A 
ATOM     18  C   UNL     1       1.413   2.606  21.327  0.00  0.00    +0.000 A 
ATOM     19  C   UNL     1       2.401   3.408  21.880  0.00  0.00    +0.000 A 
ATOM     20  C   UNL     1       2.531   4.737  21.473  0.00  0.00    +0.000 A 
ENDBRANCH   1  15
BRANCH   1  21
ATOM     21  N   UNL     1       3.205   6.869  19.387  0.00  0.00    +0.000 NA
ATOM     22  H   UNL     1       3.999   7.086  19.984  0.00  0.00    +0.000 HD
BRANCH  21  23
ATOM     23  S   UNL     1       3.591   6.504  17.817  0.00  0.00    +0.000 S 
ATOM     24  O   UNL     1       2.700   5.436  17.421  0.00  0.00    +0.000 OA
ATOM     25  O   UNL     1       3.588   7.760  17.089  0.00  0.00    +0.000 OA
BRANCH  23  26
ATOM     26  C   UNL     1       5.227   5.863  17.792  0.00  0.00    +0.000 A 
ATOM     27  C   UNL     1       5.939   5.727  19.010  0.00  0.00    +0.000 A 
ATOM     28  C   UNL     1       7.230   5.156  19.102  0.00  0.00    +0.000 A 
ATOM     29  C   UNL     1       7.935   4.687  17.983  0.00  0.00    +0.000 A 
ATOM     30  C   UNL     1       7.283   4.818  16.732  0.00  0.00    +0.000 A 
ATOM     31  N   UNL     1       7.791   4.429  15.553  0.00  0.00    +0.000 NA
ATOM     32  S   UNL     1       6.646   4.790  14.408  0.00  0.00    +0.000 S 
ATOM     33  N   UNL     1       5.451   5.451  15.352  0.00  0.00    +0.000 NA
ATOM     34  C   UNL     1       5.892   5.425  16.623  0.00  0.00    +0.000 A 
ENDBRANCH  23  26
ENDBRANCH  21  23
ENDBRANCH   1  21
TORSDOF 7
ENDMDL
MODEL 4
REMARK VINA RESULT:      -7.4      2.889      4.964
REMARK  Name = 
REMARK  8 active torsions:
REMARK  status: ('A' for Active; 'I' for Inactive)
REMARK    1  A    between atoms: C_1  and  C_2
REMARK    2  A    between atoms: C_2  and  O_3
REMARK    3  A    between atoms: O_3  and  C_4
REMARK    4  A    between atoms: C_10  and  C_12
REMARK    5  A    between atoms: C_12  and  N_13
REMARK    6  A    between atoms: C_12  and  C_26
REMARK    7  A    between atoms: N_13  and  S_14
REMARK    8  A    between atoms: S_14  and  C_17
REMARK                            x       y       z     vdW  Elec       q    Type
REMARK                         _______ _______ _______ _____ _____    ______ ____
ROOT
ATOM      1  C   UNL     1      -0.822  12.282  22.275  0.00  0.00    +0.000 C 
ENDROOT
BRANCH   1   8
ATOM      2  C   UNL     1       2.220   8.182  18.434  0.00  0.00    +0.000 C 
ATOM      3  O   UNL     1       2.287   8.590  17.282  0.00  0.00    +0.000 OA
ATOM      4  N   UNL     1       1.459   8.782  19.420  0.00  0.00    +0.000 N 
ATOM      5  C   UNL     1       0.894  10.108  19.170  0.00  0.00    +0.000 C 
ATOM      6  C   UNL     1      -0.435  10.342  19.908  0.00  0.00    +0.000 C 
ATOM      7  N   UNL     1      -0.326   9.958  21.316  0.00  0.00    +0.000 N 
ATOM      8  C   UNL     1      -0.477  10.769  22.437  0.00  0.00    +0.000 C 
ATOM      9  O   UNL     1      -0.231  10.279  23.545  0.00  0.00    +0.000 OA
ATOM     10  C   UNL     1       0.109   8.566  21.502  0.00  0.00    +0.000 C 
ATOM     11  C   UNL     1       1.455   8.310  20.811  0.00  0.00    +0.000 C 
BRANCH   2  12
ATOM     12  O   UNL     1       2.839   7.056  18.881  0.00  0.00    +0.000 OA
BRANCH  12  14
ATOM     13  C   UNL     1       2.167   4.805  19.272  0.00  0.00    +0.000 C 
ATOM     14  C   UNL     1       2.485   5.841  18.209  0.00  0.00    +0.000 C 
ENDBRANCH  12  14
ENDBRANCH   2  12
ENDBRANCH   1   8
BRANCH   1  15
ATOM     15  C   UNL     1      -2.317  12.630  22.344  0.00  0.00    +0.000 A 
ATOM     16  C   UNL     1      -3.008  12.972  21.167  0.00  0.00    +0.000 A 
ATOM     17  C   UNL     1      -4.393  13.181  21.180  0.00  0.00    +0.000 A 
ATOM     18  C   UNL     1      -5.112  13.051  22.365  0.00  0.00    +0.000 A 
ATOM     19  C   UNL     1      -4.448  12.723  23.539  0.00  0.00    +0.000 A 
ATOM     20  C   UNL     1      -3.069  12.508  23.525  0.00  0.00    +0.000 A 
ENDBRANCH   1  15
BRANCH   1  21
ATOM     21  N   UNL     1      -0.177  13.000  21.168  0.00  0.00    +0.000 NA
ATOM     22  H   UNL     1      -0.567  12.952  20.231  0.00  0.00    +0.000 HD
BRANCH  21  23
ATOM     23  S   UNL     1       1.062  14.085  21.354  0.00  0.00    +0.000 S 
ATOM     24  O   UNL     1       0.794  14.796  22.586  0.00  0.00    +0.000 OA
ATOM     25  O   UNL     1       2.295  13.333  21.203  0.00  0.00    +0.000 OA
BRANCH  23  26
ATOM     26  C   UNL     1       0.969  15.249  20.042  0.00  0.00    +0.000 A 
ATOM     27  C   UNL     1      -0.300  15.693  19.594  0.00  0.00    +0.000 A 
ATOM     28  C   UNL     1      -0.476  16.679  18.595  0.00  0.00    +0.000 A 
ATOM     29  C   UNL     1       0.599  17.299  17.941  0.00  0.00    +0.000 A 
ATOM     30  C   UNL     1       1.895  16.879  18.330  0.00  0.00    +0.000 A 
ATOM     31  N   UNL     1       3.044  17.353  17.823  0.00  0.00    +0.000 NA
ATOM     32  S   UNL     1       4.266  16.554  18.610  0.00  0.00    +0.000 S 
ATOM     33  N   UNL     1       3.399  15.575  19.633  0.00  0.00    +0.000 NA
ATOM     34  C   UNL     1       2.096  15.824  19.407  0.00  0.00    +0.000 A 
ENDBRANCH  23  26
ENDBRANCH  21  23
ENDBRANCH   1  21
TORSDOF 7
ENDMDL
MODEL 5
REMARK VINA RESULT:      -7.3      1.099      1.259
REMARK  Name = 
REMARK  8 active torsions:
REMARK  status: ('A' for Active; 'I' for Inactive)
REMARK    1  A    between atoms: C_1  and  C_2
REMARK    2  A    between atoms: C_2  and  O_3
REMARK    3  A    between atoms: O_3  and  C_4
REMARK    4  A    between atoms: C_10  and  C_12
REMARK    5  A    between atoms: C_12  and  N_13
REMARK    6  A    between atoms: C_12  and  C_26
REMARK    7  A    between atoms: N_13  and  S_14
REMARK    8  A    between atoms: S_14  and  C_17
REMARK                            x       y       z     vdW  Elec       q    Type
REMARK                         _______ _______ _______ _____ _____    ______ ____
ROOT
ATOM      1  C   UNL     1       0.474  10.358  19.159  0.00  0.00    +0.000 C 
ENDROOT
BRANCH   1   8
ATOM      2  C   UNL     1       1.994   4.228  20.119  0.00  0.00    +0.000 C 
ATOM      3  O   UNL     1       1.620   3.823  21.212  0.00  0.00    +0.000 OA
ATOM      4  N   UNL     1       1.958   5.555  19.735  0.00  0.00    +0.000 N 
ATOM      5  C   UNL     1       1.215   6.510  20.557  0.00  0.00    +0.000 C 
ATOM      6  C   UNL     1       1.809   7.928  20.512  0.00  0.00    +0.000 C 
ATOM      7  N   UNL     1       2.061   8.345  19.132  0.00  0.00    +0.000 N 
ATOM      8  C   UNL     1       1.496   9.418  18.447  0.00  0.00    +0.000 C 
ATOM      9  O   UNL     1       1.752   9.538  17.244  0.00  0.00    +0.000 OA
ATOM     10  C   UNL     1       2.933   7.417  18.398  0.00  0.00    +0.000 C 
ATOM     11  C   UNL     1       2.347   5.999  18.390  0.00  0.00    +0.000 C 
BRANCH   2  12
ATOM     12  O   UNL     1       2.543   3.434  19.161  0.00  0.00    +0.000 OA
BRANCH  12  14
ATOM     13  C   UNL     1       3.681   1.427  18.570  0.00  0.00    +0.000 C 
ATOM     14  C   UNL     1       3.558   2.527  19.609  0.00  0.00    +0.000 C 
ENDBRANCH  12  14
ENDBRANCH   2  12
ENDBRANCH   1   8
BRANCH   1  15
ATOM     15  C   UNL     1      -0.920  10.426  18.516  0.00  0.00    +0.000 A 
ATOM     16  C   UNL     1      -1.856  11.369  18.979  0.00  0.00    +0.000 A 
ATOM     17  C   UNL     1      -3.090  11.535  18.338  0.00  0.00    +0.000 A 
ATOM     18  C   UNL     1      -3.412  10.764  17.223  0.00  0.00    +0.000 A 
ATOM     19  C   UNL     1      -2.506   9.822  16.755  0.00  0.00    +0.000 A 
ATOM     20  C   UNL     1      -1.273   9.663  17.390  0.00  0.00    +0.000 A 
ENDBRANCH   1  15
BRANCH   1  21
ATOM     21  N   UNL     1       0.939  11.703  19.520  0.00  0.00    +0.000 NA
ATOM     22  H   UNL     1       1.065  12.411  18.803  0.00  0.00    +0.000 HD
BRANCH  21  23
ATOM     23  S   UNL     1       1.097  12.250  21.077  0.00  0.00    +0.000 S 
ATOM     24  O   UNL     1       0.746  11.138  21.933  0.00  0.00    +0.000 OA
ATOM     25  O   UNL     1       2.415  12.851  21.172  0.00  0.00    +0.000 OA
BRANCH  23  26
ATOM     26  C   UNL     1      -0.097  13.513  21.334  0.00  0.00    +0.000 A 
ATOM     27  C   UNL     1      -0.889  13.492  22.509  0.00  0.00    +0.000 A 
ATOM     28  C   UNL     1      -1.823  14.501  22.841  0.00  0.00    +0.000 A 
ATOM     29  C   UNL     1      -2.065  15.613  22.021  0.00  0.00    +0.000 A 
ATOM     30  C   UNL     1      -1.318  15.678  20.818  0.00  0.00    +0.000 A 
ATOM     31  N   UNL     1      -1.406  16.660  19.907  0.00  0.00    +0.000 NA
ATOM     32  S   UNL     1      -0.332  16.277  18.703  0.00  0.00    +0.000 S 
ATOM     33  N   UNL     1       0.300  14.854  19.281  0.00  0.00    +0.000 NA
ATOM     34  C   UNL     1      -0.306  14.602  20.454  0.00  0.00    +0.000 A 
ENDBRANCH  23  26
ENDBRANCH  21  23
ENDBRANCH   1  21
TORSDOF 7
ENDMDL
MODEL 6
REMARK VINA RESULT:      -7.2      3.945      9.373
REMARK  Name = 
REMARK  8 active torsions:
REMARK  status: ('A' for Active; 'I' for Inactive)
REMARK    1  A    between atoms: C_1  and  C_2
REMARK    2  A    between atoms: C_2  and  O_3
REMARK    3  A    between atoms: O_3  and  C_4
REMARK    4  A    between atoms: C_10  and  C_12
REMARK    5  A    between atoms: C_12  and  N_13
REMARK    6  A    between atoms: C_12  and  C_26
REMARK    7  A    between atoms: N_13  and  S_14
REMARK    8  A    between atoms: S_14  and  C_17
REMARK                            x       y       z     vdW  Elec       q    Type
REMARK                         _______ _______ _______ _____ _____    ______ ____
ROOT
ATOM      1  C   UNL     1       3.726   6.076  18.104  0.00  0.00    +0.000 C 
ENDROOT
BRANCH   1   8
ATOM      2  C   UNL     1       0.691  10.060  22.070  0.00  0.00    +0.000 C 
ATOM      3  O   UNL     1       0.491   9.558  23.168  0.00  0.00    +0.000 OA
ATOM      4  N   UNL     1       1.159   9.358  20.975  0.00  0.00    +0.000 N 
ATOM      5  C   UNL     1       1.684   8.007  21.173  0.00  0.00    +0.000 C 
ATOM      6  C   UNL     1       1.475   7.098  19.949  0.00  0.00    +0.000 C 
ATOM      7  N   UNL     1       1.903   7.769  18.721  0.00  0.00    +0.000 N 
ATOM      8  C   UNL     1       2.910   7.380  17.842  0.00  0.00    +0.000 C 
ATOM      9  O   UNL     1       3.199   8.146  16.916  0.00  0.00    +0.000 OA
ATOM     10  C   UNL     1       1.232   9.059  18.503  0.00  0.00    +0.000 C 
ATOM     11  C   UNL     1       1.456  10.005  19.691  0.00  0.00    +0.000 C 
BRANCH   2  12
ATOM     12  O   UNL     1       0.426  11.360  21.768  0.00  0.00    +0.000 OA
BRANCH  12  14
ATOM     13  C   UNL     1      -1.052  12.832  22.916  0.00  0.00    +0.000 C 
ATOM     14  C   UNL     1      -0.949  11.753  21.854  0.00  0.00    +0.000 C 
ENDBRANCH  12  14
ENDBRANCH   2  12
ENDBRANCH   1   8
BRANCH   1  15
ATOM     15  C   UNL     1       5.239   6.268  18.284  0.00  0.00    +0.000 A 
ATOM     16  C   UNL     1       5.915   5.572  19.303  0.00  0.00    +0.000 A 
ATOM     17  C   UNL     1       7.309   5.635  19.419  0.00  0.00    +0.000 A 
ATOM     18  C   UNL     1       8.054   6.392  18.518  0.00  0.00    +0.000 A 
ATOM     19  C   UNL     1       7.408   7.094  17.511  0.00  0.00    +0.000 A 
ATOM     20  C   UNL     1       6.018   7.025  17.392  0.00  0.00    +0.000 A 
ENDBRANCH   1  15
BRANCH   1  21
ATOM     21  N   UNL     1       3.453   4.929  17.229  0.00  0.00    +0.000 NA
ATOM     22  H   UNL     1       4.130   4.652  16.523  0.00  0.00    +0.000 HD
BRANCH  21  23
ATOM     23  S   UNL     1       2.183   3.883  17.427  0.00  0.00    +0.000 S 
ATOM     24  O   UNL     1       0.985   4.647  17.155  0.00  0.00    +0.000 OA
ATOM     25  O   UNL     1       2.489   2.706  16.634  0.00  0.00    +0.000 OA
BRANCH  23  26
ATOM     26  C   UNL     1       2.130   3.403  19.116  0.00  0.00    +0.000 A 
ATOM     27  C   UNL     1       0.960   3.654  19.874  0.00  0.00    +0.000 A 
ATOM     28  C   UNL     1       0.794   3.241  21.217  0.00  0.00    +0.000 A 
ATOM     29  C   UNL     1       1.789   2.556  21.931  0.00  0.00    +0.000 A 
ATOM     30  C   UNL     1       2.994   2.296  21.232  0.00  0.00    +0.000 A 
ATOM     31  N   UNL     1       4.057   1.655  21.740  0.00  0.00    +0.000 NA
ATOM     32  S   UNL     1       5.191   1.601  20.531  0.00  0.00    +0.000 S 
ATOM     33  N   UNL     1       4.387   2.381  19.306  0.00  0.00    +0.000 NA
ATOM     34  C   UNL     1       3.180   2.730  19.785  0.00  0.00    +0.000 A 
ENDBRANCH  23  26
ENDBRANCH  21  23
ENDBRANCH   1  21
TORSDOF 7
ENDMDL
MODEL 7
REMARK VINA RESULT:      -7.2      4.211      6.557
REMARK  Name = 
REMARK  8 active torsions:
REMARK  status: ('A' for Active; 'I' for Inactive)
REMARK    1  A    between atoms: C_1  and  C_2
REMARK    2  A    between atoms: C_2  and  O_3
REMARK    3  A    between atoms: O_3  and  C_4
REMARK    4  A    between atoms: C_10  and  C_12
REMARK    5  A    between atoms: C_12  and  N_13
REMARK    6  A    between atoms: C_12  and  C_26
REMARK    7  A    between atoms: N_13  and  S_14
REMARK    8  A    between atoms: S_14  and  C_17
REMARK                            x       y       z     vdW  Elec       q    Type
REMARK                         _______ _______ _______ _____ _____    ______ ____
ROOT
ATOM      1  C   UNL     1      -0.944  11.349  19.853  0.00  0.00    +0.000 C 
ENDROOT
BRANCH   1   8
ATOM      2  C   UNL     1       2.866  16.355  18.744  0.00  0.00    +0.000 C 
ATOM      3  O   UNL     1       2.237  17.396  18.608  0.00  0.00    +0.000 OA
ATOM      4  N   UNL     1       2.282  15.104  18.809  0.00  0.00    +0.000 N 
ATOM      5  C   UNL     1       0.832  15.007  18.973  0.00  0.00    +0.000 C 
ATOM      6  C   UNL     1       0.237  13.749  18.317  0.00  0.00    +0.000 C 
ATOM      7  N   UNL     1       0.996  12.556  18.693  0.00  0.00    +0.000 N 
ATOM      8  C   UNL     1       0.543  11.439  19.389  0.00  0.00    +0.000 C 
ATOM      9  O   UNL     1       1.371  10.580  19.711  0.00  0.00    +0.000 OA
ATOM     10  C   UNL     1       2.427  12.656  18.371  0.00  0.00    +0.000 C 
ATOM     11  C   UNL     1       3.060  13.881  19.044  0.00  0.00    +0.000 C 
BRANCH   2  12
ATOM     12  O   UNL     1       4.224  16.288  18.795  0.00  0.00    +0.000 OA
BRANCH  12  14
ATOM     13  C   UNL     1       4.807  16.510  21.093  0.00  0.00    +0.000 C 
ATOM     14  C   UNL     1       4.858  17.172  19.728  0.00  0.00    +0.000 C 
ENDBRANCH  12  14
ENDBRANCH   2  12
ENDBRANCH   1   8
BRANCH   1  15
ATOM     15  C   UNL     1      -1.977  11.160  18.731  0.00  0.00    +0.000 A 
ATOM     16  C   UNL     1      -1.725  10.237  17.699  0.00  0.00    +0.000 A 
ATOM     17  C   UNL     1      -2.695   9.957  16.729  0.00  0.00    +0.000 A 
ATOM     18  C   UNL     1      -3.934  10.593  16.771  0.00  0.00    +0.000 A 
ATOM     19  C   UNL     1      -4.200  11.514  17.775  0.00  0.00    +0.000 A 
ATOM     20  C   UNL     1      -3.234  11.787  18.746  0.00  0.00    +0.000 A 
ENDBRANCH   1  15
BRANCH   1  21
ATOM     21  N   UNL     1      -1.408  12.358  20.813  0.00  0.00    +0.000 NA
ATOM     22  H   UNL     1      -2.285  12.848  20.658  0.00  0.00    +0.000 HD
BRANCH  21  23
ATOM     23  S   UNL     1      -0.701  12.642  22.285  0.00  0.00    +0.000 S 
ATOM     24  O   UNL     1      -0.556  11.350  22.919  0.00  0.00    +0.000 OA
ATOM     25  O   UNL     1       0.471  13.461  22.029  0.00  0.00    +0.000 OA
BRANCH  23  26
ATOM     26  C   UNL     1      -1.821  13.585  23.256  0.00  0.00    +0.000 A 
ATOM     27  C   UNL     1      -1.316  14.568  24.144  0.00  0.00    +0.000 A 
ATOM     28  C   UNL     1      -2.138  15.425  24.912  0.00  0.00    +0.000 A 
ATOM     29  C   UNL     1      -3.540  15.365  24.878  0.00  0.00    +0.000 A 
ATOM     30  C   UNL     1      -4.105  14.384  24.026  0.00  0.00    +0.000 A 
ATOM     31  N   UNL     1      -5.419  14.174  23.856  0.00  0.00    +0.000 NA
ATOM     32  S   UNL     1      -5.557  12.936  22.761  0.00  0.00    +0.000 S 
ATOM     33  N   UNL     1      -3.959  12.612  22.445  0.00  0.00    +0.000 NA
ATOM     34  C   UNL     1      -3.229  13.462  23.190  0.00  0.00    +0.000 A 
ENDBRANCH  23  26
ENDBRANCH  21  23
ENDBRANCH   1  21
TORSDOF 7
ENDMDL
MODEL 8
REMARK VINA RESULT:      -7.2      4.106      6.253
REMARK  Name = 
REMARK  8 active torsions:
REMARK  status: ('A' for Active; 'I' for Inactive)
REMARK    1  A    between atoms: C_1  and  C_2
REMARK    2  A    between atoms: C_2  and  O_3
REMARK    3  A    between atoms: O_3  and  C_4
REMARK    4  A    between atoms: C_10  and  C_12
REMARK    5  A    between atoms: C_12  and  N_13
REMARK    6  A    between atoms: C_12  and  C_26
REMARK    7  A    between atoms: N_13  and  S_14
REMARK    8  A    between atoms: S_14  and  C_17
REMARK                            x       y       z     vdW  Elec       q    Type
REMARK                         _______ _______ _______ _____ _____    ______ ____
ROOT
ATOM      1  C   UNL     1      -1.179  10.910  19.627  0.00  0.00    +0.000 C 
ENDROOT
BRANCH   1   8
ATOM      2  C   UNL     1       2.562  16.083  19.400  0.00  0.00    +0.000 C 
ATOM      3  O   UNL     1       1.916  17.122  19.370  0.00  0.00    +0.000 OA
ATOM      4  N   UNL     1       2.006  14.824  19.266  0.00  0.00    +0.000 N 
ATOM      5  C   UNL     1       0.552  14.682  19.338  0.00  0.00    +0.000 C 
ATOM      6  C   UNL     1       0.021  13.514  18.490  0.00  0.00    +0.000 C 
ATOM      7  N   UNL     1       0.788  12.294  18.743  0.00  0.00    +0.000 N 
ATOM      8  C   UNL     1       0.327  11.086  19.259  0.00  0.00    +0.000 C 
ATOM      9  O   UNL     1       1.158  10.206  19.508  0.00  0.00    +0.000 OA
ATOM     10  C   UNL     1       2.230  12.461  18.514  0.00  0.00    +0.000 C 
ATOM     11  C   UNL     1       2.800  13.594  19.377  0.00  0.00    +0.000 C 
BRANCH   2  12
ATOM     12  O   UNL     1       3.917  16.032  19.514  0.00  0.00    +0.000 OA
BRANCH  12  14
ATOM     13  C   UNL     1       5.780  15.403  18.170  0.00  0.00    +0.000 C 
ATOM     14  C   UNL     1       4.655  16.407  18.345  0.00  0.00    +0.000 C 
ENDBRANCH  12  14
ENDBRANCH   2  12
ENDBRANCH   1   8
BRANCH   1  15
ATOM     15  C   UNL     1      -2.142  10.793  18.435  0.00  0.00    +0.000 A 
ATOM     16  C   UNL     1      -3.336  11.538  18.427  0.00  0.00    +0.000 A 
ATOM     17  C   UNL     1      -4.176  11.542  17.306  0.00  0.00    +0.000 A 
ATOM     18  C   UNL     1      -3.839  10.805  16.174  0.00  0.00    +0.000 A 
ATOM     19  C   UNL     1      -2.670  10.057  16.163  0.00  0.00    +0.000 A 
ATOM     20  C   UNL     1      -1.830  10.058  17.279  0.00  0.00    +0.000 A 
ENDBRANCH   1  15
BRANCH   1  21
ATOM     21  N   UNL     1      -1.730  11.814  20.645  0.00  0.00    +0.000 NA
ATOM     22  H   UNL     1      -2.610  12.295  20.481  0.00  0.00    +0.000 HD
BRANCH  21  23
ATOM     23  S   UNL     1      -1.122  11.974  22.179  0.00  0.00    +0.000 S 
ATOM     24  O   UNL     1      -1.310  10.693  22.823  0.00  0.00    +0.000 OA
ATOM     25  O   UNL     1       0.213  12.528  22.038  0.00  0.00    +0.000 OA
BRANCH  23  26
ATOM     26  C   UNL     1      -2.110  13.147  23.037  0.00  0.00    +0.000 A 
ATOM     27  C   UNL     1      -1.482  14.119  23.855  0.00  0.00    +0.000 A 
ATOM     28  C   UNL     1      -2.184  15.147  24.526  0.00  0.00    +0.000 A 
ATOM     29  C   UNL     1      -3.578  15.287  24.458  0.00  0.00    +0.000 A 
ATOM     30  C   UNL     1      -4.266  14.328  23.672  0.00  0.00    +0.000 A 
ATOM     31  N   UNL     1      -5.594  14.295  23.483  0.00  0.00    +0.000 NA
ATOM     32  S   UNL     1      -5.891  13.001  22.490  0.00  0.00    +0.000 S 
ATOM     33  N   UNL     1      -4.353  12.425  22.247  0.00  0.00    +0.000 NA
ATOM     34  C   UNL     1      -3.520  13.222  22.940  0.00  0.00    +0.000 A 
ENDBRANCH  23  26
ENDBRANCH  21  23
ENDBRANCH   1  21
TORSDOF 7
ENDMDL
MODEL 9
REMARK VINA RESULT:      -7.2      2.976      5.423
REMARK  Name = 
REMARK  8 active torsions:
REMARK  status: ('A' for Active; 'I' for Inactive)
REMARK    1  A    between atoms: C_1  and  C_2
REMARK    2  A    between atoms: C_2  and  O_3
REMARK    3  A    between atoms: O_3  and  C_4
REMARK    4  A    between atoms: C_10  and  C_12
REMARK    5  A    between atoms: C_12  and  N_13
REMARK    6  A    between atoms: C_12  and  C_26
REMARK    7  A    between atoms: N_13  and  S_14
REMARK    8  A    between atoms: S_14  and  C_17
REMARK                            x       y       z     vdW  Elec       q    Type
REMARK                         _______ _______ _______ _____ _____    ______ ____
ROOT
ATOM      1  C   UNL     1       1.938   6.607  19.955  0.00  0.00    +0.000 C 
ENDROOT
BRANCH   1   8
ATOM      2  C   UNL     1       6.989   4.985  16.397  0.00  0.00    +0.000 C 
ATOM      3  O   UNL     1       7.708   4.168  16.958  0.00  0.00    +0.000 OA
ATOM      4  N   UNL     1       5.939   5.639  17.014  0.00  0.00    +0.000 N 
ATOM      5  C   UNL     1       5.485   5.171  18.324  0.00  0.00    +0.000 C 
ATOM      6  C   UNL     1       4.912   6.300  19.197  0.00  0.00    +0.000 C 
ATOM      7  N   UNL     1       3.948   7.104  18.445  0.00  0.00    +0.000 N 
ATOM      8  C   UNL     1       2.594   7.287  18.714  0.00  0.00    +0.000 C 
ATOM      9  O   UNL     1       1.919   7.914  17.891  0.00  0.00    +0.000 OA
ATOM     10  C   UNL     1       4.506   7.667  17.207  0.00  0.00    +0.000 C 
ATOM     11  C   UNL     1       5.051   6.560  16.294  0.00  0.00    +0.000 C 
BRANCH   2  12
ATOM     12  O   UNL     1       7.163   5.397  15.113  0.00  0.00    +0.000 OA
BRANCH  12  14
ATOM     13  C   UNL     1       5.679   3.941  13.952  0.00  0.00    +0.000 C 
ATOM     14  C   UNL     1       7.126   4.367  14.117  0.00  0.00    +0.000 C 
ENDBRANCH  12  14
ENDBRANCH   2  12
ENDBRANCH   1   8
BRANCH   1  15
ATOM     15  C   UNL     1       1.868   5.073  19.910  0.00  0.00    +0.000 A 
ATOM     16  C   UNL     1       1.636   4.421  18.685  0.00  0.00    +0.000 A 
ATOM     17  C   UNL     1       1.683   3.025  18.591  0.00  0.00    +0.000 A 
ATOM     18  C   UNL     1       1.964   2.254  19.716  0.00  0.00    +0.000 A 
ATOM     19  C   UNL     1       2.188   2.876  20.937  0.00  0.00    +0.000 A 
ATOM     20  C   UNL     1       2.148   4.269  21.028  0.00  0.00    +0.000 A 
ENDBRANCH   1  15
BRANCH   1  21
ATOM     21  N   UNL     1       0.665   7.165  20.430  0.00  0.00    +0.000 NA
ATOM     22  H   UNL     1      -0.204   6.659  20.279  0.00  0.00    +0.000 HD
BRANCH  21  23
ATOM     23  S   UNL     1       0.534   8.504  21.398  0.00  0.00    +0.000 S 
ATOM     24  O   UNL     1      -0.487   8.196  22.376  0.00  0.00    +0.000 OA
ATOM     25  O   UNL     1       1.881   8.831  21.833  0.00  0.00    +0.000 OA
BRANCH  23  26
ATOM     26  C   UNL     1      -0.059   9.833  20.415  0.00  0.00    +0.000 A 
ATOM     27  C   UNL     1      -0.398   9.598  19.060  0.00  0.00    +0.000 A 
ATOM     28  C   UNL     1      -0.951  10.584  18.209  0.00  0.00    +0.000 A 
ATOM     29  C   UNL     1      -1.197  11.900  18.630  0.00  0.00    +0.000 A 
ATOM     30  C   UNL     1      -0.855  12.203  19.971  0.00  0.00    +0.000 A 
ATOM     31  N   UNL     1      -1.016  13.399  20.557  0.00  0.00    +0.000 NA
ATOM     32  S   UNL     1      -0.477  13.232  22.116  0.00  0.00    +0.000 S 
ATOM     33  N   UNL     1      -0.021  11.635  22.126  0.00  0.00    +0.000 NA
ATOM     34  C   UNL     1      -0.266  11.148  20.896  0.00  0.00    +0.000 A 
ENDBRANCH  23  26
ENDBRANCH  21  23
ENDBRANCH   1  21
TORSDOF 7
ENDMDL
