MODEL 1
REMARK VINA RESULT:      -9.3      0.000      0.000
REMARK  Name = 
REMARK  6 active torsions:
REMARK  status: ('A' for Active; 'I' for Inactive)
REMARK    1  A    between atoms: C_1  and  C_2
REMARK    2  A    between atoms: C_4  and  C_5
REMARK    3  A    between atoms: C_10  and  C_11
REMARK    4  A    between atoms: C_12  and  C_13
REMARK    5  A    between atoms: C_13  and  O_14
REMARK    6  A    between atoms: C_25  and  N_26
REMARK                            x       y       z     vdW  Elec       q    Type
REMARK                         _______ _______ _______ _____ _____    ______ ____
ROOT
ATOM      1  C   UNL     1      -0.773   9.577  22.818  0.00  0.00    +0.000 C 
ATOM      2  C   UNL     1      -0.197   9.927  21.481  0.00  0.00    +0.000 A 
ATOM      3  C   UNL     1      -0.517  11.098  20.834  0.00  0.00    +0.000 A 
ATOM      4  C   UNL     1       0.084  11.319  19.608  0.00  0.00    +0.000 A 
ATOM      5  C   UNL     1      -0.250  12.547  18.813  0.00  0.00    +0.000 C 
ATOM      6  N   UNL     1       0.955  10.448  19.054  0.00  0.00    +0.000 NA
ATOM      7  C   UNL     1       1.213   9.314  19.744  0.00  0.00    +0.000 A 
ATOM      8  N   UNL     1       2.082   8.307  19.171  0.00  0.00    +0.000 N 
ATOM      9  N   UNL     1       2.730   8.468  17.982  0.00  0.00    +0.000 NA
ATOM     10  C   UNL     1       3.322   7.292  17.745  0.00  0.00    +0.000 A 
ATOM     11  C   UNL     1       4.128   7.125  16.505  0.00  0.00    +0.000 C 
ATOM     12  C   UNL     1       3.062   6.325  18.762  0.00  0.00    +0.000 A 
ATOM     13  C   UNL     1       2.325   7.032  19.702  0.00  0.00    +0.000 A 
ATOM     14  N   UNL     1       0.648   9.027  20.948  0.00  0.00    +0.000 NA
ENDROOT
BRANCH  12  15
ATOM     15  C   UNL     1       3.466   4.876  18.791  0.00  0.00    +0.000 C 
ATOM     16  C   UNL     1       2.930   4.062  17.566  0.00  0.00    +0.000 C 
ATOM     17  O   UNL     1       1.777   3.703  17.367  0.00  0.00    +0.000 OA
ATOM     18  N   UNL     1       4.028   3.729  16.769  0.00  0.00    +0.000 N 
ATOM     19  C   UNL     1       5.212   4.198  17.321  0.00  0.00    +0.000 A 
ATOM     20  C   UNL     1       6.475   4.119  16.767  0.00  0.00    +0.000 A 
ATOM     21  C   UNL     1       7.515   4.745  17.460  0.00  0.00    +0.000 A 
ATOM     22  C   UNL     1       7.269   5.399  18.676  0.00  0.00    +0.000 A 
ATOM     23  F   UNL     1       8.285   6.006  19.304  0.00  0.00    +0.000 F 
ATOM     24  C   UNL     1       5.993   5.458  19.232  0.00  0.00    +0.000 A 
ATOM     25  C   UNL     1       4.957   4.866  18.526  0.00  0.00    +0.000 A 
ATOM     26  H   UNL     1       3.938   3.200  15.913  0.00  0.00    +0.000 HD
BRANCH  15  27
ATOM     27  O   UNL     1       3.195   4.206  20.011  0.00  0.00    +0.000 OA
ATOM     28  H   UNL     1       3.544   3.304  19.884  0.00  0.00    +0.000 HD
ENDBRANCH  15  27
ENDBRANCH  12  15
BRANCH  13  29
ATOM     29  N   UNL     1       1.830   6.631  20.904  0.00  0.00    +0.000 N 
ATOM     30  H   UNL     1       2.235   5.864  21.430  0.00  0.00    +0.000 HD
ATOM     31  H   UNL     1       0.813   6.697  21.042  0.00  0.00    +0.000 HD
ENDBRANCH  13  29
TORSDOF 3
ENDMDL
MODEL 2
REMARK VINA RESULT:      -9.2      1.494      2.869
REMARK  Name = 
REMARK  6 active torsions:
REMARK  status: ('A' for Active; 'I' for Inactive)
REMARK    1  A    between atoms: C_1  and  C_2
REMARK    2  A    between atoms: C_4  and  C_5
REMARK    3  A    between atoms: C_10  and  C_11
REMARK    4  A    between atoms: C_12  and  C_13
REMARK    5  A    between atoms: C_13  and  O_14
REMARK    6  A    between atoms: C_25  and  N_26
REMARK                            x       y       z     vdW  Elec       q    Type
REMARK                         _______ _______ _______ _____ _____    ______ ____
ROOT
ATOM      1  C   UNL     1       1.719  10.491  18.162  0.00  0.00    +0.000 C 
ATOM      2  C   UNL     1       1.437   9.611  19.340  0.00  0.00    +0.000 A 
ATOM      3  C   UNL     1       0.778  10.076  20.455  0.00  0.00    +0.000 A 
ATOM      4  C   UNL     1       0.565   9.169  21.478  0.00  0.00    +0.000 A 
ATOM      5  C   UNL     1      -0.100   9.607  22.749  0.00  0.00    +0.000 C 
ATOM      6  N   UNL     1       0.963   7.881  21.407  0.00  0.00    +0.000 NA
ATOM      7  C   UNL     1       1.613   7.500  20.284  0.00  0.00    +0.000 A 
ATOM      8  N   UNL     1       2.130   6.150  20.176  0.00  0.00    +0.000 N 
ATOM      9  N   UNL     1       1.933   5.196  21.131  0.00  0.00    +0.000 NA
ATOM     10  C   UNL     1       2.656   4.146  20.729  0.00  0.00    +0.000 A 
ATOM     11  C   UNL     1       2.661   2.910  21.559  0.00  0.00    +0.000 C 
ATOM     12  C   UNL     1       3.360   4.390  19.511  0.00  0.00    +0.000 A 
ATOM     13  C   UNL     1       2.940   5.660  19.142  0.00  0.00    +0.000 A 
ATOM     14  N   UNL     1       1.868   8.341  19.246  0.00  0.00    +0.000 NA
ENDROOT
BRANCH  12  15
ATOM     15  C   UNL     1       4.345   3.493  18.812  0.00  0.00    +0.000 C 
ATOM     16  C   UNL     1       3.820   2.951  17.441  0.00  0.00    +0.000 C 
ATOM     17  O   UNL     1       2.965   2.093  17.266  0.00  0.00    +0.000 OA
ATOM     18  N   UNL     1       4.573   3.556  16.432  0.00  0.00    +0.000 N 
ATOM     19  C   UNL     1       5.534   4.406  16.962  0.00  0.00    +0.000 A 
ATOM     20  C   UNL     1       6.398   5.224  16.261  0.00  0.00    +0.000 A 
ATOM     21  C   UNL     1       7.223   6.069  17.007  0.00  0.00    +0.000 A 
ATOM     22  C   UNL     1       7.178   6.055  18.409  0.00  0.00    +0.000 A 
ATOM     23  F   UNL     1       7.968   6.893  19.093  0.00  0.00    +0.000 F 
ATOM     24  C   UNL     1       6.313   5.214  19.105  0.00  0.00    +0.000 A 
ATOM     25  C   UNL     1       5.470   4.401  18.362  0.00  0.00    +0.000 A 
ATOM     26  H   UNL     1       4.421   3.367  15.452  0.00  0.00    +0.000 HD
BRANCH  15  27
ATOM     27  O   UNL     1       4.869   2.446  19.612  0.00  0.00    +0.000 OA
ATOM     28  H   UNL     1       5.627   2.844  20.079  0.00  0.00    +0.000 HD
ENDBRANCH  15  27
ENDBRANCH  12  15
BRANCH  13  29
ATOM     29  N   UNL     1       3.254   6.399  18.043  0.00  0.00    +0.000 N 
ATOM     30  H   UNL     1       3.511   5.973  17.159  0.00  0.00    +0.000 HD
ATOM     31  H   UNL     1       3.739   7.291  18.197  0.00  0.00    +0.000 HD
ENDBRANCH  13  29
TORSDOF 3
ENDMDL
MODEL 3
REMARK VINA RESULT:      -8.3      2.511      3.423
REMARK  Name = 
REMARK  6 active torsions:
REMARK  status: ('A' for Active; 'I' for Inactive)
REMARK    1  A    between atoms: C_1  and  C_2
REMARK    2  A    between atoms: C_4  and  C_5
REMARK    3  A    between atoms: C_10  and  C_11
REMARK    4  A    between atoms: C_12  and  C_13
REMARK    5  A    between atoms: C_13  and  O_14
REMARK    6  A    between atoms: C_25  and  N_26
REMARK                            x       y       z     vdW  Elec       q    Type
REMARK                         _______ _______ _______ _____ _____    ______ ____
ROOT
ATOM      1  C   UNL     1       0.016   8.503  22.242  0.00  0.00    +0.000 C 
ATOM      2  C   UNL     1       0.490   8.992  20.909  0.00  0.00    +0.000 A 
ATOM      3  C   UNL     1       0.020  10.159  20.352  0.00  0.00    +0.000 A 
ATOM      4  C   UNL     1       0.537  10.517  19.120  0.00  0.00    +0.000 A 
ATOM      5  C   UNL     1       0.040  11.747  18.419  0.00  0.00    +0.000 C 
ATOM      6  N   UNL     1       1.470   9.780  18.477  0.00  0.00    +0.000 NA
ATOM      7  C   UNL     1       1.877   8.641  19.083  0.00  0.00    +0.000 A 
ATOM      8  N   UNL     1       2.821   7.770  18.412  0.00  0.00    +0.000 N 
ATOM      9  N   UNL     1       3.393   8.072  17.212  0.00  0.00    +0.000 NA
ATOM     10  C   UNL     1       4.094   6.983  16.877  0.00  0.00    +0.000 A 
ATOM     11  C   UNL     1       4.857   6.979  15.598  0.00  0.00    +0.000 C 
ATOM     12  C   UNL     1       3.985   5.934  17.839  0.00  0.00    +0.000 A 
ATOM     13  C   UNL     1       3.221   6.499  18.851  0.00  0.00    +0.000 A 
ATOM     14  N   UNL     1       1.401   8.223  20.286  0.00  0.00    +0.000 NA
ENDROOT
BRANCH  12  15
ATOM     15  C   UNL     1       4.540   4.538  17.758  0.00  0.00    +0.000 C 
ATOM     16  C   UNL     1       5.728   4.290  18.746  0.00  0.00    +0.000 C 
ATOM     17  O   UNL     1       6.872   4.716  18.645  0.00  0.00    +0.000 OA
ATOM     18  N   UNL     1       5.280   3.407  19.731  0.00  0.00    +0.000 N 
ATOM     19  C   UNL     1       3.964   3.029  19.507  0.00  0.00    +0.000 A 
ATOM     20  C   UNL     1       3.178   2.234  20.319  0.00  0.00    +0.000 A 
ATOM     21  C   UNL     1       1.844   2.059  19.942  0.00  0.00    +0.000 A 
ATOM     22  C   UNL     1       1.350   2.654  18.772  0.00  0.00    +0.000 A 
ATOM     23  F   UNL     1       0.061   2.483  18.450  0.00  0.00    +0.000 F 
ATOM     24  C   UNL     1       2.156   3.442  17.953  0.00  0.00    +0.000 A 
ATOM     25  C   UNL     1       3.471   3.642  18.348  0.00  0.00    +0.000 A 
ATOM     26  H   UNL     1       5.870   3.092  20.488  0.00  0.00    +0.000 HD
BRANCH  15  27
ATOM     27  O   UNL     1       4.860   4.098  16.448  0.00  0.00    +0.000 OA
ATOM     28  H   UNL     1       4.008   3.823  16.063  0.00  0.00    +0.000 HD
ENDBRANCH  15  27
ENDBRANCH  12  15
BRANCH  13  29
ATOM     29  N   UNL     1       2.826   5.976  20.043  0.00  0.00    +0.000 N 
ATOM     30  H   UNL     1       1.959   6.248  20.494  0.00  0.00    +0.000 HD
ATOM     31  H   UNL     1       3.560   5.748  20.724  0.00  0.00    +0.000 HD
ENDBRANCH  13  29
TORSDOF 3
ENDMDL
MODEL 4
REMARK VINA RESULT:      -7.6      6.385      8.497
REMARK  Name = 
REMARK  6 active torsions:
REMARK  status: ('A' for Active; 'I' for Inactive)
REMARK    1  A    between atoms: C_1  and  C_2
REMARK    2  A    between atoms: C_4  and  C_5
REMARK    3  A    between atoms: C_10  and  C_11
REMARK    4  A    between atoms: C_12  and  C_13
REMARK    5  A    between atoms: C_13  and  O_14
REMARK    6  A    between atoms: C_25  and  N_26
REMARK                            x       y       z     vdW  Elec       q    Type
REMARK                         _______ _______ _______ _____ _____    ______ ____
ROOT
ATOM      1  C   UNL     1      -0.813   9.915  17.844  0.00  0.00    +0.000 C 
ATOM      2  C   UNL     1      -0.250  10.430  19.133  0.00  0.00    +0.000 A 
ATOM      3  C   UNL     1      -0.715   9.999  20.354  0.00  0.00    +0.000 A 
ATOM      4  C   UNL     1      -0.112  10.537  21.477  0.00  0.00    +0.000 A 
ATOM      5  C   UNL     1      -0.594  10.161  22.847  0.00  0.00    +0.000 C 
ATOM      6  N   UNL     1       0.895  11.434  21.406  0.00  0.00    +0.000 NA
ATOM      7  C   UNL     1       1.292  11.816  20.171  0.00  0.00    +0.000 A 
ATOM      8  N   UNL     1       2.317  12.830  20.028  0.00  0.00    +0.000 N 
ATOM      9  N   UNL     1       2.975  13.382  21.088  0.00  0.00    +0.000 NA
ATOM     10  C   UNL     1       3.739  14.345  20.560  0.00  0.00    +0.000 A 
ATOM     11  C   UNL     1       4.603  15.158  21.461  0.00  0.00    +0.000 C 
ATOM     12  C   UNL     1       3.589  14.461  19.145  0.00  0.00    +0.000 A 
ATOM     13  C   UNL     1       2.725  13.422  18.824  0.00  0.00    +0.000 A 
ATOM     14  N   UNL     1       0.735  11.339  19.026  0.00  0.00    +0.000 NA
ENDROOT
BRANCH  12  15
ATOM     15  C   UNL     1       4.199  15.485  18.227  0.00  0.00    +0.000 C 
ATOM     16  C   UNL     1       4.298  16.908  18.871  0.00  0.00    +0.000 C 
ATOM     17  O   UNL     1       3.378  17.689  19.078  0.00  0.00    +0.000 OA
ATOM     18  N   UNL     1       5.651  17.179  19.087  0.00  0.00    +0.000 N 
ATOM     19  C   UNL     1       6.450  16.132  18.652  0.00  0.00    +0.000 A 
ATOM     20  C   UNL     1       7.821  16.024  18.780  0.00  0.00    +0.000 A 
ATOM     21  C   UNL     1       8.411  14.832  18.350  0.00  0.00    +0.000 A 
ATOM     22  C   UNL     1       7.628  13.811  17.792  0.00  0.00    +0.000 A 
ATOM     23  F   UNL     1       8.222  12.672  17.409  0.00  0.00    +0.000 F 
ATOM     24  C   UNL     1       6.248  13.937  17.655  0.00  0.00    +0.000 A 
ATOM     25  C   UNL     1       5.661  15.107  18.113  0.00  0.00    +0.000 A 
ATOM     26  H   UNL     1       5.973  18.044  19.498  0.00  0.00    +0.000 HD
BRANCH  15  27
ATOM     27  O   UNL     1       3.621  15.545  16.934  0.00  0.00    +0.000 OA
ATOM     28  H   UNL     1       3.063  14.748  16.872  0.00  0.00    +0.000 HD
ENDBRANCH  15  27
ENDBRANCH  12  15
BRANCH  13  29
ATOM     29  N   UNL     1       2.254  13.022  17.612  0.00  0.00    +0.000 N 
ATOM     30  H   UNL     1       1.650  12.215  17.505  0.00  0.00    +0.000 HD
ATOM     31  H   UNL     1       2.869  13.154  16.800  0.00  0.00    +0.000 HD
ENDBRANCH  13  29
TORSDOF 3
ENDMDL
MODEL 5
REMARK VINA RESULT:      -7.5      2.406      3.842
REMARK  Name = 
REMARK  6 active torsions:
REMARK  status: ('A' for Active; 'I' for Inactive)
REMARK    1  A    between atoms: C_1  and  C_2
REMARK    2  A    between atoms: C_4  and  C_5
REMARK    3  A    between atoms: C_10  and  C_11
REMARK    4  A    between atoms: C_12  and  C_13
REMARK    5  A    between atoms: C_13  and  O_14
REMARK    6  A    between atoms: C_25  and  N_26
REMARK                            x       y       z     vdW  Elec       q    Type
REMARK                         _______ _______ _______ _____ _____    ______ ____
ROOT
ATOM      1  C   UNL     1       0.759  12.354  18.495  0.00  0.00    +0.000 C 
ATOM      2  C   UNL     1       0.592  11.356  19.598  0.00  0.00    +0.000 A 
ATOM      3  C   UNL     1      -0.033  11.676  20.781  0.00  0.00    +0.000 A 
ATOM      4  C   UNL     1      -0.139  10.670  21.724  0.00  0.00    +0.000 A 
ATOM      5  C   UNL     1      -0.760  10.949  23.061  0.00  0.00    +0.000 C 
ATOM      6  N   UNL     1       0.331   9.421  21.516  0.00  0.00    +0.000 NA
ATOM      7  C   UNL     1       0.942   9.184  20.333  0.00  0.00    +0.000 A 
ATOM      8  N   UNL     1       1.532   7.886  20.077  0.00  0.00    +0.000 N 
ATOM      9  N   UNL     1       1.442   6.839  20.947  0.00  0.00    +0.000 NA
ATOM     10  C   UNL     1       2.204   5.877  20.415  0.00  0.00    +0.000 A 
ATOM     11  C   UNL     1       2.325   4.575  21.127  0.00  0.00    +0.000 C 
ATOM     12  C   UNL     1       2.826   6.273  19.193  0.00  0.00    +0.000 A 
ATOM     13  C   UNL     1       2.314   7.543  18.964  0.00  0.00    +0.000 A 
ATOM     14  N   UNL     1       1.092  10.129  19.367  0.00  0.00    +0.000 NA
ENDROOT
BRANCH  12  15
ATOM     15  C   UNL     1       3.825   5.507  18.369  0.00  0.00    +0.000 C 
ATOM     16  C   UNL     1       5.227   5.388  19.052  0.00  0.00    +0.000 C 
ATOM     17  O   UNL     1       6.062   6.274  19.181  0.00  0.00    +0.000 OA
ATOM     18  N   UNL     1       5.406   4.051  19.415  0.00  0.00    +0.000 N 
ATOM     19  C   UNL     1       4.317   3.277  19.041  0.00  0.00    +0.000 A 
ATOM     20  C   UNL     1       4.119   1.937  19.310  0.00  0.00    +0.000 A 
ATOM     21  C   UNL     1       2.899   1.381  18.915  0.00  0.00    +0.000 A 
ATOM     22  C   UNL     1       1.940   2.162  18.255  0.00  0.00    +0.000 A 
ATOM     23  F   UNL     1       0.772   1.603  17.909  0.00  0.00    +0.000 F 
ATOM     24  C   UNL     1       2.157   3.510  17.977  0.00  0.00    +0.000 A 
ATOM     25  C   UNL     1       3.355   4.068  18.399  0.00  0.00    +0.000 A 
ATOM     26  H   UNL     1       6.242   3.721  19.878  0.00  0.00    +0.000 HD
BRANCH  15  27
ATOM     27  O   UNL     1       3.943   5.940  17.023  0.00  0.00    +0.000 OA
ATOM     28  H   UNL     1       4.707   6.545  17.022  0.00  0.00    +0.000 HD
ENDBRANCH  15  27
ENDBRANCH  12  15
BRANCH  13  29
ATOM     29  N   UNL     1       2.525   8.395  17.925  0.00  0.00    +0.000 N 
ATOM     30  H   UNL     1       3.389   8.915  17.816  0.00  0.00    +0.000 HD
ATOM     31  H   UNL     1       1.714   8.918  17.571  0.00  0.00    +0.000 HD
ENDBRANCH  13  29
TORSDOF 3
ENDMDL
MODEL 6
REMARK VINA RESULT:      -7.4      3.584      7.989
REMARK  Name = 
REMARK  6 active torsions:
REMARK  status: ('A' for Active; 'I' for Inactive)
REMARK    1  A    between atoms: C_1  and  C_2
REMARK    2  A    between atoms: C_4  and  C_5
REMARK    3  A    between atoms: C_10  and  C_11
REMARK    4  A    between atoms: C_12  and  C_13
REMARK    5  A    between atoms: C_13  and  O_14
REMARK    6  A    between atoms: C_25  and  N_26
REMARK                            x       y       z     vdW  Elec       q    Type
REMARK                         _______ _______ _______ _____ _____    ______ ____
ROOT
ATOM      1  C   UNL     1       3.922   5.578  17.282  0.00  0.00    +0.000 C 
ATOM      2  C   UNL     1       3.174   5.678  18.575  0.00  0.00    +0.000 A 
ATOM      3  C   UNL     1       3.028   4.599  19.416  0.00  0.00    +0.000 A 
ATOM      4  C   UNL     1       2.325   4.813  20.589  0.00  0.00    +0.000 A 
ATOM      5  C   UNL     1       2.075   3.678  21.537  0.00  0.00    +0.000 C 
ATOM      6  N   UNL     1       1.807   6.015  20.922  0.00  0.00    +0.000 NA
ATOM      7  C   UNL     1       1.984   7.025  20.040  0.00  0.00    +0.000 A 
ATOM      8  N   UNL     1       1.390   8.320  20.304  0.00  0.00    +0.000 N 
ATOM      9  N   UNL     1       0.710   8.611  21.450  0.00  0.00    +0.000 NA
ATOM     10  C   UNL     1       0.221   9.842  21.263  0.00  0.00    +0.000 A 
ATOM     11  C   UNL     1      -0.585  10.472  22.344  0.00  0.00    +0.000 C 
ATOM     12  C   UNL     1       0.553  10.382  19.984  0.00  0.00    +0.000 A 
ATOM     13  C   UNL     1       1.369   9.410  19.421  0.00  0.00    +0.000 A 
ATOM     14  N   UNL     1       2.652   6.882  18.864  0.00  0.00    +0.000 NA
ENDROOT
BRANCH  12  15
ATOM     15  C   UNL     1       0.099  11.683  19.379  0.00  0.00    +0.000 C 
ATOM     16  C   UNL     1      -1.364  12.069  19.774  0.00  0.00    +0.000 C 
ATOM     17  O   UNL     1      -2.398  11.556  19.365  0.00  0.00    +0.000 OA
ATOM     18  N   UNL     1      -1.294  13.180  20.618  0.00  0.00    +0.000 N 
ATOM     19  C   UNL     1       0.019  13.585  20.810  0.00  0.00    +0.000 A 
ATOM     20  C   UNL     1       0.465  14.594  21.641  0.00  0.00    +0.000 A 
ATOM     21  C   UNL     1       1.847  14.767  21.749  0.00  0.00    +0.000 A 
ATOM     22  C   UNL     1       2.727  13.956  21.017  0.00  0.00    +0.000 A 
ATOM     23  F   UNL     1       4.047  14.136  21.159  0.00  0.00    +0.000 F 
ATOM     24  C   UNL     1       2.265  12.952  20.170  0.00  0.00    +0.000 A 
ATOM     25  C   UNL     1       0.893  12.759  20.091  0.00  0.00    +0.000 A 
ATOM     26  H   UNL     1      -2.116  13.618  21.010  0.00  0.00    +0.000 HD
BRANCH  15  27
ATOM     27  O   UNL     1       0.300  11.792  17.979  0.00  0.00    +0.000 OA
ATOM     28  H   UNL     1      -0.585  11.977  17.614  0.00  0.00    +0.000 HD
ENDBRANCH  15  27
ENDBRANCH  12  15
BRANCH  13  29
ATOM     29  N   UNL     1       2.012   9.396  18.223  0.00  0.00    +0.000 N 
ATOM     30  H   UNL     1       2.166   8.541  17.699  0.00  0.00    +0.000 HD
ATOM     31  H   UNL     1       2.774  10.072  18.089  0.00  0.00    +0.000 HD
ENDBRANCH  13  29
TORSDOF 3
ENDMDL
MODEL 7
REMARK VINA RESULT:      -7.2      3.846      8.471
REMARK  Name = 
REMARK  6 active torsions:
REMARK  status: ('A' for Active; 'I' for Inactive)
REMARK    1  A    between atoms: C_1  and  C_2
REMARK    2  A    between atoms: C_4  and  C_5
REMARK    3  A    between atoms: C_10  and  C_11
REMARK    4  A    between atoms: C_12  and  C_13
REMARK    5  A    between atoms: C_13  and  O_14
REMARK    6  A    between atoms: C_25  and  N_26
REMARK                            x       y       z     vdW  Elec       q    Type
REMARK                         _______ _______ _______ _____ _____    ______ ____
ROOT
ATOM      1  C   UNL     1       4.139   6.624  16.975  0.00  0.00    +0.000 C 
ATOM      2  C   UNL     1       3.312   6.612  18.223  0.00  0.00    +0.000 A 
ATOM      3  C   UNL     1       3.197   5.488  19.009  0.00  0.00    +0.000 A 
ATOM      4  C   UNL     1       2.413   5.597  20.143  0.00  0.00    +0.000 A 
ATOM      5  C   UNL     1       2.193   4.405  21.027  0.00  0.00    +0.000 C 
ATOM      6  N   UNL     1       1.788   6.742  20.493  0.00  0.00    +0.000 NA
ATOM      7  C   UNL     1       1.940   7.802  19.666  0.00  0.00    +0.000 A 
ATOM      8  N   UNL     1       1.238   9.038  19.946  0.00  0.00    +0.000 N 
ATOM      9  N   UNL     1       0.472   9.226  21.059  0.00  0.00    +0.000 NA
ATOM     10  C   UNL     1      -0.095  10.426  20.892  0.00  0.00    +0.000 A 
ATOM     11  C   UNL     1      -1.008  10.947  21.947  0.00  0.00    +0.000 C 
ATOM     12  C   UNL     1       0.270  11.047  19.660  0.00  0.00    +0.000 A 
ATOM     13  C   UNL     1       1.187  10.162  19.109  0.00  0.00    +0.000 A 
ATOM     14  N   UNL     1       2.685   7.761  18.529  0.00  0.00    +0.000 NA
ENDROOT
BRANCH  12  15
ATOM     15  C   UNL     1      -0.243  12.338  19.083  0.00  0.00    +0.000 C 
ATOM     16  C   UNL     1      -1.804  12.411  19.025  0.00  0.00    +0.000 C 
ATOM     17  O   UNL     1      -2.542  11.811  18.254  0.00  0.00    +0.000 OA
ATOM     18  N   UNL     1      -2.217  13.364  19.959  0.00  0.00    +0.000 N 
ATOM     19  C   UNL     1      -1.131  13.940  20.604  0.00  0.00    +0.000 A 
ATOM     20  C   UNL     1      -1.169  14.857  21.636  0.00  0.00    +0.000 A 
ATOM     21  C   UNL     1       0.053  15.233  22.200  0.00  0.00    +0.000 A 
ATOM     22  C   UNL     1       1.257  14.708  21.708  0.00  0.00    +0.000 A 
ATOM     23  F   UNL     1       2.410  15.073  22.285  0.00  0.00    +0.000 F 
ATOM     24  C   UNL     1       1.283  13.794  20.656  0.00  0.00    +0.000 A 
ATOM     25  C   UNL     1       0.067  13.397  20.121  0.00  0.00    +0.000 A 
ATOM     26  H   UNL     1      -3.189  13.592  20.110  0.00  0.00    +0.000 HD
BRANCH  15  27
ATOM     27  O   UNL     1       0.335  12.707  17.841  0.00  0.00    +0.000 OA
ATOM     28  H   UNL     1       0.142  11.961  17.244  0.00  0.00    +0.000 HD
ENDBRANCH  15  27
ENDBRANCH  12  15
BRANCH  13  29
ATOM     29  N   UNL     1       1.899  10.249  17.953  0.00  0.00    +0.000 N 
ATOM     30  H   UNL     1       1.482  10.079  17.045  0.00  0.00    +0.000 HD
ATOM     31  H   UNL     1       2.886   9.963  17.984  0.00  0.00    +0.000 HD
ENDBRANCH  13  29
TORSDOF 3
ENDMDL
MODEL 8
REMARK VINA RESULT:      -7.1      3.846      8.034
REMARK  Name = 
REMARK  6 active torsions:
REMARK  status: ('A' for Active; 'I' for Inactive)
REMARK    1  A    between atoms: C_1  and  C_2
REMARK    2  A    between atoms: C_4  and  C_5
REMARK    3  A    between atoms: C_10  and  C_11
REMARK    4  A    between atoms: C_12  and  C_13
REMARK    5  A    between atoms: C_13  and  O_14
REMARK    6  A    between atoms: C_25  and  N_26
REMARK                            x       y       z     vdW  Elec       q    Type
REMARK                         _______ _______ _______ _____ _____    ______ ____
ROOT
ATOM      1  C   UNL     1       4.640   7.018  16.140  0.00  0.00    +0.000 C 
ATOM      2  C   UNL     1       3.989   6.573  17.413  0.00  0.00    +0.000 A 
ATOM      3  C   UNL     1       4.158   5.302  17.911  0.00  0.00    +0.000 A 
ATOM      4  C   UNL     1       3.515   5.006  19.100  0.00  0.00    +0.000 A 
ATOM      5  C   UNL     1       3.605   3.628  19.685  0.00  0.00    +0.000 C 
ATOM      6  N   UNL     1       2.761   5.907  19.767  0.00  0.00    +0.000 NA
ATOM      7  C   UNL     1       2.634   7.133  19.210  0.00  0.00    +0.000 A 
ATOM      8  N   UNL     1       1.780   8.121  19.838  0.00  0.00    +0.000 N 
ATOM      9  N   UNL     1       1.140   7.910  21.024  0.00  0.00    +0.000 NA
ATOM     10  C   UNL     1       0.369   8.989  21.201  0.00  0.00    +0.000 A 
ATOM     11  C   UNL     1      -0.477   9.081  22.422  0.00  0.00    +0.000 C 
ATOM     12  C   UNL     1       0.470   9.925  20.128  0.00  0.00    +0.000 A 
ATOM     13  C   UNL     1       1.442   9.373  19.305  0.00  0.00    +0.000 A 
ATOM     14  N   UNL     1       3.226   7.487  18.039  0.00  0.00    +0.000 NA
ENDROOT
BRANCH  12  15
ATOM     15  C   UNL     1      -0.315  11.193  19.925  0.00  0.00    +0.000 C 
ATOM     16  C   UNL     1       0.478  12.289  19.140  0.00  0.00    +0.000 C 
ATOM     17  O   UNL     1       1.406  12.969  19.558  0.00  0.00    +0.000 OA
ATOM     18  N   UNL     1      -0.123  12.429  17.887  0.00  0.00    +0.000 N 
ATOM     19  C   UNL     1      -1.217  11.584  17.756  0.00  0.00    +0.000 A 
ATOM     20  C   UNL     1      -1.995  11.401  16.631  0.00  0.00    +0.000 A 
ATOM     21  C   UNL     1      -2.994  10.426  16.697  0.00  0.00    +0.000 A 
ATOM     22  C   UNL     1      -3.196   9.691  17.875  0.00  0.00    +0.000 A 
ATOM     23  F   UNL     1      -4.148   8.749  17.898  0.00  0.00    +0.000 F 
ATOM     24  C   UNL     1      -2.413   9.896  19.009  0.00  0.00    +0.000 A 
ATOM     25  C   UNL     1      -1.401  10.841  18.930  0.00  0.00    +0.000 A 
ATOM     26  H   UNL     1       0.212  13.082  17.192  0.00  0.00    +0.000 HD
BRANCH  15  27
ATOM     27  O   UNL     1      -0.902  11.725  21.101  0.00  0.00    +0.000 OA
ATOM     28  H   UNL     1      -1.817  11.390  21.097  0.00  0.00    +0.000 HD
ENDBRANCH  15  27
ENDBRANCH  12  15
BRANCH  13  29
ATOM     29  N   UNL     1       1.980   9.848  18.149  0.00  0.00    +0.000 N 
ATOM     30  H   UNL     1       2.351  10.788  18.069  0.00  0.00    +0.000 HD
ATOM     31  H   UNL     1       1.564   9.521  17.267  0.00  0.00    +0.000 HD
ENDBRANCH  13  29
TORSDOF 3
ENDMDL
MODEL 9
REMARK VINA RESULT:      -7.1      3.523      7.680
REMARK  Name = 
REMARK  6 active torsions:
REMARK  status: ('A' for Active; 'I' for Inactive)
REMARK    1  A    between atoms: C_1  and  C_2
REMARK    2  A    between atoms: C_4  and  C_5
REMARK    3  A    between atoms: C_10  and  C_11
REMARK    4  A    between atoms: C_12  and  C_13
REMARK    5  A    between atoms: C_13  and  O_14
REMARK    6  A    between atoms: C_25  and  N_26
REMARK                            x       y       z     vdW  Elec       q    Type
REMARK                         _______ _______ _______ _____ _____    ______ ____
ROOT
ATOM      1  C   UNL     1       2.838   3.097  21.109  0.00  0.00    +0.000 C 
ATOM      2  C   UNL     1       3.380   4.057  20.096  0.00  0.00    +0.000 A 
ATOM      3  C   UNL     1       4.476   3.755  19.321  0.00  0.00    +0.000 A 
ATOM      4  C   UNL     1       4.882   4.715  18.412  0.00  0.00    +0.000 A 
ATOM      5  C   UNL     1       6.099   4.488  17.565  0.00  0.00    +0.000 C 
ATOM      6  N   UNL     1       4.243   5.896  18.262  0.00  0.00    +0.000 NA
ATOM      7  C   UNL     1       3.179   6.125  19.065  0.00  0.00    +0.000 A 
ATOM      8  N   UNL     1       2.495   7.401  19.005  0.00  0.00    +0.000 N 
ATOM      9  N   UNL     1       2.821   8.382  18.115  0.00  0.00    +0.000 NA
ATOM     10  C   UNL     1       2.058   9.427  18.454  0.00  0.00    +0.000 A 
ATOM     11  C   UNL     1       2.166  10.686  17.667  0.00  0.00    +0.000 C 
ATOM     12  C   UNL     1       1.227   9.165  19.585  0.00  0.00    +0.000 A 
ATOM     13  C   UNL     1       1.476   7.829  19.868  0.00  0.00    +0.000 A 
ATOM     14  N   UNL     1       2.735   5.231  19.989  0.00  0.00    +0.000 NA
ENDROOT
BRANCH  12  15
ATOM     15  C   UNL     1       0.321  10.120  20.313  0.00  0.00    +0.000 C 
ATOM     16  C   UNL     1       0.963  11.529  20.536  0.00  0.00    +0.000 C 
ATOM     17  O   UNL     1       1.850  11.818  21.328  0.00  0.00    +0.000 OA
ATOM     18  N   UNL     1       0.275  12.438  19.729  0.00  0.00    +0.000 N 
ATOM     19  C   UNL     1      -0.745  11.814  19.024  0.00  0.00    +0.000 A 
ATOM     20  C   UNL     1      -1.572  12.387  18.078  0.00  0.00    +0.000 A 
ATOM     21  C   UNL     1      -2.473  11.543  17.423  0.00  0.00    +0.000 A 
ATOM     22  C   UNL     1      -2.535  10.179  17.745  0.00  0.00    +0.000 A 
ATOM     23  F   UNL     1      -3.396   9.394  17.084  0.00  0.00    +0.000 F 
ATOM     24  C   UNL     1      -1.706   9.616  18.712  0.00  0.00    +0.000 A 
ATOM     25  C   UNL     1      -0.789  10.449  19.336  0.00  0.00    +0.000 A 
ATOM     26  H   UNL     1       0.507  13.421  19.697  0.00  0.00    +0.000 HD
BRANCH  15  27
ATOM     27  O   UNL     1      -0.238   9.613  21.514  0.00  0.00    +0.000 OA
ATOM     28  H   UNL     1       0.529   9.414  22.081  0.00  0.00    +0.000 HD
ENDBRANCH  15  27
ENDBRANCH  12  15
BRANCH  13  29
ATOM     29  N   UNL     1       0.937   7.024  20.823  0.00  0.00    +0.000 N 
ATOM     30  H   UNL     1       0.543   6.115  20.607  0.00  0.00    +0.000 HD
ATOM     31  H   UNL     1       0.448   7.480  21.604  0.00  0.00    +0.000 HD
ENDBRANCH  13  29
TORSDOF 3
ENDMDL
