MODEL 1
REMARK VINA RESULT:      -7.7      0.000      0.000
REMARK  Name = 
REMARK  4 active torsions:
REMARK  status: ('A' for Active; 'I' for Inactive)
REMARK    1  A    between atoms: N_1  and  C_2
REMARK    2  A    between atoms: C_5  and  C_6
REMARK    3  A    between atoms: C_12  and  N_13
REMARK    4  A    between atoms: C_14  and  C_16
REMARK                            x       y       z     vdW  Elec       q    Type
REMARK                         _______ _______ _______ _____ _____    ______ ____
ROOT
ATOM      1  C   UNL     1       3.885   3.823  18.571  0.00  0.00    +0.000 A 
ATOM      2  C   UNL     1       3.281   4.195  19.783  0.00  0.00    +0.000 A 
ATOM      3  C   UNL     1       2.693   5.454  19.951  0.00  0.00    +0.000 A 
ATOM      4  C   UNL     1       2.716   6.392  18.918  0.00  0.00    +0.000 A 
ATOM      5  C   UNL     1       3.372   6.038  17.727  0.00  0.00    +0.000 A 
ATOM      6  C   UNL     1       3.988   4.788  17.546  0.00  0.00    +0.000 A 
ENDROOT
BRANCH   4   7
ATOM      7  C   UNL     1       2.111   7.730  19.050  0.00  0.00    +0.000 A 
ATOM      8  C   UNL     1       1.939   8.700  18.075  0.00  0.00    +0.000 A 
ATOM      9  C   UNL     1       1.283   9.869  18.559  0.00  0.00    +0.000 A 
ATOM     10  C   UNL     1       0.969   9.763  19.893  0.00  0.00    +0.000 A 
ATOM     11  S   UNL     1       1.456   8.263  20.549  0.00  0.00    +0.000 S 
ENDBRANCH   4   7
BRANCH   6  12
ATOM     12  N   UNL     1       4.668   4.468  16.334  0.00  0.00    +0.000 N 
ATOM     13  C   UNL     1       5.931   4.918  15.975  0.00  0.00    +0.000 C 
ATOM     14  O   UNL     1       6.709   5.522  16.709  0.00  0.00    +0.000 OA
ATOM     15  H   UNL     1       4.188   3.833  15.721  0.00  0.00    +0.000 HD
BRANCH  13  16
ATOM     16  C   UNL     1       6.384   4.669  14.573  0.00  0.00    +0.000 A 
ATOM     17  C   UNL     1       5.659   3.716  13.836  0.00  0.00    +0.000 A 
ATOM     18  C   UNL     1       6.007   3.414  12.519  0.00  0.00    +0.000 A 
ATOM     19  C   UNL     1       7.081   4.066  11.924  0.00  0.00    +0.000 A 
ATOM     20  C   UNL     1       7.799   5.026  12.642  0.00  0.00    +0.000 A 
ATOM     21  C   UNL     1       7.453   5.332  13.964  0.00  0.00    +0.000 A 
ENDBRANCH  13  16
ENDBRANCH   6  12
BRANCH   1  22
ATOM     22  N   UNL     1       4.568   2.591  18.534  0.00  0.00    +0.000 N 
ATOM     23  H   UNL     1       4.925   2.361  17.612  0.00  0.00    +0.000 HD
ATOM     24  H   UNL     1       5.278   2.467  19.243  0.00  0.00    +0.000 HD
ENDBRANCH   1  22
TORSDOF 4
ENDMDL
MODEL 2
REMARK VINA RESULT:      -7.6      0.203      1.073
REMARK  Name = 
REMARK  4 active torsions:
REMARK  status: ('A' for Active; 'I' for Inactive)
REMARK    1  A    between atoms: N_1  and  C_2
REMARK    2  A    between atoms: C_5  and  C_6
REMARK    3  A    between atoms: C_12  and  N_13
REMARK    4  A    between atoms: C_14  and  C_16
REMARK                            x       y       z     vdW  Elec       q    Type
REMARK                         _______ _______ _______ _____ _____    ______ ____
ROOT
ATOM      1  C   UNL     1       4.044   4.004  18.700  0.00  0.00    +0.000 A 
ATOM      2  C   UNL     1       3.480   4.446  19.908  0.00  0.00    +0.000 A 
ATOM      3  C   UNL     1       2.848   5.691  20.008  0.00  0.00    +0.000 A 
ATOM      4  C   UNL     1       2.785   6.546  18.907  0.00  0.00    +0.000 A 
ATOM      5  C   UNL     1       3.401   6.126  17.716  0.00  0.00    +0.000 A 
ATOM      6  C   UNL     1       4.061   4.890  17.601  0.00  0.00    +0.000 A 
ENDROOT
BRANCH   4   7
ATOM      7  C   UNL     1       2.132   7.866  18.966  0.00  0.00    +0.000 A 
ATOM      8  C   UNL     1       1.962   8.792  17.948  0.00  0.00    +0.000 A 
ATOM      9  C   UNL     1       1.250   9.955  18.364  0.00  0.00    +0.000 A 
ATOM     10  C   UNL     1       0.892   9.888  19.689  0.00  0.00    +0.000 A 
ATOM     11  S   UNL     1       1.405   8.431  20.419  0.00  0.00    +0.000 S 
ENDBRANCH   4   7
BRANCH   6  12
ATOM     12  N   UNL     1       4.698   4.504  16.386  0.00  0.00    +0.000 N 
ATOM     13  C   UNL     1       5.888   5.026  15.897  0.00  0.00    +0.000 C 
ATOM     14  O   UNL     1       6.643   5.776  16.511  0.00  0.00    +0.000 OA
ATOM     15  H   UNL     1       4.249   3.763  15.876  0.00  0.00    +0.000 HD
BRANCH  13  16
ATOM     16  C   UNL     1       6.282   4.667  14.502  0.00  0.00    +0.000 A 
ATOM     17  C   UNL     1       7.408   5.324  13.975  0.00  0.00    +0.000 A 
ATOM     18  C   UNL     1       7.852   5.058  12.679  0.00  0.00    +0.000 A 
ATOM     19  C   UNL     1       7.176   4.127  11.898  0.00  0.00    +0.000 A 
ATOM     20  C   UNL     1       6.065   3.456  12.417  0.00  0.00    +0.000 A 
ATOM     21  C   UNL     1       5.617   3.721  13.716  0.00  0.00    +0.000 A 
ENDBRANCH  13  16
ENDBRANCH   6  12
BRANCH   1  22
ATOM     22  N   UNL     1       4.775   2.800  18.724  0.00  0.00    +0.000 N 
ATOM     23  H   UNL     1       4.411   2.101  18.083  0.00  0.00    +0.000 HD
ATOM     24  H   UNL     1       5.777   2.898  18.629  0.00  0.00    +0.000 HD
ENDBRANCH   1  22
TORSDOF 4
ENDMDL
MODEL 3
REMARK VINA RESULT:      -7.6      4.146      5.745
REMARK  Name = 
REMARK  4 active torsions:
REMARK  status: ('A' for Active; 'I' for Inactive)
REMARK    1  A    between atoms: N_1  and  C_2
REMARK    2  A    between atoms: C_5  and  C_6
REMARK    3  A    between atoms: C_12  and  N_13
REMARK    4  A    between atoms: C_14  and  C_16
REMARK                            x       y       z     vdW  Elec       q    Type
REMARK                         _______ _______ _______ _____ _____    ______ ____
ROOT
ATOM      1  C   UNL     1       6.406   5.491  15.858  0.00  0.00    +0.000 A 
ATOM      2  C   UNL     1       5.705   4.277  15.762  0.00  0.00    +0.000 A 
ATOM      3  C   UNL     1       4.615   3.994  16.593  0.00  0.00    +0.000 A 
ATOM      4  C   UNL     1       4.210   4.908  17.567  0.00  0.00    +0.000 A 
ATOM      5  C   UNL     1       4.948   6.095  17.699  0.00  0.00    +0.000 A 
ATOM      6  C   UNL     1       6.059   6.388  16.891  0.00  0.00    +0.000 A 
ENDROOT
BRANCH   4   7
ATOM      7  C   UNL     1       3.069   4.651  18.466  0.00  0.00    +0.000 A 
ATOM      8  C   UNL     1       2.133   3.631  18.403  0.00  0.00    +0.000 A 
ATOM      9  C   UNL     1       1.183   3.678  19.465  0.00  0.00    +0.000 A 
ATOM     10  C   UNL     1       1.419   4.733  20.314  0.00  0.00    +0.000 A 
ATOM     11  S   UNL     1       2.777   5.651  19.835  0.00  0.00    +0.000 S 
ENDBRANCH   4   7
BRANCH   6  12
ATOM     12  N   UNL     1       6.804   7.592  17.067  0.00  0.00    +0.000 N 
ATOM     13  C   UNL     1       7.793   7.797  18.019  0.00  0.00    +0.000 C 
ATOM     14  O   UNL     1       8.279   6.929  18.740  0.00  0.00    +0.000 OA
ATOM     15  H   UNL     1       6.604   8.326  16.411  0.00  0.00    +0.000 HD
BRANCH  13  16
ATOM     16  C   UNL     1       8.299   9.189  18.205  0.00  0.00    +0.000 A 
ATOM     17  C   UNL     1       9.182   9.402  19.279  0.00  0.00    +0.000 A 
ATOM     18  C   UNL     1       9.707  10.670  19.534  0.00  0.00    +0.000 A 
ATOM     19  C   UNL     1       9.358  11.737  18.714  0.00  0.00    +0.000 A 
ATOM     20  C   UNL     1       8.494  11.534  17.635  0.00  0.00    +0.000 A 
ATOM     21  C   UNL     1       7.965  10.264  17.375  0.00  0.00    +0.000 A 
ENDBRANCH  13  16
ENDBRANCH   6  12
BRANCH   1  22
ATOM     22  N   UNL     1       7.569   5.636  15.075  0.00  0.00    +0.000 N 
ATOM     23  H   UNL     1       7.371   5.734  14.084  0.00  0.00    +0.000 HD
ATOM     24  H   UNL     1       8.219   6.343  15.391  0.00  0.00    +0.000 HD
ENDBRANCH   1  22
TORSDOF 4
ENDMDL
MODEL 4
REMARK VINA RESULT:      -7.5      4.175      5.708
REMARK  Name = 
REMARK  4 active torsions:
REMARK  status: ('A' for Active; 'I' for Inactive)
REMARK    1  A    between atoms: N_1  and  C_2
REMARK    2  A    between atoms: C_5  and  C_6
REMARK    3  A    between atoms: C_12  and  N_13
REMARK    4  A    between atoms: C_14  and  C_16
REMARK                            x       y       z     vdW  Elec       q    Type
REMARK                         _______ _______ _______ _____ _____    ______ ____
ROOT
ATOM      1  C   UNL     1       6.363   5.433  15.897  0.00  0.00    +0.000 A 
ATOM      2  C   UNL     1       5.650   4.225  15.822  0.00  0.00    +0.000 A 
ATOM      3  C   UNL     1       4.602   3.938  16.705  0.00  0.00    +0.000 A 
ATOM      4  C   UNL     1       4.254   4.841  17.711  0.00  0.00    +0.000 A 
ATOM      5  C   UNL     1       5.007   6.022  17.820  0.00  0.00    +0.000 A 
ATOM      6  C   UNL     1       6.076   6.319  16.959  0.00  0.00    +0.000 A 
ENDROOT
BRANCH   4   7
ATOM      7  C   UNL     1       3.160   4.580  18.664  0.00  0.00    +0.000 A 
ATOM      8  C   UNL     1       3.071   4.946  19.998  0.00  0.00    +0.000 A 
ATOM      9  C   UNL     1       1.845   4.550  20.607  0.00  0.00    +0.000 A 
ATOM     10  C   UNL     1       1.026   3.891  19.721  0.00  0.00    +0.000 A 
ATOM     11  S   UNL     1       1.730   3.761  18.170  0.00  0.00    +0.000 S 
ENDBRANCH   4   7
BRANCH   6  12
ATOM     12  N   UNL     1       6.838   7.515  17.111  0.00  0.00    +0.000 N 
ATOM     13  C   UNL     1       7.819   7.730  18.070  0.00  0.00    +0.000 C 
ATOM     14  O   UNL     1       8.283   6.875  18.820  0.00  0.00    +0.000 OA
ATOM     15  H   UNL     1       6.658   8.234  16.433  0.00  0.00    +0.000 HD
BRANCH  13  16
ATOM     16  C   UNL     1       8.345   9.119  18.224  0.00  0.00    +0.000 A 
ATOM     17  C   UNL     1       7.785  10.103  17.390  0.00  0.00    +0.000 A 
ATOM     18  C   UNL     1       8.213  11.429  17.459  0.00  0.00    +0.000 A 
ATOM     19  C   UNL     1       9.202  11.786  18.368  0.00  0.00    +0.000 A 
ATOM     20  C   UNL     1       9.755  10.821  19.214  0.00  0.00    +0.000 A 
ATOM     21  C   UNL     1       9.328   9.489  19.147  0.00  0.00    +0.000 A 
ENDBRANCH  13  16
ENDBRANCH   6  12
BRANCH   1  22
ATOM     22  N   UNL     1       7.484   5.581  15.057  0.00  0.00    +0.000 N 
ATOM     23  H   UNL     1       7.277   5.392  14.081  0.00  0.00    +0.000 HD
ATOM     24  H   UNL     1       7.994   6.448  15.162  0.00  0.00    +0.000 HD
ENDBRANCH   1  22
TORSDOF 4
ENDMDL
MODEL 5
REMARK VINA RESULT:      -6.8      0.977      1.189
REMARK  Name = 
REMARK  4 active torsions:
REMARK  status: ('A' for Active; 'I' for Inactive)
REMARK    1  A    between atoms: N_1  and  C_2
REMARK    2  A    between atoms: C_5  and  C_6
REMARK    3  A    between atoms: C_12  and  N_13
REMARK    4  A    between atoms: C_14  and  C_16
REMARK                            x       y       z     vdW  Elec       q    Type
REMARK                         _______ _______ _______ _____ _____    ______ ____
ROOT
ATOM      1  C   UNL     1       3.327   3.744  19.116  0.00  0.00    +0.000 A 
ATOM      2  C   UNL     1       2.701   4.080  20.328  0.00  0.00    +0.000 A 
ATOM      3  C   UNL     1       2.181   5.360  20.553  0.00  0.00    +0.000 A 
ATOM      4  C   UNL     1       2.297   6.353  19.580  0.00  0.00    +0.000 A 
ATOM      5  C   UNL     1       2.975   6.031  18.392  0.00  0.00    +0.000 A 
ATOM      6  C   UNL     1       3.524   4.760  18.156  0.00  0.00    +0.000 A 
ENDROOT
BRANCH   4   7
ATOM      7  C   UNL     1       1.767   7.716  19.773  0.00  0.00    +0.000 A 
ATOM      8  C   UNL     1       1.270   8.293  20.931  0.00  0.00    +0.000 A 
ATOM      9  C   UNL     1       0.871   9.649  20.753  0.00  0.00    +0.000 A 
ATOM     10  C   UNL     1       1.075  10.076  19.463  0.00  0.00    +0.000 A 
ATOM     11  S   UNL     1       1.748   8.851  18.481  0.00  0.00    +0.000 S 
ENDBRANCH   4   7
BRANCH   6  12
ATOM     12  N   UNL     1       4.228   4.471  16.951  0.00  0.00    +0.000 N 
ATOM     13  C   UNL     1       5.555   4.789  16.696  0.00  0.00    +0.000 C 
ATOM     14  O   UNL     1       6.356   5.219  17.521  0.00  0.00    +0.000 OA
ATOM     15  H   UNL     1       3.710   3.961  16.256  0.00  0.00    +0.000 HD
BRANCH  13  16
ATOM     16  C   UNL     1       6.054   4.617  15.298  0.00  0.00    +0.000 A 
ATOM     17  C   UNL     1       5.274   3.818  14.444  0.00  0.00    +0.000 A 
ATOM     18  C   UNL     1       5.659   3.597  13.121  0.00  0.00    +0.000 A 
ATOM     19  C   UNL     1       6.826   4.178  12.637  0.00  0.00    +0.000 A 
ATOM     20  C   UNL     1       7.601   4.986  13.473  0.00  0.00    +0.000 A 
ATOM     21  C   UNL     1       7.218   5.211  14.801  0.00  0.00    +0.000 A 
ENDBRANCH  13  16
ENDBRANCH   6  12
BRANCH   1  22
ATOM     22  N   UNL     1       3.937   2.477  19.028  0.00  0.00    +0.000 N 
ATOM     23  H   UNL     1       3.311   1.757  18.679  0.00  0.00    +0.000 HD
ATOM     24  H   UNL     1       4.825   2.455  18.544  0.00  0.00    +0.000 HD
ENDBRANCH   1  22
TORSDOF 4
ENDMDL
MODEL 6
REMARK VINA RESULT:      -6.8      2.857      7.549
REMARK  Name = 
REMARK  4 active torsions:
REMARK  status: ('A' for Active; 'I' for Inactive)
REMARK    1  A    between atoms: N_1  and  C_2
REMARK    2  A    between atoms: C_5  and  C_6
REMARK    3  A    between atoms: C_12  and  N_13
REMARK    4  A    between atoms: C_14  and  C_16
REMARK                            x       y       z     vdW  Elec       q    Type
REMARK                         _______ _______ _______ _____ _____    ______ ____
ROOT
ATOM      1  C   UNL     1       2.808   3.853  20.641  0.00  0.00    +0.000 A 
ATOM      2  C   UNL     1       3.520   2.762  20.115  0.00  0.00    +0.000 A 
ATOM      3  C   UNL     1       4.350   2.901  18.997  0.00  0.00    +0.000 A 
ATOM      4  C   UNL     1       4.474   4.133  18.353  0.00  0.00    +0.000 A 
ATOM      5  C   UNL     1       3.717   5.208  18.847  0.00  0.00    +0.000 A 
ATOM      6  C   UNL     1       2.859   5.084  19.953  0.00  0.00    +0.000 A 
ENDROOT
BRANCH   4   7
ATOM      7  C   UNL     1       5.335   4.326  17.172  0.00  0.00    +0.000 A 
ATOM      8  C   UNL     1       4.999   4.219  15.832  0.00  0.00    +0.000 A 
ATOM      9  C   UNL     1       6.087   4.508  14.958  0.00  0.00    +0.000 A 
ATOM     10  C   UNL     1       7.229   4.829  15.653  0.00  0.00    +0.000 A 
ATOM     11  S   UNL     1       6.983   4.790  17.343  0.00  0.00    +0.000 S 
ENDBRANCH   4   7
BRANCH   6  12
ATOM     12  N   UNL     1       2.085   6.189  20.415  0.00  0.00    +0.000 N 
ATOM     13  C   UNL     1       1.975   7.419  19.781  0.00  0.00    +0.000 C 
ATOM     14  O   UNL     1       2.398   7.683  18.659  0.00  0.00    +0.000 OA
ATOM     15  H   UNL     1       1.553   6.027  21.252  0.00  0.00    +0.000 HD
BRANCH  13  16
ATOM     16  C   UNL     1       1.309   8.528  20.528  0.00  0.00    +0.000 A 
ATOM     17  C   UNL     1       0.893   9.638  19.772  0.00  0.00    +0.000 A 
ATOM     18  C   UNL     1       0.263  10.724  20.381  0.00  0.00    +0.000 A 
ATOM     19  C   UNL     1       0.037  10.708  21.752  0.00  0.00    +0.000 A 
ATOM     20  C   UNL     1       0.431   9.603  22.512  0.00  0.00    +0.000 A 
ATOM     21  C   UNL     1       1.064   8.511  21.905  0.00  0.00    +0.000 A 
ENDBRANCH  13  16
ENDBRANCH   6  12
BRANCH   1  22
ATOM     22  N   UNL     1       1.895   3.594  21.683  0.00  0.00    +0.000 N 
ATOM     23  H   UNL     1       2.261   3.832  22.600  0.00  0.00    +0.000 HD
ATOM     24  H   UNL     1       0.967   3.972  21.550  0.00  0.00    +0.000 HD
ENDBRANCH   1  22
TORSDOF 4
ENDMDL
MODEL 7
REMARK VINA RESULT:      -6.8      2.842      3.556
REMARK  Name = 
REMARK  4 active torsions:
REMARK  status: ('A' for Active; 'I' for Inactive)
REMARK    1  A    between atoms: N_1  and  C_2
REMARK    2  A    between atoms: C_5  and  C_6
REMARK    3  A    between atoms: C_12  and  N_13
REMARK    4  A    between atoms: C_14  and  C_16
REMARK                            x       y       z     vdW  Elec       q    Type
REMARK                         _______ _______ _______ _____ _____    ______ ____
ROOT
ATOM      1  C   UNL     1       6.669   4.971  17.618  0.00  0.00    +0.000 A 
ATOM      2  C   UNL     1       6.385   5.512  18.883  0.00  0.00    +0.000 A 
ATOM      3  C   UNL     1       5.212   5.183  19.573  0.00  0.00    +0.000 A 
ATOM      4  C   UNL     1       4.273   4.321  19.005  0.00  0.00    +0.000 A 
ATOM      5  C   UNL     1       4.532   3.828  17.716  0.00  0.00    +0.000 A 
ATOM      6  C   UNL     1       5.692   4.164  16.997  0.00  0.00    +0.000 A 
ENDROOT
BRANCH   4   7
ATOM      7  C   UNL     1       3.024   3.948  19.694  0.00  0.00    +0.000 A 
ATOM      8  C   UNL     1       1.745   4.445  19.493  0.00  0.00    +0.000 A 
ATOM      9  C   UNL     1       0.767   3.824  20.323  0.00  0.00    +0.000 A 
ATOM     10  C   UNL     1       1.323   2.865  21.137  0.00  0.00    +0.000 A 
ATOM     11  S   UNL     1       3.007   2.714  20.893  0.00  0.00    +0.000 S 
ENDBRANCH   4   7
BRANCH   6  12
ATOM     12  N   UNL     1       5.915   3.666  15.679  0.00  0.00    +0.000 N 
ATOM     13  C   UNL     1       5.891   4.423  14.516  0.00  0.00    +0.000 C 
ATOM     14  O   UNL     1       5.832   5.649  14.464  0.00  0.00    +0.000 OA
ATOM     15  H   UNL     1       6.143   2.689  15.617  0.00  0.00    +0.000 HD
BRANCH  13  16
ATOM     16  C   UNL     1       5.916   3.694  13.213  0.00  0.00    +0.000 A 
ATOM     17  C   UNL     1       4.676   3.469  12.591  0.00  0.00    +0.000 A 
ATOM     18  C   UNL     1       4.597   2.795  11.372  0.00  0.00    +0.000 A 
ATOM     19  C   UNL     1       5.761   2.342  10.760  0.00  0.00    +0.000 A 
ATOM     20  C   UNL     1       7.001   2.573  11.361  0.00  0.00    +0.000 A 
ATOM     21  C   UNL     1       7.084   3.249  12.584  0.00  0.00    +0.000 A 
ENDBRANCH  13  16
ENDBRANCH   6  12
BRANCH   1  22
ATOM     22  N   UNL     1       7.804   5.460  16.941  0.00  0.00    +0.000 N 
ATOM     23  H   UNL     1       7.570   6.078  16.169  0.00  0.00    +0.000 HD
ATOM     24  H   UNL     1       8.520   5.863  17.529  0.00  0.00    +0.000 HD
ENDBRANCH   1  22
TORSDOF 4
ENDMDL
MODEL 8
REMARK VINA RESULT:      -6.7      4.966      9.238
REMARK  Name = 
REMARK  4 active torsions:
REMARK  status: ('A' for Active; 'I' for Inactive)
REMARK    1  A    between atoms: N_1  and  C_2
REMARK    2  A    between atoms: C_5  and  C_6
REMARK    3  A    between atoms: C_12  and  N_13
REMARK    4  A    between atoms: C_14  and  C_16
REMARK                            x       y       z     vdW  Elec       q    Type
REMARK                         _______ _______ _______ _____ _____    ______ ____
ROOT
ATOM      1  C   UNL     1       2.115   9.027  18.194  0.00  0.00    +0.000 A 
ATOM      2  C   UNL     1       3.042   8.099  17.690  0.00  0.00    +0.000 A 
ATOM      3  C   UNL     1       3.198   6.834  18.268  0.00  0.00    +0.000 A 
ATOM      4  C   UNL     1       2.449   6.468  19.387  0.00  0.00    +0.000 A 
ATOM      5  C   UNL     1       1.565   7.420  19.924  0.00  0.00    +0.000 A 
ATOM      6  C   UNL     1       1.410   8.703  19.373  0.00  0.00    +0.000 A 
ENDROOT
BRANCH   4   7
ATOM      7  C   UNL     1       2.581   5.148  20.031  0.00  0.00    +0.000 A 
ATOM      8  C   UNL     1       1.854   4.627  21.090  0.00  0.00    +0.000 A 
ATOM      9  C   UNL     1       2.236   3.297  21.429  0.00  0.00    +0.000 A 
ATOM     10  C   UNL     1       3.246   2.833  20.620  0.00  0.00    +0.000 A 
ATOM     11  S   UNL     1       3.719   3.993  19.458  0.00  0.00    +0.000 S 
ENDBRANCH   4   7
BRANCH   6  12
ATOM     12  N   UNL     1       0.523   9.655  19.955  0.00  0.00    +0.000 N 
ATOM     13  C   UNL     1       0.557  10.088  21.274  0.00  0.00    +0.000 C 
ATOM     14  O   UNL     1       1.446   9.838  22.083  0.00  0.00    +0.000 OA
ATOM     15  H   UNL     1      -0.151  10.060  19.330  0.00  0.00    +0.000 HD
BRANCH  13  16
ATOM     16  C   UNL     1      -0.589  10.911  21.764  0.00  0.00    +0.000 A 
ATOM     17  C   UNL     1      -1.172  11.795  20.839  0.00  0.00    +0.000 A 
ATOM     18  C   UNL     1      -2.247  12.607  21.204  0.00  0.00    +0.000 A 
ATOM     19  C   UNL     1      -2.754  12.537  22.497  0.00  0.00    +0.000 A 
ATOM     20  C   UNL     1      -2.192  11.651  23.420  0.00  0.00    +0.000 A 
ATOM     21  C   UNL     1      -1.114  10.835  23.058  0.00  0.00    +0.000 A 
ENDBRANCH  13  16
ENDBRANCH   6  12
BRANCH   1  22
ATOM     22  N   UNL     1       2.120  10.321  17.635  0.00  0.00    +0.000 N 
ATOM     23  H   UNL     1       2.822  10.929  18.046  0.00  0.00    +0.000 HD
ATOM     24  H   UNL     1       2.150  10.357  16.625  0.00  0.00    +0.000 HD
ENDBRANCH   1  22
TORSDOF 4
ENDMDL
MODEL 9
REMARK VINA RESULT:      -6.7      0.997      1.581
REMARK  Name = 
REMARK  4 active torsions:
REMARK  status: ('A' for Active; 'I' for Inactive)
REMARK    1  A    between atoms: N_1  and  C_2
REMARK    2  A    between atoms: C_5  and  C_6
REMARK    3  A    between atoms: C_12  and  N_13
REMARK    4  A    between atoms: C_14  and  C_16
REMARK                            x       y       z     vdW  Elec       q    Type
REMARK                         _______ _______ _______ _____ _____    ______ ____
ROOT
ATOM      1  C   UNL     1       3.309   3.913  18.983  0.00  0.00    +0.000 A 
ATOM      2  C   UNL     1       2.758   4.245  20.232  0.00  0.00    +0.000 A 
ATOM      3  C   UNL     1       2.221   5.513  20.481  0.00  0.00    +0.000 A 
ATOM      4  C   UNL     1       2.246   6.500  19.494  0.00  0.00    +0.000 A 
ATOM      5  C   UNL     1       2.850   6.183  18.266  0.00  0.00    +0.000 A 
ATOM      6  C   UNL     1       3.415   4.924  18.004  0.00  0.00    +0.000 A 
ENDROOT
BRANCH   4   7
ATOM      7  C   UNL     1       1.695   7.850  19.711  0.00  0.00    +0.000 A 
ATOM      8  C   UNL     1       1.231   8.414  20.889  0.00  0.00    +0.000 A 
ATOM      9  C   UNL     1       0.797   9.763  20.731  0.00  0.00    +0.000 A 
ATOM     10  C   UNL     1       0.941  10.196  19.434  0.00  0.00    +0.000 A 
ATOM     11  S   UNL     1       1.602   8.988  18.424  0.00  0.00    +0.000 S 
ENDBRANCH   4   7
BRANCH   6  12
ATOM     12  N   UNL     1       4.044   4.641  16.756  0.00  0.00    +0.000 N 
ATOM     13  C   UNL     1       5.406   4.457  16.562  0.00  0.00    +0.000 C 
ATOM     14  O   UNL     1       6.245   4.353  17.453  0.00  0.00    +0.000 OA
ATOM     15  H   UNL     1       3.425   4.535  15.971  0.00  0.00    +0.000 HD
BRANCH  13  16
ATOM     16  C   UNL     1       5.906   4.400  15.156  0.00  0.00    +0.000 A 
ATOM     17  C   UNL     1       7.186   4.929  14.919  0.00  0.00    +0.000 A 
ATOM     18  C   UNL     1       7.738   4.924  13.637  0.00  0.00    +0.000 A 
ATOM     19  C   UNL     1       7.016   4.382  12.580  0.00  0.00    +0.000 A 
ATOM     20  C   UNL     1       5.748   3.839  12.806  0.00  0.00    +0.000 A 
ATOM     21  C   UNL     1       5.191   3.843  14.091  0.00  0.00    +0.000 A 
ENDBRANCH  13  16
ENDBRANCH   6  12
BRANCH   1  22
ATOM     22  N   UNL     1       3.945   2.661  18.864  0.00  0.00    +0.000 N 
ATOM     23  H   UNL     1       4.200   2.434  17.907  0.00  0.00    +0.000 HD
ATOM     24  H   UNL     1       4.719   2.505  19.496  0.00  0.00    +0.000 HD
ENDBRANCH   1  22
TORSDOF 4
ENDMDL
