MODEL 1
REMARK VINA RESULT:      -9.9      0.000      0.000
REMARK  Name = 
REMARK  5 active torsions:
REMARK  status: ('A' for Active; 'I' for Inactive)
REMARK    1  A    between atoms: C_2  and  C_3
REMARK    2  A    between atoms: C_2  and  C_26
REMARK    3  A    between atoms: C_3  and  C_4
REMARK    4  A    between atoms: C_4  and  N_5
REMARK    5  A    between atoms: N_17  and  C_18
REMARK                            x       y       z     vdW  Elec       q    Type
REMARK                         _______ _______ _______ _____ _____    ______ ____
ROOT
ATOM      1  N   UNL     1       1.546   8.541  20.093  0.00  0.00    +0.000 NA
ATOM      2  C   UNL     1       1.733   8.600  18.627  0.00  0.00    +0.000 C 
ATOM      3  C   UNL     1       3.023   7.855  18.211  0.00  0.00    +0.000 C 
ATOM      4  C   UNL     1       3.060   6.488  18.841  0.00  0.00    +0.000 A 
ATOM      5  C   UNL     1       2.225   6.180  19.894  0.00  0.00    +0.000 A 
ATOM      6  C   UNL     1       2.455   4.870  20.213  0.00  0.00    +0.000 A 
ATOM      7  C   UNL     1       1.891   4.076  21.211  0.00  0.00    +0.000 A 
ATOM      8  C   UNL     1       2.357   2.760  21.345  0.00  0.00    +0.000 A 
ATOM      9  F   UNL     1       1.841   1.955  22.306  0.00  0.00    +0.000 F 
ATOM     10  C   UNL     1       3.373   2.279  20.499  0.00  0.00    +0.000 A 
ATOM     11  C   UNL     1       3.927   3.102  19.504  0.00  0.00    +0.000 A 
ATOM     12  C   UNL     1       3.437   4.413  19.361  0.00  0.00    +0.000 A 
ATOM     13  N   UNL     1       3.816   5.398  18.491  0.00  0.00    +0.000 N 
ATOM     14  C   UNL     1       1.288   7.148  20.546  0.00  0.00    +0.000 C 
ENDROOT
BRANCH  13  15
ATOM     15  C   UNL     1       4.802   5.299  17.422  0.00  0.00    +0.000 A 
ATOM     16  C   UNL     1       6.059   5.936  17.532  0.00  0.00    +0.000 A 
ATOM     17  C   UNL     1       6.995   5.871  16.498  0.00  0.00    +0.000 A 
ATOM     18  C   UNL     1       6.705   5.162  15.335  0.00  0.00    +0.000 A 
ATOM     19  F   UNL     1       7.613   5.108  14.329  0.00  0.00    +0.000 F 
ATOM     20  C   UNL     1       5.482   4.504  15.212  0.00  0.00    +0.000 A 
ATOM     21  C   UNL     1       4.540   4.568  16.244  0.00  0.00    +0.000 A 
ENDBRANCH  13  15
BRANCH   1  22
ATOM     22  C   UNL     1       0.467   9.464  20.524  0.00  0.00    +0.000 C 
BRANCH  22  23
ATOM     23  C   UNL     1       0.297  10.670  19.568  0.00  0.00    +0.000 C 
BRANCH  23  25
ATOM     24  O   UNL     1      -1.596  11.782  20.451  0.00  0.00    +0.000 OA
ATOM     25  C   UNL     1      -1.129  11.176  19.496  0.00  0.00    +0.000 C 
BRANCH  25  26
ATOM     26  C   UNL     1      -1.998  10.925  18.308  0.00  0.00    +0.000 A 
ATOM     27  C   UNL     1      -1.581  10.006  17.326  0.00  0.00    +0.000 A 
ATOM     28  C   UNL     1      -2.354   9.776  16.185  0.00  0.00    +0.000 A 
ATOM     29  C   UNL     1      -3.556  10.461  16.004  0.00  0.00    +0.000 A 
ATOM     30  F   UNL     1      -4.297  10.245  14.890  0.00  0.00    +0.000 F 
ATOM     31  C   UNL     1      -3.991  11.371  16.971  0.00  0.00    +0.000 A 
ATOM     32  C   UNL     1      -3.222  11.603  18.119  0.00  0.00    +0.000 A 
ENDBRANCH  25  26
ENDBRANCH  23  25
ENDBRANCH  22  23
ENDBRANCH   1  22
TORSDOF 5
ENDMDL
MODEL 2
REMARK VINA RESULT:      -9.7      2.802      3.490
REMARK  Name = 
REMARK  5 active torsions:
REMARK  status: ('A' for Active; 'I' for Inactive)
REMARK    1  A    between atoms: C_2  and  C_3
REMARK    2  A    between atoms: C_2  and  C_26
REMARK    3  A    between atoms: C_3  and  C_4
REMARK    4  A    between atoms: C_4  and  N_5
REMARK    5  A    between atoms: N_17  and  C_18
REMARK                            x       y       z     vdW  Elec       q    Type
REMARK                         _______ _______ _______ _____ _____    ______ ____
ROOT
ATOM      1  N   UNL     1       1.550   8.673  19.887  0.00  0.00    +0.000 NA
ATOM      2  C   UNL     1       1.753   8.692  18.423  0.00  0.00    +0.000 C 
ATOM      3  C   UNL     1       3.048   7.937  18.041  0.00  0.00    +0.000 C 
ATOM      4  C   UNL     1       3.080   6.588  18.709  0.00  0.00    +0.000 A 
ATOM      5  C   UNL     1       2.234   6.309  19.762  0.00  0.00    +0.000 A 
ATOM      6  C   UNL     1       2.462   5.009  20.119  0.00  0.00    +0.000 A 
ATOM      7  C   UNL     1       1.888   4.242  21.132  0.00  0.00    +0.000 A 
ATOM      8  C   UNL     1       2.354   2.931  21.308  0.00  0.00    +0.000 A 
ATOM      9  F   UNL     1       1.828   2.152  22.285  0.00  0.00    +0.000 F 
ATOM     10  C   UNL     1       3.380   2.427  20.487  0.00  0.00    +0.000 A 
ATOM     11  C   UNL     1       3.943   3.223  19.476  0.00  0.00    +0.000 A 
ATOM     12  C   UNL     1       3.454   4.529  19.291  0.00  0.00    +0.000 A 
ATOM     13  N   UNL     1       3.841   5.491  18.398  0.00  0.00    +0.000 N 
ATOM     14  C   UNL     1       1.289   7.294  20.377  0.00  0.00    +0.000 C 
ENDROOT
BRANCH  13  15
ATOM     15  C   UNL     1       4.838   5.363  17.342  0.00  0.00    +0.000 A 
ATOM     16  C   UNL     1       4.570   4.611  16.177  0.00  0.00    +0.000 A 
ATOM     17  C   UNL     1       5.533   4.459  15.176  0.00  0.00    +0.000 A 
ATOM     18  C   UNL     1       6.780   5.063  15.310  0.00  0.00    +0.000 A 
ATOM     19  F   UNL     1       7.716   4.906  14.341  0.00  0.00    +0.000 F 
ATOM     20  C   UNL     1       7.062   5.830  16.439  0.00  0.00    +0.000 A 
ATOM     21  C   UNL     1       6.101   5.984  17.445  0.00  0.00    +0.000 A 
ENDBRANCH  13  15
BRANCH   1  22
ATOM     22  C   UNL     1       0.466   9.606  20.281  0.00  0.00    +0.000 C 
BRANCH  22  23
ATOM     23  C   UNL     1      -0.319   9.118  21.524  0.00  0.00    +0.000 C 
BRANCH  23  25
ATOM     24  O   UNL     1       0.450   9.742  23.673  0.00  0.00    +0.000 OA
ATOM     25  C   UNL     1      -0.219  10.066  22.701  0.00  0.00    +0.000 C 
BRANCH  25  26
ATOM     26  C   UNL     1      -0.946  11.370  22.731  0.00  0.00    +0.000 A 
ATOM     27  C   UNL     1      -2.220  11.440  23.329  0.00  0.00    +0.000 A 
ATOM     28  C   UNL     1      -2.940  12.637  23.340  0.00  0.00    +0.000 A 
ATOM     29  C   UNL     1      -2.403  13.784  22.754  0.00  0.00    +0.000 A 
ATOM     30  F   UNL     1      -3.112  14.939  22.755  0.00  0.00    +0.000 F 
ATOM     31  C   UNL     1      -1.139  13.736  22.163  0.00  0.00    +0.000 A 
ATOM     32  C   UNL     1      -0.409  12.540  22.151  0.00  0.00    +0.000 A 
ENDBRANCH  25  26
ENDBRANCH  23  25
ENDBRANCH  22  23
ENDBRANCH   1  22
TORSDOF 5
ENDMDL
MODEL 3
REMARK VINA RESULT:      -9.4      0.955      1.369
REMARK  Name = 
REMARK  5 active torsions:
REMARK  status: ('A' for Active; 'I' for Inactive)
REMARK    1  A    between atoms: C_2  and  C_3
REMARK    2  A    between atoms: C_2  and  C_26
REMARK    3  A    between atoms: C_3  and  C_4
REMARK    4  A    between atoms: C_4  and  N_5
REMARK    5  A    between atoms: N_17  and  C_18
REMARK                            x       y       z     vdW  Elec       q    Type
REMARK                         _______ _______ _______ _____ _____    ______ ____
ROOT
ATOM      1  N   UNL     1       1.618   8.776  19.613  0.00  0.00    +0.000 NA
ATOM      2  C   UNL     1       1.828   8.723  18.150  0.00  0.00    +0.000 C 
ATOM      3  C   UNL     1       3.114   7.933  17.812  0.00  0.00    +0.000 C 
ATOM      4  C   UNL     1       3.123   6.617  18.543  0.00  0.00    +0.000 A 
ATOM      5  C   UNL     1       2.268   6.399  19.603  0.00  0.00    +0.000 A 
ATOM      6  C   UNL     1       2.476   5.114  20.022  0.00  0.00    +0.000 A 
ATOM      7  C   UNL     1       1.885   4.404  21.067  0.00  0.00    +0.000 A 
ATOM      8  C   UNL     1       2.331   3.096  21.307  0.00  0.00    +0.000 A 
ATOM      9  F   UNL     1       1.790   2.372  22.317  0.00  0.00    +0.000 F 
ATOM     10  C   UNL     1       3.354   2.540  20.516  0.00  0.00    +0.000 A 
ATOM     11  C   UNL     1       3.934   3.279  19.472  0.00  0.00    +0.000 A 
ATOM     12  C   UNL     1       3.464   4.582  19.223  0.00  0.00    +0.000 A 
ATOM     13  N   UNL     1       3.870   5.495  18.288  0.00  0.00    +0.000 N 
ATOM     14  C   UNL     1       1.334   7.425  20.165  0.00  0.00    +0.000 C 
ENDROOT
BRANCH  13  15
ATOM     15  C   UNL     1       4.870   5.304  17.245  0.00  0.00    +0.000 A 
ATOM     16  C   UNL     1       6.137   5.923  17.334  0.00  0.00    +0.000 A 
ATOM     17  C   UNL     1       7.089   5.769  16.323  0.00  0.00    +0.000 A 
ATOM     18  C   UNL     1       6.804   4.987  15.207  0.00  0.00    +0.000 A 
ATOM     19  F   UNL     1       7.726   4.847  14.223  0.00  0.00    +0.000 F 
ATOM     20  C   UNL     1       5.569   4.345  15.107  0.00  0.00    +0.000 A 
ATOM     21  C   UNL     1       4.612   4.498  16.117  0.00  0.00    +0.000 A 
ENDBRANCH  13  15
BRANCH   1  22
ATOM     22  C   UNL     1       0.546   9.742  19.957  0.00  0.00    +0.000 C 
BRANCH  22  23
ATOM     23  C   UNL     1      -0.306  10.149  18.729  0.00  0.00    +0.000 C 
BRANCH  23  25
ATOM     24  O   UNL     1      -0.575  12.346  19.566  0.00  0.00    +0.000 OA
ATOM     25  C   UNL     1      -1.091  11.426  18.945  0.00  0.00    +0.000 C 
BRANCH  25  26
ATOM     26  C   UNL     1      -2.494  11.586  18.458  0.00  0.00    +0.000 A 
ATOM     27  C   UNL     1      -3.485  12.056  19.342  0.00  0.00    +0.000 A 
ATOM     28  C   UNL     1      -4.813  12.181  18.927  0.00  0.00    +0.000 A 
ATOM     29  C   UNL     1      -5.175  11.838  17.623  0.00  0.00    +0.000 A 
ATOM     30  F   UNL     1      -6.467  11.949  17.229  0.00  0.00    +0.000 F 
ATOM     31  C   UNL     1      -4.205  11.378  16.730  0.00  0.00    +0.000 A 
ATOM     32  C   UNL     1      -2.871  11.253  17.139  0.00  0.00    +0.000 A 
ENDBRANCH  25  26
ENDBRANCH  23  25
ENDBRANCH  22  23
ENDBRANCH   1  22
TORSDOF 5
ENDMDL
MODEL 4
REMARK VINA RESULT:      -9.4      2.559      3.076
REMARK  Name = 
REMARK  5 active torsions:
REMARK  status: ('A' for Active; 'I' for Inactive)
REMARK    1  A    between atoms: C_2  and  C_3
REMARK    2  A    between atoms: C_2  and  C_26
REMARK    3  A    between atoms: C_3  and  C_4
REMARK    4  A    between atoms: C_4  and  N_5
REMARK    5  A    between atoms: N_17  and  C_18
REMARK                            x       y       z     vdW  Elec       q    Type
REMARK                         _______ _______ _______ _____ _____    ______ ____
ROOT
ATOM      1  N   UNL     1       1.745   8.782  19.669  0.00  0.00    +0.000 NA
ATOM      2  C   UNL     1       1.924   8.740  18.202  0.00  0.00    +0.000 C 
ATOM      3  C   UNL     1       3.185   7.926  17.829  0.00  0.00    +0.000 C 
ATOM      4  C   UNL     1       3.180   6.602  18.545  0.00  0.00    +0.000 A 
ATOM      5  C   UNL     1       2.342   6.391  19.620  0.00  0.00    +0.000 A 
ATOM      6  C   UNL     1       2.530   5.098  20.022  0.00  0.00    +0.000 A 
ATOM      7  C   UNL     1       1.946   4.390  21.072  0.00  0.00    +0.000 A 
ATOM      8  C   UNL     1       2.368   3.070  21.289  0.00  0.00    +0.000 A 
ATOM      9  F   UNL     1       1.831   2.346  22.302  0.00  0.00    +0.000 F 
ATOM     10  C   UNL     1       3.361   2.500  20.471  0.00  0.00    +0.000 A 
ATOM     11  C   UNL     1       3.936   3.238  19.423  0.00  0.00    +0.000 A 
ATOM     12  C   UNL     1       3.490   4.553  19.198  0.00  0.00    +0.000 A 
ATOM     13  N   UNL     1       3.897   5.467  18.263  0.00  0.00    +0.000 N 
ATOM     14  C   UNL     1       1.443   7.431  20.213  0.00  0.00    +0.000 C 
ENDROOT
BRANCH  13  15
ATOM     15  C   UNL     1       4.871   5.265  17.199  0.00  0.00    +0.000 A 
ATOM     16  C   UNL     1       6.152   5.859  17.265  0.00  0.00    +0.000 A 
ATOM     17  C   UNL     1       7.079   5.695  16.233  0.00  0.00    +0.000 A 
ATOM     18  C   UNL     1       6.755   4.928  15.117  0.00  0.00    +0.000 A 
ATOM     19  F   UNL     1       7.653   4.779  14.113  0.00  0.00    +0.000 F 
ATOM     20  C   UNL     1       5.506   4.312  15.038  0.00  0.00    +0.000 A 
ATOM     21  C   UNL     1       4.573   4.474  16.069  0.00  0.00    +0.000 A 
ENDBRANCH  13  15
BRANCH   1  22
ATOM     22  C   UNL     1       0.701   9.767  20.044  0.00  0.00    +0.000 C 
BRANCH  22  23
ATOM     23  C   UNL     1      -0.228   9.252  21.171  0.00  0.00    +0.000 C 
BRANCH  23  25
ATOM     24  O   UNL     1       0.300  10.065  23.330  0.00  0.00    +0.000 OA
ATOM     25  C   UNL     1      -0.370  10.230  22.320  0.00  0.00    +0.000 C 
BRANCH  25  26
ATOM     26  C   UNL     1      -1.334  11.370  22.274  0.00  0.00    +0.000 A 
ATOM     27  C   UNL     1      -2.179  11.607  23.375  0.00  0.00    +0.000 A 
ATOM     28  C   UNL     1      -3.116  12.642  23.348  0.00  0.00    +0.000 A 
ATOM     29  C   UNL     1      -3.227  13.458  22.221  0.00  0.00    +0.000 A 
ATOM     30  F   UNL     1      -4.147  14.454  22.195  0.00  0.00    +0.000 F 
ATOM     31  C   UNL     1      -2.392  13.244  21.123  0.00  0.00    +0.000 A 
ATOM     32  C   UNL     1      -1.447  12.209  21.144  0.00  0.00    +0.000 A 
ENDBRANCH  25  26
ENDBRANCH  23  25
ENDBRANCH  22  23
ENDBRANCH   1  22
TORSDOF 5
ENDMDL
MODEL 5
REMARK VINA RESULT:      -9.3      0.645      1.404
REMARK  Name = 
REMARK  5 active torsions:
REMARK  status: ('A' for Active; 'I' for Inactive)
REMARK    1  A    between atoms: C_2  and  C_3
REMARK    2  A    between atoms: C_2  and  C_26
REMARK    3  A    between atoms: C_3  and  C_4
REMARK    4  A    between atoms: C_4  and  N_5
REMARK    5  A    between atoms: N_17  and  C_18
REMARK                            x       y       z     vdW  Elec       q    Type
REMARK                         _______ _______ _______ _____ _____    ______ ____
ROOT
ATOM      1  N   UNL     1       1.622   8.579  19.946  0.00  0.00    +0.000 NA
ATOM      2  C   UNL     1       1.796   8.611  18.478  0.00  0.00    +0.000 C 
ATOM      3  C   UNL     1       3.082   7.859  18.064  0.00  0.00    +0.000 C 
ATOM      4  C   UNL     1       3.126   6.504  18.718  0.00  0.00    +0.000 A 
ATOM      5  C   UNL     1       2.300   6.215  19.784  0.00  0.00    +0.000 A 
ATOM      6  C   UNL     1       2.534   4.911  20.125  0.00  0.00    +0.000 A 
ATOM      7  C   UNL     1       1.978   4.135  21.142  0.00  0.00    +0.000 A 
ATOM      8  C   UNL     1       2.446   2.822  21.296  0.00  0.00    +0.000 A 
ATOM      9  F   UNL     1       1.938   2.034  22.276  0.00  0.00    +0.000 F 
ATOM     10  C   UNL     1       3.455   2.326  20.450  0.00  0.00    +0.000 A 
ATOM     11  C   UNL     1       4.000   3.131  19.436  0.00  0.00    +0.000 A 
ATOM     12  C   UNL     1       3.509   4.439  19.273  0.00  0.00    +0.000 A 
ATOM     13  N   UNL     1       3.880   5.408  18.382  0.00  0.00    +0.000 N 
ATOM     14  C   UNL     1       1.368   7.195  20.427  0.00  0.00    +0.000 C 
ENDROOT
BRANCH  13  15
ATOM     15  C   UNL     1       4.856   5.290  17.307  0.00  0.00    +0.000 A 
ATOM     16  C   UNL     1       4.575   4.525  16.152  0.00  0.00    +0.000 A 
ATOM     17  C   UNL     1       5.519   4.383  15.132  0.00  0.00    +0.000 A 
ATOM     18  C   UNL     1       6.759   5.008  15.235  0.00  0.00    +0.000 A 
ATOM     19  F   UNL     1       7.677   4.860  14.247  0.00  0.00    +0.000 F 
ATOM     20  C   UNL     1       7.052   5.788  16.353  0.00  0.00    +0.000 A 
ATOM     21  C   UNL     1       6.110   5.932  17.378  0.00  0.00    +0.000 A 
ENDBRANCH  13  15
BRANCH   1  22
ATOM     22  C   UNL     1       0.546   9.509  20.370  0.00  0.00    +0.000 C 
BRANCH  22  23
ATOM     23  C   UNL     1       0.811  10.969  19.924  0.00  0.00    +0.000 C 
BRANCH  23  25
ATOM     24  O   UNL     1      -0.520  12.738  20.759  0.00  0.00    +0.000 OA
ATOM     25  C   UNL     1      -0.434  11.832  19.942  0.00  0.00    +0.000 C 
BRANCH  25  26
ATOM     26  C   UNL     1      -1.579  11.587  19.016  0.00  0.00    +0.000 A 
ATOM     27  C   UNL     1      -2.865  12.041  19.370  0.00  0.00    +0.000 A 
ATOM     28  C   UNL     1      -3.964  11.796  18.543  0.00  0.00    +0.000 A 
ATOM     29  C   UNL     1      -3.799  11.092  17.349  0.00  0.00    +0.000 A 
ATOM     30  F   UNL     1      -4.870  10.845  16.556  0.00  0.00    +0.000 F 
ATOM     31  C   UNL     1      -2.530  10.641  16.977  0.00  0.00    +0.000 A 
ATOM     32  C   UNL     1      -1.424  10.886  17.800  0.00  0.00    +0.000 A 
ENDBRANCH  25  26
ENDBRANCH  23  25
ENDBRANCH  22  23
ENDBRANCH   1  22
TORSDOF 5
ENDMDL
MODEL 6
REMARK VINA RESULT:      -9.3      2.395      2.906
REMARK  Name = 
REMARK  5 active torsions:
REMARK  status: ('A' for Active; 'I' for Inactive)
REMARK    1  A    between atoms: C_2  and  C_3
REMARK    2  A    between atoms: C_2  and  C_26
REMARK    3  A    between atoms: C_3  and  C_4
REMARK    4  A    between atoms: C_4  and  N_5
REMARK    5  A    between atoms: N_17  and  C_18
REMARK                            x       y       z     vdW  Elec       q    Type
REMARK                         _______ _______ _______ _____ _____    ______ ____
ROOT
ATOM      1  N   UNL     1       1.622   8.768  19.603  0.00  0.00    +0.000 NA
ATOM      2  C   UNL     1       1.839   8.718  18.142  0.00  0.00    +0.000 C 
ATOM      3  C   UNL     1       3.124   7.925  17.808  0.00  0.00    +0.000 C 
ATOM      4  C   UNL     1       3.126   6.607  18.535  0.00  0.00    +0.000 A 
ATOM      5  C   UNL     1       2.264   6.389  19.590  0.00  0.00    +0.000 A 
ATOM      6  C   UNL     1       2.466   5.103  20.008  0.00  0.00    +0.000 A 
ATOM      7  C   UNL     1       1.869   4.392  21.048  0.00  0.00    +0.000 A 
ATOM      8  C   UNL     1       2.310   3.082  21.287  0.00  0.00    +0.000 A 
ATOM      9  F   UNL     1       1.761   2.357  22.293  0.00  0.00    +0.000 F 
ATOM     10  C   UNL     1       3.334   2.525  20.500  0.00  0.00    +0.000 A 
ATOM     11  C   UNL     1       3.922   3.265  19.460  0.00  0.00    +0.000 A 
ATOM     12  C   UNL     1       3.457   4.570  19.212  0.00  0.00    +0.000 A 
ATOM     13  N   UNL     1       3.870   5.483  18.281  0.00  0.00    +0.000 N 
ATOM     14  C   UNL     1       1.331   7.417  20.151  0.00  0.00    +0.000 C 
ENDROOT
BRANCH  13  15
ATOM     15  C   UNL     1       4.875   5.292  17.243  0.00  0.00    +0.000 A 
ATOM     16  C   UNL     1       6.144   5.905  17.340  0.00  0.00    +0.000 A 
ATOM     17  C   UNL     1       7.101   5.751  16.333  0.00  0.00    +0.000 A 
ATOM     18  C   UNL     1       6.817   4.974  15.213  0.00  0.00    +0.000 A 
ATOM     19  F   UNL     1       7.744   4.834  14.233  0.00  0.00    +0.000 F 
ATOM     20  C   UNL     1       5.581   4.338  15.105  0.00  0.00    +0.000 A 
ATOM     21  C   UNL     1       4.619   4.491  16.110  0.00  0.00    +0.000 A 
ENDBRANCH  13  15
BRANCH   1  22
ATOM     22  C   UNL     1       0.550   9.737  19.944  0.00  0.00    +0.000 C 
BRANCH  22  23
ATOM     23  C   UNL     1       0.668  10.270  21.393  0.00  0.00    +0.000 C 
BRANCH  23  25
ATOM     24  O   UNL     1       0.974  12.616  21.456  0.00  0.00    +0.000 OA
ATOM     25  C   UNL     1       0.174  11.695  21.545  0.00  0.00    +0.000 C 
BRANCH  25  26
ATOM     26  C   UNL     1      -1.255  12.009  21.840  0.00  0.00    +0.000 A 
ATOM     27  C   UNL     1      -2.100  12.436  20.796  0.00  0.00    +0.000 A 
ATOM     28  C   UNL     1      -3.433  12.773  21.046  0.00  0.00    +0.000 A 
ATOM     29  C   UNL     1      -3.945  12.692  22.341  0.00  0.00    +0.000 A 
ATOM     30  F   UNL     1      -5.235  13.032  22.581  0.00  0.00    +0.000 F 
ATOM     31  C   UNL     1      -3.125  12.263  23.388  0.00  0.00    +0.000 A 
ATOM     32  C   UNL     1      -1.789  11.921  23.144  0.00  0.00    +0.000 A 
ENDBRANCH  25  26
ENDBRANCH  23  25
ENDBRANCH  22  23
ENDBRANCH   1  22
TORSDOF 5
ENDMDL
MODEL 7
REMARK VINA RESULT:      -9.3      2.429      2.999
REMARK  Name = 
REMARK  5 active torsions:
REMARK  status: ('A' for Active; 'I' for Inactive)
REMARK    1  A    between atoms: C_2  and  C_3
REMARK    2  A    between atoms: C_2  and  C_26
REMARK    3  A    between atoms: C_3  and  C_4
REMARK    4  A    between atoms: C_4  and  N_5
REMARK    5  A    between atoms: N_17  and  C_18
REMARK                            x       y       z     vdW  Elec       q    Type
REMARK                         _______ _______ _______ _____ _____    ______ ____
ROOT
ATOM      1  N   UNL     1       1.609   8.728  19.736  0.00  0.00    +0.000 NA
ATOM      2  C   UNL     1       1.803   8.713  18.271  0.00  0.00    +0.000 C 
ATOM      3  C   UNL     1       3.090   7.940  17.899  0.00  0.00    +0.000 C 
ATOM      4  C   UNL     1       3.116   6.606  18.596  0.00  0.00    +0.000 A 
ATOM      5  C   UNL     1       2.274   6.357  19.660  0.00  0.00    +0.000 A 
ATOM      6  C   UNL     1       2.495   5.063  20.045  0.00  0.00    +0.000 A 
ATOM      7  C   UNL     1       1.921   4.323  21.078  0.00  0.00    +0.000 A 
ATOM      8  C   UNL     1       2.378   3.013  21.280  0.00  0.00    +0.000 A 
ATOM      9  F   UNL     1       1.852   2.260  22.278  0.00  0.00    +0.000 F 
ATOM     10  C   UNL     1       3.395   2.484  20.465  0.00  0.00    +0.000 A 
ATOM     11  C   UNL     1       3.959   3.253  19.433  0.00  0.00    +0.000 A 
ATOM     12  C   UNL     1       3.478   4.558  19.222  0.00  0.00    +0.000 A 
ATOM     13  N   UNL     1       3.867   5.496  18.305  0.00  0.00    +0.000 N 
ATOM     14  C   UNL     1       1.340   7.362  20.258  0.00  0.00    +0.000 C 
ENDROOT
BRANCH  13  15
ATOM     15  C   UNL     1       4.858   5.338  17.248  0.00  0.00    +0.000 A 
ATOM     16  C   UNL     1       4.585   4.544  16.111  0.00  0.00    +0.000 A 
ATOM     17  C   UNL     1       5.541   4.363  15.109  0.00  0.00    +0.000 A 
ATOM     18  C   UNL     1       6.786   4.978  15.212  0.00  0.00    +0.000 A 
ATOM     19  F   UNL     1       7.716   4.793  14.243  0.00  0.00    +0.000 F 
ATOM     20  C   UNL     1       7.072   5.786  16.312  0.00  0.00    +0.000 A 
ATOM     21  C   UNL     1       6.117   5.969  17.319  0.00  0.00    +0.000 A 
ENDBRANCH  13  15
BRANCH   1  22
ATOM     22  C   UNL     1       0.534   9.678  20.116  0.00  0.00    +0.000 C 
BRANCH  22  23
ATOM     23  C   UNL     1       0.896  11.149  19.792  0.00  0.00    +0.000 C 
BRANCH  23  25
ATOM     24  O   UNL     1       1.462  12.735  21.454  0.00  0.00    +0.000 OA
ATOM     25  C   UNL     1       0.560  12.106  20.916  0.00  0.00    +0.000 C 
BRANCH  25  26
ATOM     26  C   UNL     1      -0.836  12.280  21.417  0.00  0.00    +0.000 A 
ATOM     27  C   UNL     1      -1.139  11.947  22.753  0.00  0.00    +0.000 A 
ATOM     28  C   UNL     1      -2.442  12.063  23.241  0.00  0.00    +0.000 A 
ATOM     29  C   UNL     1      -3.466  12.512  22.406  0.00  0.00    +0.000 A 
ATOM     30  F   UNL     1      -4.732  12.611  22.881  0.00  0.00    +0.000 F 
ATOM     31  C   UNL     1      -3.184  12.855  21.082  0.00  0.00    +0.000 A 
ATOM     32  C   UNL     1      -1.878  12.744  20.586  0.00  0.00    +0.000 A 
ENDBRANCH  25  26
ENDBRANCH  23  25
ENDBRANCH  22  23
ENDBRANCH   1  22
TORSDOF 5
ENDMDL
MODEL 8
REMARK VINA RESULT:      -9.1      1.606      2.213
REMARK  Name = 
REMARK  5 active torsions:
REMARK  status: ('A' for Active; 'I' for Inactive)
REMARK    1  A    between atoms: C_2  and  C_3
REMARK    2  A    between atoms: C_2  and  C_26
REMARK    3  A    between atoms: C_3  and  C_4
REMARK    4  A    between atoms: C_4  and  N_5
REMARK    5  A    between atoms: N_17  and  C_18
REMARK                            x       y       z     vdW  Elec       q    Type
REMARK                         _______ _______ _______ _____ _____    ______ ____
ROOT
ATOM      1  N   UNL     1       1.604   8.772  19.645  0.00  0.00    +0.000 NA
ATOM      2  C   UNL     1       1.810   8.735  18.181  0.00  0.00    +0.000 C 
ATOM      3  C   UNL     1       3.101   7.958  17.831  0.00  0.00    +0.000 C 
ATOM      4  C   UNL     1       3.122   6.634  18.548  0.00  0.00    +0.000 A 
ATOM      5  C   UNL     1       2.272   6.400  19.608  0.00  0.00    +0.000 A 
ATOM      6  C   UNL     1       2.491   5.112  20.014  0.00  0.00    +0.000 A 
ATOM      7  C   UNL     1       1.909   4.387  21.054  0.00  0.00    +0.000 A 
ATOM      8  C   UNL     1       2.366   3.081  21.279  0.00  0.00    +0.000 A 
ATOM      9  F   UNL     1       1.833   2.342  22.284  0.00  0.00    +0.000 F 
ATOM     10  C   UNL     1       3.390   2.540  20.479  0.00  0.00    +0.000 A 
ATOM     11  C   UNL     1       3.961   3.294  19.441  0.00  0.00    +0.000 A 
ATOM     12  C   UNL     1       3.481   4.596  19.207  0.00  0.00    +0.000 A 
ATOM     13  N   UNL     1       3.876   5.521  18.279  0.00  0.00    +0.000 N 
ATOM     14  C   UNL     1       1.332   7.413  20.184  0.00  0.00    +0.000 C 
ENDROOT
BRANCH  13  15
ATOM     15  C   UNL     1       4.875   5.348  17.232  0.00  0.00    +0.000 A 
ATOM     16  C   UNL     1       4.617   4.524  16.113  0.00  0.00    +0.000 A 
ATOM     17  C   UNL     1       5.582   4.329  15.122  0.00  0.00    +0.000 A 
ATOM     18  C   UNL     1       6.820   4.959  15.217  0.00  0.00    +0.000 A 
ATOM     19  F   UNL     1       7.758   4.761  14.258  0.00  0.00    +0.000 F 
ATOM     20  C   UNL     1       7.090   5.796  16.299  0.00  0.00    +0.000 A 
ATOM     21  C   UNL     1       6.128   5.993  17.296  0.00  0.00    +0.000 A 
ENDBRANCH  13  15
BRANCH   1  22
ATOM     22  C   UNL     1       0.526   9.726  20.001  0.00  0.00    +0.000 C 
BRANCH  22  23
ATOM     23  C   UNL     1       0.247  10.757  18.880  0.00  0.00    +0.000 C 
BRANCH  23  25
ATOM     24  O   UNL     1      -1.340   9.946  17.323  0.00  0.00    +0.000 OA
ATOM     25  C   UNL     1      -1.151  10.649  18.306  0.00  0.00    +0.000 C 
BRANCH  25  26
ATOM     26  C   UNL     1      -2.303  11.406  18.881  0.00  0.00    +0.000 A 
ATOM     27  C   UNL     1      -2.110  12.185  20.039  0.00  0.00    +0.000 A 
ATOM     28  C   UNL     1      -3.176  12.876  20.622  0.00  0.00    +0.000 A 
ATOM     29  C   UNL     1      -4.451  12.799  20.062  0.00  0.00    +0.000 A 
ATOM     30  F   UNL     1      -5.485  13.460  20.639  0.00  0.00    +0.000 F 
ATOM     31  C   UNL     1      -4.660  12.038  18.909  0.00  0.00    +0.000 A 
ATOM     32  C   UNL     1      -3.596  11.346  18.317  0.00  0.00    +0.000 A 
ENDBRANCH  25  26
ENDBRANCH  23  25
ENDBRANCH  22  23
ENDBRANCH   1  22
TORSDOF 5
ENDMDL
MODEL 9
REMARK VINA RESULT:      -9.1      2.501      3.263
REMARK  Name = 
REMARK  5 active torsions:
REMARK  status: ('A' for Active; 'I' for Inactive)
REMARK    1  A    between atoms: C_2  and  C_3
REMARK    2  A    between atoms: C_2  and  C_26
REMARK    3  A    between atoms: C_3  and  C_4
REMARK    4  A    between atoms: C_4  and  N_5
REMARK    5  A    between atoms: N_17  and  C_18
REMARK                            x       y       z     vdW  Elec       q    Type
REMARK                         _______ _______ _______ _____ _____    ______ ____
ROOT
ATOM      1  N   UNL     1       1.700   8.727  19.771  0.00  0.00    +0.000 NA
ATOM      2  C   UNL     1       1.897   8.718  18.305  0.00  0.00    +0.000 C 
ATOM      3  C   UNL     1       3.164   7.915  17.930  0.00  0.00    +0.000 C 
ATOM      4  C   UNL     1       3.154   6.576  18.617  0.00  0.00    +0.000 A 
ATOM      5  C   UNL     1       2.303   6.340  19.677  0.00  0.00    +0.000 A 
ATOM      6  C   UNL     1       2.489   5.038  20.053  0.00  0.00    +0.000 A 
ATOM      7  C   UNL     1       1.893   4.306  21.079  0.00  0.00    +0.000 A 
ATOM      8  C   UNL     1       2.316   2.982  21.272  0.00  0.00    +0.000 A 
ATOM      9  F   UNL     1       1.768   2.236  22.263  0.00  0.00    +0.000 F 
ATOM     10  C   UNL     1       3.320   2.433  20.455  0.00  0.00    +0.000 A 
ATOM     11  C   UNL     1       3.907   3.195  19.430  0.00  0.00    +0.000 A 
ATOM     12  C   UNL     1       3.461   4.514  19.228  0.00  0.00    +0.000 A 
ATOM     13  N   UNL     1       3.876   5.448  18.319  0.00  0.00    +0.000 N 
ATOM     14  C   UNL     1       1.394   7.365  20.281  0.00  0.00    +0.000 C 
ENDROOT
BRANCH  13  15
ATOM     15  C   UNL     1       4.864   5.273  17.263  0.00  0.00    +0.000 A 
ATOM     16  C   UNL     1       6.151   5.848  17.369  0.00  0.00    +0.000 A 
ATOM     17  C   UNL     1       7.092   5.709  16.346  0.00  0.00    +0.000 A 
ATOM     18  C   UNL     1       6.776   4.986  15.199  0.00  0.00    +0.000 A 
ATOM     19  F   UNL     1       7.687   4.860  14.203  0.00  0.00    +0.000 F 
ATOM     20  C   UNL     1       5.521   4.388  15.080  0.00  0.00    +0.000 A 
ATOM     21  C   UNL     1       4.575   4.526  16.102  0.00  0.00    +0.000 A 
ENDBRANCH  13  15
BRANCH   1  22
ATOM     22  C   UNL     1       0.649   9.702  20.155  0.00  0.00    +0.000 C 
BRANCH  22  23
ATOM     23  C   UNL     1       0.048  10.443  18.935  0.00  0.00    +0.000 C 
BRANCH  23  25
ATOM     24  O   UNL     1      -1.408  12.161  19.662  0.00  0.00    +0.000 OA
ATOM     25  C   UNL     1      -0.297  11.889  19.226  0.00  0.00    +0.000 C 
BRANCH  25  26
ATOM     26  C   UNL     1       0.664  13.001  18.962  0.00  0.00    +0.000 A 
ATOM     27  C   UNL     1       0.235  14.335  19.102  0.00  0.00    +0.000 A 
ATOM     28  C   UNL     1       1.099  15.398  18.827  0.00  0.00    +0.000 A 
ATOM     29  C   UNL     1       2.406  15.147  18.407  0.00  0.00    +0.000 A 
ATOM     30  F   UNL     1       3.237  16.181  18.128  0.00  0.00    +0.000 F 
ATOM     31  C   UNL     1       2.852  13.831  18.270  0.00  0.00    +0.000 A 
ATOM     32  C   UNL     1       1.992  12.761  18.547  0.00  0.00    +0.000 A 
ENDBRANCH  25  26
ENDBRANCH  23  25
ENDBRANCH  22  23
ENDBRANCH   1  22
TORSDOF 5
ENDMDL
