MODEL 1
REMARK VINA RESULT:      -7.2      0.000      0.000
REMARK  Name = 
REMARK  14 active torsions:
REMARK  status: ('A' for Active; 'I' for Inactive)
REMARK    1  A    between atoms: N_1  and  C_2
REMARK    2  A    between atoms: N_10  and  C_11
REMARK    3  A    between atoms: C_13  and  C_14
REMARK    4  A    between atoms: C_14  and  O_15
REMARK    5  A    between atoms: O_15  and  S_16
REMARK    6  A    between atoms: S_16  and  N_19
REMARK    7  A    between atoms: C_20  and  C_22
REMARK    8  A    between atoms: C_22  and  N_23
REMARK    9  A    between atoms: C_22  and  C_24
REMARK   10  A    between atoms: C_24  and  C_25
REMARK   11  A    between atoms: C_25  and  C_26
REMARK   12  A    between atoms: C_26  and  O_28
REMARK   13  A    between atoms: C_29  and  O_30
REMARK   14  A    between atoms: C_31  and  O_32
REMARK                            x       y       z     vdW  Elec       q    Type
REMARK                         _______ _______ _______ _____ _____    ______ ____
ROOT
ATOM      1  C   UNL     1       3.175   5.848  19.460  0.00  0.00    +0.000 C 
ATOM      2  O   UNL     1       4.330   5.386  18.731  0.00  0.00    +0.000 OA
ATOM      3  C   UNL     1       4.156   4.001  18.372  0.00  0.00    +0.000 C 
ATOM      4  C   UNL     1       2.948   3.512  19.162  0.00  0.00    +0.000 C 
ATOM      5  C   UNL     1       2.106   4.761  19.326  0.00  0.00    +0.000 C 
ENDROOT
BRANCH   1  14
ATOM      6  C   UNL     1       0.761  10.043  19.050  0.00  0.00    +0.000 A 
ATOM      7  N   UNL     1       0.341  10.094  20.331  0.00  0.00    +0.000 NA
ATOM      8  C   UNL     1       0.642   9.057  21.147  0.00  0.00    +0.000 A 
ATOM      9  N   UNL     1       1.376   7.967  20.865  0.00  0.00    +0.000 NA
ATOM     10  C   UNL     1       1.874   8.019  19.620  0.00  0.00    +0.000 A 
ATOM     11  C   UNL     1       1.616   8.995  18.670  0.00  0.00    +0.000 A 
ATOM     12  N   UNL     1       2.373   8.800  17.537  0.00  0.00    +0.000 NA
ATOM     13  C   UNL     1       3.052   7.701  17.779  0.00  0.00    +0.000 A 
ATOM     14  N   UNL     1       2.754   7.164  19.011  0.00  0.00    +0.000 N 
BRANCH   6  15
ATOM     15  N   UNL     1       0.501  11.139  18.244  0.00  0.00    +0.000 N 
ATOM     16  H   UNL     1       0.707  11.008  17.260  0.00  0.00    +0.000 HD
ATOM     17  H   UNL     1      -0.325  11.675  18.486  0.00  0.00    +0.000 HD
ENDBRANCH   6  15
ENDBRANCH   1  14
BRANCH   4  18
ATOM     18  O   UNL     1       3.332   3.072  20.482  0.00  0.00    +0.000 OA
ATOM     19  H   UNL     1       3.337   3.840  21.087  0.00  0.00    +0.000 HD
ENDBRANCH   4  18
BRANCH   5  20
ATOM     20  O   UNL     1       1.265   4.681  20.479  0.00  0.00    +0.000 OA
ATOM     21  H   UNL     1       0.343   4.769  20.152  0.00  0.00    +0.000 HD
ENDBRANCH   5  20
BRANCH   3  22
ATOM     22  C   UNL     1       4.053   3.871  16.849  0.00  0.00    +0.000 C 
BRANCH  22  23
ATOM     23  O   UNL     1       5.289   3.542  16.230  0.00  0.00    +0.000 OA
BRANCH  23  24
ATOM     24  S   UNL     1       5.946   4.707  15.302  0.00  0.00    +0.000 S 
ATOM     25  O   UNL     1       7.149   4.213  14.683  0.00  0.00    +0.000 OA
ATOM     26  O   UNL     1       4.873   5.256  14.491  0.00  0.00    +0.000 OA
BRANCH  24  27
ATOM     27  N   UNL     1       6.337   5.915  16.353  0.00  0.00    +0.000 N 
ATOM     28  C   UNL     1       7.295   5.780  17.364  0.00  0.00    +0.000 C 
ATOM     29  O   UNL     1       7.854   4.711  17.578  0.00  0.00    +0.000 OA
ATOM     30  H   UNL     1       5.957   6.826  16.114  0.00  0.00    +0.000 HD
BRANCH  28  31
ATOM     31  C   UNL     1       7.573   7.045  18.210  0.00  0.00    +0.000 C 
BRANCH  31  32
ATOM     32  N   UNL     1       8.556   6.808  19.286  0.00  0.00    +0.000 NA
ATOM     33  H   UNL     1       9.425   7.313  19.144  0.00  0.00    +0.000 HD
ATOM     34  H   UNL     1       8.711   5.817  19.446  0.00  0.00    +0.000 HD
ENDBRANCH  31  32
BRANCH  31  35
ATOM     35  C   UNL     1       8.100   8.186  17.325  0.00  0.00    +0.000 C 
BRANCH  35  36
ATOM     36  C   UNL     1       7.842   9.571  17.911  0.00  0.00    +0.000 C 
BRANCH  36  37
ATOM     37  C   UNL     1       9.074  10.197  18.513  0.00  0.00    +0.000 C 
ATOM     38  O   UNL     1       9.766  11.020  17.928  0.00  0.00    +0.000 OA
BRANCH  37  39
ATOM     39  O   UNL     1       9.365   9.794  19.766  0.00  0.00    +0.000 OA
ATOM     40  H   UNL     1       9.690   8.874  19.854  0.00  0.00    +0.000 HD
ENDBRANCH  37  39
ENDBRANCH  36  37
ENDBRANCH  35  36
ENDBRANCH  31  35
ENDBRANCH  28  31
ENDBRANCH  24  27
ENDBRANCH  23  24
ENDBRANCH  22  23
ENDBRANCH   3  22
TORSDOF 14
ENDMDL
MODEL 2
REMARK VINA RESULT:      -7.1      2.866      6.834
REMARK  Name = 
REMARK  14 active torsions:
REMARK  status: ('A' for Active; 'I' for Inactive)
REMARK    1  A    between atoms: N_1  and  C_2
REMARK    2  A    between atoms: N_10  and  C_11
REMARK    3  A    between atoms: C_13  and  C_14
REMARK    4  A    between atoms: C_14  and  O_15
REMARK    5  A    between atoms: O_15  and  S_16
REMARK    6  A    between atoms: S_16  and  N_19
REMARK    7  A    between atoms: C_20  and  C_22
REMARK    8  A    between atoms: C_22  and  N_23
REMARK    9  A    between atoms: C_22  and  C_24
REMARK   10  A    between atoms: C_24  and  C_25
REMARK   11  A    between atoms: C_25  and  C_26
REMARK   12  A    between atoms: C_26  and  O_28
REMARK   13  A    between atoms: C_29  and  O_30
REMARK   14  A    between atoms: C_31  and  O_32
REMARK                            x       y       z     vdW  Elec       q    Type
REMARK                         _______ _______ _______ _____ _____    ______ ____
ROOT
ATOM      1  C   UNL     1       4.423   3.337  17.468  0.00  0.00    +0.000 C 
ATOM      2  O   UNL     1       3.086   3.478  16.947  0.00  0.00    +0.000 OA
ATOM      3  C   UNL     1       2.129   3.079  17.947  0.00  0.00    +0.000 C 
ATOM      4  C   UNL     1       2.933   2.397  19.047  0.00  0.00    +0.000 C 
ATOM      5  C   UNL     1       4.284   3.078  18.970  0.00  0.00    +0.000 C 
ENDROOT
BRANCH   1  14
ATOM      6  C   UNL     1       7.448   7.121  17.805  0.00  0.00    +0.000 A 
ATOM      7  N   UNL     1       8.099   6.688  18.905  0.00  0.00    +0.000 NA
ATOM      8  C   UNL     1       7.683   5.540  19.487  0.00  0.00    +0.000 A 
ATOM      9  N   UNL     1       6.709   4.709  19.077  0.00  0.00    +0.000 NA
ATOM     10  C   UNL     1       6.174   5.115  17.915  0.00  0.00    +0.000 A 
ATOM     11  C   UNL     1       6.476   6.284  17.234  0.00  0.00    +0.000 A 
ATOM     12  N   UNL     1       5.822   6.338  16.023  0.00  0.00    +0.000 NA
ATOM     13  C   UNL     1       5.106   5.237  15.986  0.00  0.00    +0.000 A 
ATOM     14  N   UNL     1       5.250   4.481  17.127  0.00  0.00    +0.000 N 
BRANCH   6  15
ATOM     15  N   UNL     1       7.925   8.263  17.184  0.00  0.00    +0.000 N 
ATOM     16  H   UNL     1       8.770   8.136  16.637  0.00  0.00    +0.000 HD
ATOM     17  H   UNL     1       7.218   8.892  16.820  0.00  0.00    +0.000 HD
ENDBRANCH   6  15
ENDBRANCH   1  14
BRANCH   4  18
ATOM     18  O   UNL     1       3.136   0.998  18.753  0.00  0.00    +0.000 OA
ATOM     19  H   UNL     1       4.095   0.814  18.719  0.00  0.00    +0.000 HD
ENDBRANCH   4  18
BRANCH   5  20
ATOM     20  O   UNL     1       5.326   2.241  19.476  0.00  0.00    +0.000 OA
ATOM     21  H   UNL     1       5.021   1.925  20.354  0.00  0.00    +0.000 HD
ENDBRANCH   5  20
BRANCH   3  22
ATOM     22  C   UNL     1       1.301   4.292  18.382  0.00  0.00    +0.000 C 
BRANCH  22  23
ATOM     23  O   UNL     1       1.973   5.529  18.187  0.00  0.00    +0.000 OA
BRANCH  23  24
ATOM     24  S   UNL     1       2.401   6.322  19.542  0.00  0.00    +0.000 S 
ATOM     25  O   UNL     1       1.666   5.797  20.664  0.00  0.00    +0.000 OA
ATOM     26  O   UNL     1       3.854   6.361  19.566  0.00  0.00    +0.000 OA
BRANCH  24  27
ATOM     27  N   UNL     1       1.945   7.884  19.281  0.00  0.00    +0.000 N 
ATOM     28  C   UNL     1       1.199   8.634  20.197  0.00  0.00    +0.000 C 
ATOM     29  O   UNL     1       0.771   8.140  21.233  0.00  0.00    +0.000 OA
ATOM     30  H   UNL     1       2.384   8.326  18.480  0.00  0.00    +0.000 HD
BRANCH  28  31
ATOM     31  C   UNL     1       0.923  10.105  19.804  0.00  0.00    +0.000 C 
BRANCH  31  32
ATOM     32  N   UNL     1      -0.341  10.269  19.058  0.00  0.00    +0.000 NA
ATOM     33  H   UNL     1      -0.455  11.203  18.677  0.00  0.00    +0.000 HD
ATOM     34  H   UNL     1      -1.145   9.978  19.606  0.00  0.00    +0.000 HD
ENDBRANCH  31  32
BRANCH  31  35
ATOM     35  C   UNL     1       0.859  10.998  21.053  0.00  0.00    +0.000 C 
BRANCH  35  36
ATOM     36  C   UNL     1      -0.564  11.387  21.445  0.00  0.00    +0.000 C 
BRANCH  36  37
ATOM     37  C   UNL     1      -0.923  10.976  22.850  0.00  0.00    +0.000 C 
ATOM     38  O   UNL     1      -1.913  11.388  23.439  0.00  0.00    +0.000 OA
BRANCH  37  39
ATOM     39  O   UNL     1      -0.075  10.100  23.423  0.00  0.00    +0.000 OA
ATOM     40  H   UNL     1      -0.400   9.180  23.502  0.00  0.00    +0.000 HD
ENDBRANCH  37  39
ENDBRANCH  36  37
ENDBRANCH  35  36
ENDBRANCH  31  35
ENDBRANCH  28  31
ENDBRANCH  24  27
ENDBRANCH  23  24
ENDBRANCH  22  23
ENDBRANCH   3  22
TORSDOF 14
ENDMDL
MODEL 3
REMARK VINA RESULT:      -7.1      2.985      6.753
REMARK  Name = 
REMARK  14 active torsions:
REMARK  status: ('A' for Active; 'I' for Inactive)
REMARK    1  A    between atoms: N_1  and  C_2
REMARK    2  A    between atoms: N_10  and  C_11
REMARK    3  A    between atoms: C_13  and  C_14
REMARK    4  A    between atoms: C_14  and  O_15
REMARK    5  A    between atoms: O_15  and  S_16
REMARK    6  A    between atoms: S_16  and  N_19
REMARK    7  A    between atoms: C_20  and  C_22
REMARK    8  A    between atoms: C_22  and  N_23
REMARK    9  A    between atoms: C_22  and  C_24
REMARK   10  A    between atoms: C_24  and  C_25
REMARK   11  A    between atoms: C_25  and  C_26
REMARK   12  A    between atoms: C_26  and  O_28
REMARK   13  A    between atoms: C_29  and  O_30
REMARK   14  A    between atoms: C_31  and  O_32
REMARK                            x       y       z     vdW  Elec       q    Type
REMARK                         _______ _______ _______ _____ _____    ______ ____
ROOT
ATOM      1  C   UNL     1       4.537   3.476  17.421  0.00  0.00    +0.000 C 
ATOM      2  O   UNL     1       3.238   3.546  16.799  0.00  0.00    +0.000 OA
ATOM      3  C   UNL     1       2.226   3.133  17.738  0.00  0.00    +0.000 C 
ATOM      4  C   UNL     1       2.973   2.515  18.914  0.00  0.00    +0.000 C 
ATOM      5  C   UNL     1       4.297   3.251  18.915  0.00  0.00    +0.000 C 
ENDROOT
BRANCH   1  14
ATOM      6  C   UNL     1       7.535   7.273  17.836  0.00  0.00    +0.000 A 
ATOM      7  N   UNL     1       8.232   6.795  18.888  0.00  0.00    +0.000 NA
ATOM      8  C   UNL     1       7.848   5.613  19.426  0.00  0.00    +0.000 A 
ATOM      9  N   UNL     1       6.868   4.793  19.011  0.00  0.00    +0.000 NA
ATOM     10  C   UNL     1       6.286   5.250  17.892  0.00  0.00    +0.000 A 
ATOM     11  C   UNL     1       6.551   6.455  17.259  0.00  0.00    +0.000 A 
ATOM     12  N   UNL     1       5.852   6.561  16.078  0.00  0.00    +0.000 NA
ATOM     13  C   UNL     1       5.146   5.455  16.012  0.00  0.00    +0.000 A 
ATOM     14  N   UNL     1       5.340   4.645  17.108  0.00  0.00    +0.000 N 
BRANCH   6  15
ATOM     15  N   UNL     1       7.978   8.451  17.255  0.00  0.00    +0.000 N 
ATOM     16  H   UNL     1       8.671   8.961  17.791  0.00  0.00    +0.000 HD
ATOM     17  H   UNL     1       8.082   8.431  16.247  0.00  0.00    +0.000 HD
ENDBRANCH   6  15
ENDBRANCH   1  14
BRANCH   4  18
ATOM     18  O   UNL     1       3.254   1.120  18.677  0.00  0.00    +0.000 OA
ATOM     19  H   UNL     1       3.174   0.629  19.519  0.00  0.00    +0.000 HD
ENDBRANCH   4  18
BRANCH   5  20
ATOM     20  O   UNL     1       5.332   2.474  19.520  0.00  0.00    +0.000 OA
ATOM     21  H   UNL     1       5.077   1.533  19.396  0.00  0.00    +0.000 HD
ENDBRANCH   5  20
BRANCH   3  22
ATOM     22  C   UNL     1       1.319   4.320  18.075  0.00  0.00    +0.000 C 
BRANCH  22  23
ATOM     23  O   UNL     1       1.970   5.577  17.945  0.00  0.00    +0.000 OA
BRANCH  23  24
ATOM     24  S   UNL     1       2.250   6.374  19.337  0.00  0.00    +0.000 S 
ATOM     25  O   UNL     1       1.719   5.620  20.443  0.00  0.00    +0.000 OA
ATOM     26  O   UNL     1       3.648   6.772  19.320  0.00  0.00    +0.000 OA
BRANCH  24  27
ATOM     27  N   UNL     1       1.412   7.785  19.193  0.00  0.00    +0.000 N 
ATOM     28  C   UNL     1       1.194   8.667  20.257  0.00  0.00    +0.000 C 
ATOM     29  O   UNL     1       1.557   8.399  21.396  0.00  0.00    +0.000 OA
ATOM     30  H   UNL     1       1.204   8.060  18.238  0.00  0.00    +0.000 HD
BRANCH  28  31
ATOM     31  C   UNL     1       0.441   9.975  19.913  0.00  0.00    +0.000 C 
BRANCH  31  32
ATOM     32  N   UNL     1       1.159  11.183  20.364  0.00  0.00    +0.000 NA
ATOM     33  H   UNL     1       1.626  11.670  19.605  0.00  0.00    +0.000 HD
ATOM     34  H   UNL     1       1.788  10.985  21.136  0.00  0.00    +0.000 HD
ENDBRANCH  31  32
BRANCH  31  35
ATOM     35  C   UNL     1       0.216  10.089  18.397  0.00  0.00    +0.000 C 
BRANCH  35  36
ATOM     36  C   UNL     1      -1.220  10.449  18.026  0.00  0.00    +0.000 C 
BRANCH  36  37
ATOM     37  C   UNL     1      -1.531  11.912  18.215  0.00  0.00    +0.000 C 
ATOM     38  O   UNL     1      -0.684  12.793  18.149  0.00  0.00    +0.000 OA
BRANCH  37  39
ATOM     39  O   UNL     1      -2.827  12.194  18.453  0.00  0.00    +0.000 OA
ATOM     40  H   UNL     1      -3.219  11.767  19.242  0.00  0.00    +0.000 HD
ENDBRANCH  37  39
ENDBRANCH  36  37
ENDBRANCH  35  36
ENDBRANCH  31  35
ENDBRANCH  28  31
ENDBRANCH  24  27
ENDBRANCH  23  24
ENDBRANCH  22  23
ENDBRANCH   3  22
TORSDOF 14
ENDMDL
MODEL 4
REMARK VINA RESULT:      -6.9      2.516      4.747
REMARK  Name = 
REMARK  14 active torsions:
REMARK  status: ('A' for Active; 'I' for Inactive)
REMARK    1  A    between atoms: N_1  and  C_2
REMARK    2  A    between atoms: N_10  and  C_11
REMARK    3  A    between atoms: C_13  and  C_14
REMARK    4  A    between atoms: C_14  and  O_15
REMARK    5  A    between atoms: O_15  and  S_16
REMARK    6  A    between atoms: S_16  and  N_19
REMARK    7  A    between atoms: C_20  and  C_22
REMARK    8  A    between atoms: C_22  and  N_23
REMARK    9  A    between atoms: C_22  and  C_24
REMARK   10  A    between atoms: C_24  and  C_25
REMARK   11  A    between atoms: C_25  and  C_26
REMARK   12  A    between atoms: C_26  and  O_28
REMARK   13  A    between atoms: C_29  and  O_30
REMARK   14  A    between atoms: C_31  and  O_32
REMARK                            x       y       z     vdW  Elec       q    Type
REMARK                         _______ _______ _______ _____ _____    ______ ____
ROOT
ATOM      1  C   UNL     1       2.268   6.027  19.308  0.00  0.00    +0.000 C 
ATOM      2  O   UNL     1       3.321   5.755  20.254  0.00  0.00    +0.000 OA
ATOM      3  C   UNL     1       4.155   4.688  19.761  0.00  0.00    +0.000 C 
ATOM      4  C   UNL     1       3.410   4.088  18.575  0.00  0.00    +0.000 C 
ATOM      5  C   UNL     1       2.614   5.258  18.031  0.00  0.00    +0.000 C 
ENDROOT
BRANCH   1  14
ATOM      6  C   UNL     1       0.804  10.617  19.915  0.00  0.00    +0.000 A 
ATOM      7  N   UNL     1       0.633  10.540  21.251  0.00  0.00    +0.000 NA
ATOM      8  C   UNL     1       0.834   9.346  21.855  0.00  0.00    +0.000 A 
ATOM      9  N   UNL     1       1.250   8.195  21.298  0.00  0.00    +0.000 NA
ATOM     10  C   UNL     1       1.525   8.352  19.994  0.00  0.00    +0.000 A 
ATOM     11  C   UNL     1       1.329   9.501  19.243  0.00  0.00    +0.000 A 
ATOM     12  N   UNL     1       1.817   9.350  17.965  0.00  0.00    +0.000 NA
ATOM     13  C   UNL     1       2.269   8.117  17.928  0.00  0.00    +0.000 A 
ATOM     14  N   UNL     1       2.077   7.454  19.119  0.00  0.00    +0.000 N 
BRANCH   6  15
ATOM     15  N   UNL     1       0.657  11.859  19.319  0.00  0.00    +0.000 N 
ATOM     16  H   UNL     1       0.262  11.845  18.385  0.00  0.00    +0.000 HD
ATOM     17  H   UNL     1       0.377  12.612  19.938  0.00  0.00    +0.000 HD
ENDBRANCH   6  15
ENDBRANCH   1  14
BRANCH   4  18
ATOM     18  O   UNL     1       2.465   3.086  19.006  0.00  0.00    +0.000 OA
ATOM     19  H   UNL     1       2.950   2.344  19.418  0.00  0.00    +0.000 HD
ENDBRANCH   4  18
BRANCH   5  20
ATOM     20  O   UNL     1       1.450   4.821  17.327  0.00  0.00    +0.000 OA
ATOM     21  H   UNL     1       1.532   3.846  17.239  0.00  0.00    +0.000 HD
ENDBRANCH   5  20
BRANCH   3  22
ATOM     22  C   UNL     1       5.558   5.225  19.463  0.00  0.00    +0.000 C 
BRANCH  22  23
ATOM     23  O   UNL     1       5.835   5.330  18.073  0.00  0.00    +0.000 OA
BRANCH  23  24
ATOM     24  S   UNL     1       7.391   5.607  17.681  0.00  0.00    +0.000 S 
ATOM     25  O   UNL     1       7.825   6.847  18.271  0.00  0.00    +0.000 OA
ATOM     26  O   UNL     1       8.116   4.374  17.939  0.00  0.00    +0.000 OA
BRANCH  24  27
ATOM     27  N   UNL     1       7.393   5.759  16.041  0.00  0.00    +0.000 N 
ATOM     28  C   UNL     1       6.949   4.757  15.171  0.00  0.00    +0.000 C 
ATOM     29  O   UNL     1       6.598   3.658  15.585  0.00  0.00    +0.000 OA
ATOM     30  H   UNL     1       7.582   6.697  15.702  0.00  0.00    +0.000 HD
BRANCH  28  31
ATOM     31  C   UNL     1       6.966   5.109  13.664  0.00  0.00    +0.000 C 
BRANCH  31  32
ATOM     32  N   UNL     1       8.279   5.606  13.208  0.00  0.00    +0.000 NA
ATOM     33  H   UNL     1       9.053   5.047  13.553  0.00  0.00    +0.000 HD
ATOM     34  H   UNL     1       8.401   6.594  13.408  0.00  0.00    +0.000 HD
ENDBRANCH  31  32
BRANCH  31  35
ATOM     35  C   UNL     1       6.598   3.881  12.816  0.00  0.00    +0.000 C 
BRANCH  35  36
ATOM     36  C   UNL     1       5.105   3.779  12.519  0.00  0.00    +0.000 C 
BRANCH  36  37
ATOM     37  C   UNL     1       4.778   2.730  11.486  0.00  0.00    +0.000 C 
ATOM     38  O   UNL     1       5.478   1.747  11.282  0.00  0.00    +0.000 OA
BRANCH  37  39
ATOM     39  O   UNL     1       3.640   2.941  10.798  0.00  0.00    +0.000 OA
ATOM     40  H   UNL     1       3.052   2.164  10.696  0.00  0.00    +0.000 HD
ENDBRANCH  37  39
ENDBRANCH  36  37
ENDBRANCH  35  36
ENDBRANCH  31  35
ENDBRANCH  28  31
ENDBRANCH  24  27
ENDBRANCH  23  24
ENDBRANCH  22  23
ENDBRANCH   3  22
TORSDOF 14
ENDMDL
MODEL 5
REMARK VINA RESULT:      -6.9      2.653      4.769
REMARK  Name = 
REMARK  14 active torsions:
REMARK  status: ('A' for Active; 'I' for Inactive)
REMARK    1  A    between atoms: N_1  and  C_2
REMARK    2  A    between atoms: N_10  and  C_11
REMARK    3  A    between atoms: C_13  and  C_14
REMARK    4  A    between atoms: C_14  and  O_15
REMARK    5  A    between atoms: O_15  and  S_16
REMARK    6  A    between atoms: S_16  and  N_19
REMARK    7  A    between atoms: C_20  and  C_22
REMARK    8  A    between atoms: C_22  and  N_23
REMARK    9  A    between atoms: C_22  and  C_24
REMARK   10  A    between atoms: C_24  and  C_25
REMARK   11  A    between atoms: C_25  and  C_26
REMARK   12  A    between atoms: C_26  and  O_28
REMARK   13  A    between atoms: C_29  and  O_30
REMARK   14  A    between atoms: C_31  and  O_32
REMARK                            x       y       z     vdW  Elec       q    Type
REMARK                         _______ _______ _______ _____ _____    ______ ____
ROOT
ATOM      1  C   UNL     1       2.400   5.697  19.178  0.00  0.00    +0.000 C 
ATOM      2  O   UNL     1       3.533   5.414  20.024  0.00  0.00    +0.000 OA
ATOM      3  C   UNL     1       4.188   4.211  19.575  0.00  0.00    +0.000 C 
ATOM      4  C   UNL     1       3.243   3.572  18.564  0.00  0.00    +0.000 C 
ATOM      5  C   UNL     1       2.505   4.757  17.974  0.00  0.00    +0.000 C 
ENDROOT
BRANCH   1  14
ATOM      6  C   UNL     1       1.176  10.396  19.165  0.00  0.00    +0.000 A 
ATOM      7  N   UNL     1       0.828  10.459  20.468  0.00  0.00    +0.000 NA
ATOM      8  C   UNL     1       0.870   9.320  21.198  0.00  0.00    +0.000 A 
ATOM      9  N   UNL     1       1.278   8.101  20.808  0.00  0.00    +0.000 NA
ATOM     10  C   UNL     1       1.729   8.114  19.545  0.00  0.00    +0.000 A 
ATOM     11  C   UNL     1       1.708   9.193  18.675  0.00  0.00    +0.000 A 
ATOM     12  N   UNL     1       2.347   8.892  17.492  0.00  0.00    +0.000 NA
ATOM     13  C   UNL     1       2.717   7.638  17.628  0.00  0.00    +0.000 A 
ATOM     14  N   UNL     1       2.330   7.107  18.837  0.00  0.00    +0.000 N 
BRANCH   6  15
ATOM     15  N   UNL     1       1.188  11.579  18.446  0.00  0.00    +0.000 N 
ATOM     16  H   UNL     1       1.175  11.471  17.437  0.00  0.00    +0.000 HD
ATOM     17  H   UNL     1       0.652  12.341  18.845  0.00  0.00    +0.000 HD
ENDBRANCH   6  15
ENDBRANCH   1  14
BRANCH   4  18
ATOM     18  O   UNL     1       2.266   2.738  19.221  0.00  0.00    +0.000 OA
ATOM     19  H   UNL     1       1.878   2.123  18.567  0.00  0.00    +0.000 HD
ENDBRANCH   4  18
BRANCH   5  20
ATOM     20  O   UNL     1       1.224   4.380  17.466  0.00  0.00    +0.000 OA
ATOM     21  H   UNL     1       1.042   4.979  16.710  0.00  0.00    +0.000 HD
ENDBRANCH   5  20
BRANCH   3  22
ATOM     22  C   UNL     1       5.589   4.550  19.055  0.00  0.00    +0.000 C 
BRANCH  22  23
ATOM     23  O   UNL     1       5.732   5.911  18.675  0.00  0.00    +0.000 OA
BRANCH  23  24
ATOM     24  S   UNL     1       6.681   6.187  17.381  0.00  0.00    +0.000 S 
ATOM     25  O   UNL     1       6.430   7.510  16.869  0.00  0.00    +0.000 OA
ATOM     26  O   UNL     1       8.027   5.784  17.753  0.00  0.00    +0.000 OA
BRANCH  24  27
ATOM     27  N   UNL     1       6.205   5.076  16.261  0.00  0.00    +0.000 N 
ATOM     28  C   UNL     1       6.874   4.862  15.052  0.00  0.00    +0.000 C 
ATOM     29  O   UNL     1       7.827   5.555  14.715  0.00  0.00    +0.000 OA
ATOM     30  H   UNL     1       5.487   4.433  16.580  0.00  0.00    +0.000 HD
BRANCH  28  31
ATOM     31  C   UNL     1       6.316   3.729  14.157  0.00  0.00    +0.000 C 
BRANCH  31  32
ATOM     32  N   UNL     1       4.875   3.490  14.371  0.00  0.00    +0.000 NA
ATOM     33  H   UNL     1       4.376   4.326  14.659  0.00  0.00    +0.000 HD
ATOM     34  H   UNL     1       4.709   2.709  14.999  0.00  0.00    +0.000 HD
ENDBRANCH  31  32
BRANCH  31  35
ATOM     35  C   UNL     1       6.532   4.054  12.671  0.00  0.00    +0.000 C 
BRANCH  35  36
ATOM     36  C   UNL     1       5.785   3.109  11.733  0.00  0.00    +0.000 C 
BRANCH  36  37
ATOM     37  C   UNL     1       6.587   1.886  11.366  0.00  0.00    +0.000 C 
ATOM     38  O   UNL     1       7.774   1.923  11.071  0.00  0.00    +0.000 OA
BRANCH  37  39
ATOM     39  O   UNL     1       5.904   0.725  11.397  0.00  0.00    +0.000 OA
ATOM     40  H   UNL     1       6.146   0.107  12.117  0.00  0.00    +0.000 HD
ENDBRANCH  37  39
ENDBRANCH  36  37
ENDBRANCH  35  36
ENDBRANCH  31  35
ENDBRANCH  28  31
ENDBRANCH  24  27
ENDBRANCH  23  24
ENDBRANCH  22  23
ENDBRANCH   3  22
TORSDOF 14
ENDMDL
MODEL 6
REMARK VINA RESULT:      -6.8      3.155      6.401
REMARK  Name = 
REMARK  14 active torsions:
REMARK  status: ('A' for Active; 'I' for Inactive)
REMARK    1  A    between atoms: N_1  and  C_2
REMARK    2  A    between atoms: N_10  and  C_11
REMARK    3  A    between atoms: C_13  and  C_14
REMARK    4  A    between atoms: C_14  and  O_15
REMARK    5  A    between atoms: O_15  and  S_16
REMARK    6  A    between atoms: S_16  and  N_19
REMARK    7  A    between atoms: C_20  and  C_22
REMARK    8  A    between atoms: C_22  and  N_23
REMARK    9  A    between atoms: C_22  and  C_24
REMARK   10  A    between atoms: C_24  and  C_25
REMARK   11  A    between atoms: C_25  and  C_26
REMARK   12  A    between atoms: C_26  and  O_28
REMARK   13  A    between atoms: C_29  and  O_30
REMARK   14  A    between atoms: C_31  and  O_32
REMARK                            x       y       z     vdW  Elec       q    Type
REMARK                         _______ _______ _______ _____ _____    ______ ____
ROOT
ATOM      1  C   UNL     1       4.494   3.357  17.432  0.00  0.00    +0.000 C 
ATOM      2  O   UNL     1       3.180   3.413  16.840  0.00  0.00    +0.000 OA
ATOM      3  C   UNL     1       2.196   2.975  17.798  0.00  0.00    +0.000 C 
ATOM      4  C   UNL     1       2.979   2.357  18.950  0.00  0.00    +0.000 C 
ATOM      5  C   UNL     1       4.291   3.114  18.929  0.00  0.00    +0.000 C 
ENDROOT
BRANCH   1  14
ATOM      6  C   UNL     1       7.442   7.196  17.821  0.00  0.00    +0.000 A 
ATOM      7  N   UNL     1       8.169   6.718  18.853  0.00  0.00    +0.000 NA
ATOM      8  C   UNL     1       7.815   5.526  19.387  0.00  0.00    +0.000 A 
ATOM      9  N   UNL     1       6.839   4.694  18.985  0.00  0.00    +0.000 NA
ATOM     10  C   UNL     1       6.225   5.154  17.883  0.00  0.00    +0.000 A 
ATOM     11  C   UNL     1       6.458   6.368  17.258  0.00  0.00    +0.000 A 
ATOM     12  N   UNL     1       5.731   6.476  16.093  0.00  0.00    +0.000 NA
ATOM     13  C   UNL     1       5.041   5.360  16.031  0.00  0.00    +0.000 A 
ATOM     14  N   UNL     1       5.271   4.542  17.114  0.00  0.00    +0.000 N 
BRANCH   6  15
ATOM     15  N   UNL     1       7.853   8.386  17.243  0.00  0.00    +0.000 N 
ATOM     16  H   UNL     1       7.799   8.415  16.231  0.00  0.00    +0.000 HD
ATOM     17  H   UNL     1       7.610   9.229  17.753  0.00  0.00    +0.000 HD
ENDBRANCH   6  15
ENDBRANCH   1  14
BRANCH   4  18
ATOM     18  O   UNL     1       3.276   0.968  18.692  0.00  0.00    +0.000 OA
ATOM     19  H   UNL     1       2.482   0.534  18.323  0.00  0.00    +0.000 HD
ENDBRANCH   4  18
BRANCH   5  20
ATOM     20  O   UNL     1       5.351   2.346  19.503  0.00  0.00    +0.000 OA
ATOM     21  H   UNL     1       6.097   2.969  19.642  0.00  0.00    +0.000 HD
ENDBRANCH   5  20
BRANCH   3  22
ATOM     22  C   UNL     1       1.279   4.145  18.168  0.00  0.00    +0.000 C 
BRANCH  22  23
ATOM     23  O   UNL     1       1.531   4.666  19.465  0.00  0.00    +0.000 OA
BRANCH  23  24
ATOM     24  S   UNL     1       2.335   6.081  19.514  0.00  0.00    +0.000 S 
ATOM     25  O   UNL     1       3.698   5.850  19.919  0.00  0.00    +0.000 OA
ATOM     26  O   UNL     1       2.044   6.775  18.271  0.00  0.00    +0.000 OA
BRANCH  24  27
ATOM     27  N   UNL     1       1.569   6.963  20.676  0.00  0.00    +0.000 N 
ATOM     28  C   UNL     1       1.353   8.343  20.582  0.00  0.00    +0.000 C 
ATOM     29  O   UNL     1       1.797   8.999  19.648  0.00  0.00    +0.000 OA
ATOM     30  H   UNL     1       1.110   6.412  21.394  0.00  0.00    +0.000 HD
BRANCH  28  31
ATOM     31  C   UNL     1       0.556   8.986  21.743  0.00  0.00    +0.000 C 
BRANCH  31  32
ATOM     32  N   UNL     1       1.429   9.590  22.769  0.00  0.00    +0.000 NA
ATOM     33  H   UNL     1       2.024  10.324  22.398  0.00  0.00    +0.000 HD
ATOM     34  H   UNL     1       1.958   8.887  23.277  0.00  0.00    +0.000 HD
ENDBRANCH  31  32
BRANCH  31  35
ATOM     35  C   UNL     1      -0.386  10.079  21.214  0.00  0.00    +0.000 C 
BRANCH  35  36
ATOM     36  C   UNL     1       0.067  11.491  21.573  0.00  0.00    +0.000 C 
BRANCH  36  37
ATOM     37  C   UNL     1       0.759  12.197  20.435  0.00  0.00    +0.000 C 
ATOM     38  O   UNL     1       1.445  13.200  20.583  0.00  0.00    +0.000 OA
BRANCH  37  39
ATOM     39  O   UNL     1       0.583  11.634  19.223  0.00  0.00    +0.000 OA
ATOM     40  H   UNL     1       1.001  12.102  18.471  0.00  0.00    +0.000 HD
ENDBRANCH  37  39
ENDBRANCH  36  37
ENDBRANCH  35  36
ENDBRANCH  31  35
ENDBRANCH  28  31
ENDBRANCH  24  27
ENDBRANCH  23  24
ENDBRANCH  22  23
ENDBRANCH   3  22
TORSDOF 14
ENDMDL
MODEL 7
REMARK VINA RESULT:      -6.8      2.529      4.622
REMARK  Name = 
REMARK  14 active torsions:
REMARK  status: ('A' for Active; 'I' for Inactive)
REMARK    1  A    between atoms: N_1  and  C_2
REMARK    2  A    between atoms: N_10  and  C_11
REMARK    3  A    between atoms: C_13  and  C_14
REMARK    4  A    between atoms: C_14  and  O_15
REMARK    5  A    between atoms: O_15  and  S_16
REMARK    6  A    between atoms: S_16  and  N_19
REMARK    7  A    between atoms: C_20  and  C_22
REMARK    8  A    between atoms: C_22  and  N_23
REMARK    9  A    between atoms: C_22  and  C_24
REMARK   10  A    between atoms: C_24  and  C_25
REMARK   11  A    between atoms: C_25  and  C_26
REMARK   12  A    between atoms: C_26  and  O_28
REMARK   13  A    between atoms: C_29  and  O_30
REMARK   14  A    between atoms: C_31  and  O_32
REMARK                            x       y       z     vdW  Elec       q    Type
REMARK                         _______ _______ _______ _____ _____    ______ ____
ROOT
ATOM      1  C   UNL     1       2.667   5.946  20.062  0.00  0.00    +0.000 C 
ATOM      2  O   UNL     1       4.078   5.672  19.954  0.00  0.00    +0.000 OA
ATOM      3  C   UNL     1       4.279   4.292  19.591  0.00  0.00    +0.000 C 
ATOM      4  C   UNL     1       2.924   3.615  19.752  0.00  0.00    +0.000 C 
ATOM      5  C   UNL     1       1.937   4.732  19.482  0.00  0.00    +0.000 C 
ENDROOT
BRANCH   1  14
ATOM      6  C   UNL     1       0.684  10.298  19.219  0.00  0.00    +0.000 A 
ATOM      7  N   UNL     1       0.490  10.623  20.514  0.00  0.00    +0.000 NA
ATOM      8  C   UNL     1       0.809   9.708  21.459  0.00  0.00    +0.000 A 
ATOM      9  N   UNL     1       1.365   8.497  21.285  0.00  0.00    +0.000 NA
ATOM     10  C   UNL     1       1.651   8.269  19.994  0.00  0.00    +0.000 A 
ATOM     11  C   UNL     1       1.346   9.095  18.925  0.00  0.00    +0.000 A 
ATOM     12  N   UNL     1       1.878   8.610  17.752  0.00  0.00    +0.000 NA
ATOM     13  C   UNL     1       2.466   7.486  18.097  0.00  0.00    +0.000 A 
ATOM     14  N   UNL     1       2.322   7.212  19.438  0.00  0.00    +0.000 N 
BRANCH   6  15
ATOM     15  N   UNL     1       0.412  11.267  18.266  0.00  0.00    +0.000 N 
ATOM     16  H   UNL     1       0.048  10.916  17.387  0.00  0.00    +0.000 HD
ATOM     17  H   UNL     1       0.031  12.136  18.621  0.00  0.00    +0.000 HD
ENDBRANCH   6  15
ENDBRANCH   1  14
BRANCH   4  18
ATOM     18  O   UNL     1       2.719   3.177  21.112  0.00  0.00    +0.000 OA
ATOM     19  H   UNL     1       1.797   3.366  21.374  0.00  0.00    +0.000 HD
ENDBRANCH   4  18
BRANCH   5  20
ATOM     20  O   UNL     1       0.683   4.495  20.123  0.00  0.00    +0.000 OA
ATOM     21  H   UNL     1       0.013   4.995  19.608  0.00  0.00    +0.000 HD
ENDBRANCH   5  20
BRANCH   3  22
ATOM     22  C   UNL     1       4.902   4.212  18.194  0.00  0.00    +0.000 C 
BRANCH  22  23
ATOM     23  O   UNL     1       6.224   3.691  18.198  0.00  0.00    +0.000 OA
BRANCH  23  24
ATOM     24  S   UNL     1       7.390   4.719  17.715  0.00  0.00    +0.000 S 
ATOM     25  O   UNL     1       7.052   6.060  18.119  0.00  0.00    +0.000 OA
ATOM     26  O   UNL     1       8.659   4.130  18.106  0.00  0.00    +0.000 OA
BRANCH  24  27
ATOM     27  N   UNL     1       7.376   4.632  16.069  0.00  0.00    +0.000 N 
ATOM     28  C   UNL     1       6.566   5.436  15.260  0.00  0.00    +0.000 C 
ATOM     29  O   UNL     1       5.749   6.213  15.740  0.00  0.00    +0.000 OA
ATOM     30  H   UNL     1       8.120   4.070  15.668  0.00  0.00    +0.000 HD
BRANCH  28  31
ATOM     31  C   UNL     1       6.740   5.256  13.732  0.00  0.00    +0.000 C 
BRANCH  31  32
ATOM     32  N   UNL     1       8.132   5.467  13.287  0.00  0.00    +0.000 NA
ATOM     33  H   UNL     1       8.222   6.234  12.627  0.00  0.00    +0.000 HD
ATOM     34  H   UNL     1       8.553   4.611  12.939  0.00  0.00    +0.000 HD
ENDBRANCH  31  32
BRANCH  31  35
ATOM     35  C   UNL     1       6.308   3.846  13.299  0.00  0.00    +0.000 C 
BRANCH  35  36
ATOM     36  C   UNL     1       6.747   3.490  11.881  0.00  0.00    +0.000 C 
BRANCH  36  37
ATOM     37  C   UNL     1       6.302   2.115  11.453  0.00  0.00    +0.000 C 
ATOM     38  O   UNL     1       5.132   1.821  11.244  0.00  0.00    +0.000 OA
BRANCH  37  39
ATOM     39  O   UNL     1       7.294   1.216  11.300  0.00  0.00    +0.000 OA
ATOM     40  H   UNL     1       8.150   1.450  11.714  0.00  0.00    +0.000 HD
ENDBRANCH  37  39
ENDBRANCH  36  37
ENDBRANCH  35  36
ENDBRANCH  31  35
ENDBRANCH  28  31
ENDBRANCH  24  27
ENDBRANCH  23  24
ENDBRANCH  22  23
ENDBRANCH   3  22
TORSDOF 14
ENDMDL
MODEL 8
REMARK VINA RESULT:      -6.7      3.178      6.573
REMARK  Name = 
REMARK  14 active torsions:
REMARK  status: ('A' for Active; 'I' for Inactive)
REMARK    1  A    between atoms: N_1  and  C_2
REMARK    2  A    between atoms: N_10  and  C_11
REMARK    3  A    between atoms: C_13  and  C_14
REMARK    4  A    between atoms: C_14  and  O_15
REMARK    5  A    between atoms: O_15  and  S_16
REMARK    6  A    between atoms: S_16  and  N_19
REMARK    7  A    between atoms: C_20  and  C_22
REMARK    8  A    between atoms: C_22  and  N_23
REMARK    9  A    between atoms: C_22  and  C_24
REMARK   10  A    between atoms: C_24  and  C_25
REMARK   11  A    between atoms: C_25  and  C_26
REMARK   12  A    between atoms: C_26  and  O_28
REMARK   13  A    between atoms: C_29  and  O_30
REMARK   14  A    between atoms: C_31  and  O_32
REMARK                            x       y       z     vdW  Elec       q    Type
REMARK                         _______ _______ _______ _____ _____    ______ ____
ROOT
ATOM      1  C   UNL     1       4.258   3.462  17.529  0.00  0.00    +0.000 C 
ATOM      2  O   UNL     1       2.904   3.720  17.105  0.00  0.00    +0.000 OA
ATOM      3  C   UNL     1       1.988   3.358  18.157  0.00  0.00    +0.000 C 
ATOM      4  C   UNL     1       2.808   2.580  19.179  0.00  0.00    +0.000 C 
ATOM      5  C   UNL     1       4.199   3.162  19.029  0.00  0.00    +0.000 C 
ENDROOT
BRANCH   1  14
ATOM      6  C   UNL     1       7.465   7.098  17.797  0.00  0.00    +0.000 A 
ATOM      7  N   UNL     1       8.081   6.667  18.918  0.00  0.00    +0.000 NA
ATOM      8  C   UNL     1       7.600   5.558  19.527  0.00  0.00    +0.000 A 
ATOM      9  N   UNL     1       6.591   4.765  19.128  0.00  0.00    +0.000 NA
ATOM     10  C   UNL     1       6.091   5.163  17.948  0.00  0.00    +0.000 A 
ATOM     11  C   UNL     1       6.459   6.294  17.237  0.00  0.00    +0.000 A 
ATOM     12  N   UNL     1       5.824   6.345  16.017  0.00  0.00    +0.000 NA
ATOM     13  C   UNL     1       5.054   5.280  16.002  0.00  0.00    +0.000 A 
ATOM     14  N   UNL     1       5.146   4.553  17.167  0.00  0.00    +0.000 N 
BRANCH   6  15
ATOM     15  N   UNL     1       8.006   8.197  17.150  0.00  0.00    +0.000 N 
ATOM     16  H   UNL     1       8.972   8.092  16.858  0.00  0.00    +0.000 HD
ATOM     17  H   UNL     1       7.378   8.694  16.529  0.00  0.00    +0.000 HD
ENDBRANCH   6  15
ENDBRANCH   1  14
BRANCH   4  18
ATOM     18  O   UNL     1       2.884   1.182  18.830  0.00  0.00    +0.000 OA
ATOM     19  H   UNL     1       3.756   0.832  19.097  0.00  0.00    +0.000 HD
ENDBRANCH   4  18
BRANCH   5  20
ATOM     20  O   UNL     1       5.205   2.233  19.436  0.00  0.00    +0.000 OA
ATOM     21  H   UNL     1       5.961   2.359  18.821  0.00  0.00    +0.000 HD
ENDBRANCH   5  20
BRANCH   3  22
ATOM     22  C   UNL     1       1.286   4.614  18.684  0.00  0.00    +0.000 C 
BRANCH  22  23
ATOM     23  O   UNL     1       1.731   5.810  18.059  0.00  0.00    +0.000 OA
BRANCH  23  24
ATOM     24  S   UNL     1       2.706   6.756  18.957  0.00  0.00    +0.000 S 
ATOM     25  O   UNL     1       3.426   5.947  19.906  0.00  0.00    +0.000 OA
ATOM     26  O   UNL     1       3.420   7.621  18.033  0.00  0.00    +0.000 OA
BRANCH  24  27
ATOM     27  N   UNL     1       1.685   7.762  19.770  0.00  0.00    +0.000 N 
ATOM     28  C   UNL     1       1.338   9.040  19.318  0.00  0.00    +0.000 C 
ATOM     29  O   UNL     1       1.842   9.523  18.311  0.00  0.00    +0.000 OA
ATOM     30  H   UNL     1       1.188   7.329  20.542  0.00  0.00    +0.000 HD
BRANCH  28  31
ATOM     31  C   UNL     1       0.314   9.812  20.185  0.00  0.00    +0.000 C 
BRANCH  31  32
ATOM     32  N   UNL     1       0.956  10.648  21.219  0.00  0.00    +0.000 NA
ATOM     33  H   UNL     1       0.683  11.624  21.161  0.00  0.00    +0.000 HD
ATOM     34  H   UNL     1       1.965  10.532  21.228  0.00  0.00    +0.000 HD
ENDBRANCH  31  32
BRANCH  31  35
ATOM     35  C   UNL     1      -0.561  10.723  19.310  0.00  0.00    +0.000 C 
BRANCH  35  36
ATOM     36  C   UNL     1      -0.420  12.204  19.651  0.00  0.00    +0.000 C 
BRANCH  36  37
ATOM     37  C   UNL     1      -0.587  13.104  18.453  0.00  0.00    +0.000 C 
ATOM     38  O   UNL     1      -0.052  14.200  18.356  0.00  0.00    +0.000 OA
BRANCH  37  39
ATOM     39  O   UNL     1      -1.368  12.611  17.472  0.00  0.00    +0.000 OA
ATOM     40  H   UNL     1      -1.869  11.799  17.694  0.00  0.00    +0.000 HD
ENDBRANCH  37  39
ENDBRANCH  36  37
ENDBRANCH  35  36
ENDBRANCH  31  35
ENDBRANCH  28  31
ENDBRANCH  24  27
ENDBRANCH  23  24
ENDBRANCH  22  23
ENDBRANCH   3  22
TORSDOF 14
ENDMDL
MODEL 9
REMARK VINA RESULT:      -6.7      3.028      6.707
REMARK  Name = 
REMARK  14 active torsions:
REMARK  status: ('A' for Active; 'I' for Inactive)
REMARK    1  A    between atoms: N_1  and  C_2
REMARK    2  A    between atoms: N_10  and  C_11
REMARK    3  A    between atoms: C_13  and  C_14
REMARK    4  A    between atoms: C_14  and  O_15
REMARK    5  A    between atoms: O_15  and  S_16
REMARK    6  A    between atoms: S_16  and  N_19
REMARK    7  A    between atoms: C_20  and  C_22
REMARK    8  A    between atoms: C_22  and  N_23
REMARK    9  A    between atoms: C_22  and  C_24
REMARK   10  A    between atoms: C_24  and  C_25
REMARK   11  A    between atoms: C_25  and  C_26
REMARK   12  A    between atoms: C_26  and  O_28
REMARK   13  A    between atoms: C_29  and  O_30
REMARK   14  A    between atoms: C_31  and  O_32
REMARK                            x       y       z     vdW  Elec       q    Type
REMARK                         _______ _______ _______ _____ _____    ______ ____
ROOT
ATOM      1  C   UNL     1       4.527   3.384  17.459  0.00  0.00    +0.000 C 
ATOM      2  O   UNL     1       3.212   3.465  16.874  0.00  0.00    +0.000 OA
ATOM      3  C   UNL     1       2.223   3.068  17.845  0.00  0.00    +0.000 C 
ATOM      4  C   UNL     1       2.997   2.448  19.002  0.00  0.00    +0.000 C 
ATOM      5  C   UNL     1       4.329   3.169  18.961  0.00  0.00    +0.000 C 
ENDROOT
BRANCH   1  14
ATOM      6  C   UNL     1       7.503   7.208  17.787  0.00  0.00    +0.000 A 
ATOM      7  N   UNL     1       8.176   6.775  18.874  0.00  0.00    +0.000 NA
ATOM      8  C   UNL     1       7.784   5.616  19.451  0.00  0.00    +0.000 A 
ATOM      9  N   UNL     1       6.817   4.775  19.047  0.00  0.00    +0.000 NA
ATOM     10  C   UNL     1       6.259   5.183  17.897  0.00  0.00    +0.000 A 
ATOM     11  C   UNL     1       6.535   6.362  17.221  0.00  0.00    +0.000 A 
ATOM     12  N   UNL     1       5.864   6.417  16.021  0.00  0.00    +0.000 NA
ATOM     13  C   UNL     1       5.163   5.306  15.984  0.00  0.00    +0.000 A 
ATOM     14  N   UNL     1       5.334   4.543  17.117  0.00  0.00    +0.000 N 
BRANCH   6  15
ATOM     15  N   UNL     1       7.955   8.362  17.169  0.00  0.00    +0.000 N 
ATOM     16  H   UNL     1       7.281   8.820  16.564  0.00  0.00    +0.000 HD
ATOM     17  H   UNL     1       8.562   8.950  17.728  0.00  0.00    +0.000 HD
ENDBRANCH   6  15
ENDBRANCH   1  14
BRANCH   4  18
ATOM     18  O   UNL     1       3.256   1.048  18.764  0.00  0.00    +0.000 OA
ATOM     19  H   UNL     1       4.221   0.894  18.777  0.00  0.00    +0.000 HD
ENDBRANCH   4  18
BRANCH   5  20
ATOM     20  O   UNL     1       5.372   2.383  19.539  0.00  0.00    +0.000 OA
ATOM     21  H   UNL     1       6.217   2.787  19.243  0.00  0.00    +0.000 HD
ENDBRANCH   5  20
BRANCH   3  22
ATOM     22  C   UNL     1       1.340   4.267  18.202  0.00  0.00    +0.000 C 
BRANCH  22  23
ATOM     23  O   UNL     1       1.955   5.518  17.928  0.00  0.00    +0.000 OA
BRANCH  23  24
ATOM     24  S   UNL     1       2.320   6.426  19.229  0.00  0.00    +0.000 S 
ATOM     25  O   UNL     1       1.480   6.046  20.336  0.00  0.00    +0.000 OA
ATOM     26  O   UNL     1       3.767   6.410  19.362  0.00  0.00    +0.000 OA
BRANCH  24  27
ATOM     27  N   UNL     1       1.957   7.970  18.783  0.00  0.00    +0.000 N 
ATOM     28  C   UNL     1       1.388   8.912  19.649  0.00  0.00    +0.000 C 
ATOM     29  O   UNL     1       1.051   8.613  20.788  0.00  0.00    +0.000 OA
ATOM     30  H   UNL     1       2.328   8.250  17.881  0.00  0.00    +0.000 HD
BRANCH  28  31
ATOM     31  C   UNL     1       1.181  10.331  19.067  0.00  0.00    +0.000 C 
BRANCH  31  32
ATOM     32  N   UNL     1       0.255  10.347  17.917  0.00  0.00    +0.000 NA
ATOM     33  H   UNL     1       0.737  10.386  17.024  0.00  0.00    +0.000 HD
ATOM     34  H   UNL     1      -0.447  11.076  18.006  0.00  0.00    +0.000 HD
ENDBRANCH  31  32
BRANCH  31  35
ATOM     35  C   UNL     1       0.627  11.281  20.140  0.00  0.00    +0.000 C 
BRANCH  35  36
ATOM     36  C   UNL     1       0.303  12.673  19.603  0.00  0.00    +0.000 C 
BRANCH  36  37
ATOM     37  C   UNL     1      -1.029  12.739  18.900  0.00  0.00    +0.000 C 
ATOM     38  O   UNL     1      -2.088  12.435  19.434  0.00  0.00    +0.000 OA
BRANCH  37  39
ATOM     39  O   UNL     1      -0.981  13.175  17.626  0.00  0.00    +0.000 OA
ATOM     40  H   UNL     1      -0.950  14.147  17.508  0.00  0.00    +0.000 HD
ENDBRANCH  37  39
ENDBRANCH  36  37
ENDBRANCH  35  36
ENDBRANCH  31  35
ENDBRANCH  28  31
ENDBRANCH  24  27
ENDBRANCH  23  24
ENDBRANCH  22  23
ENDBRANCH   3  22
TORSDOF 14
ENDMDL
