MODEL 1
REMARK VINA RESULT:      -7.5      0.000      0.000
REMARK  Name = 
REMARK  10 active torsions:
REMARK  status: ('A' for Active; 'I' for Inactive)
REMARK    1  A    between atoms: C_2  and  C_8
REMARK    2  A    between atoms: N_3  and  C_4
REMARK    3  A    between atoms: C_4  and  C_5
REMARK    4  A    between atoms: C_5  and  C_6
REMARK    5  A    between atoms: C_6  and  O_7
REMARK    6  A    between atoms: C_8  and  C_9
REMARK    7  A    between atoms: C_8  and  N_17
REMARK    8  A    between atoms: C_9  and  C_10
REMARK    9  A    between atoms: C_18  and  C_20
REMARK   10  A    between atoms: C_20  and  C_21
REMARK                            x       y       z     vdW  Elec       q    Type
REMARK                         _______ _______ _______ _____ _____    ______ ____
ROOT
ATOM      1  C   UNL     1       2.225   6.351  18.383  0.00  0.00    +0.000 C 
ENDROOT
BRANCH   1   3
ATOM      2  O   UNL     1       1.225   4.318  17.453  0.00  0.00    +0.000 OA
ATOM      3  C   UNL     1       1.557   4.949  18.456  0.00  0.00    +0.000 C 
ATOM      4  N   UNL     1       1.464   4.408  19.714  0.00  0.00    +0.000 N 
ATOM      5  H   UNL     1       1.957   4.882  20.474  0.00  0.00    +0.000 HD
BRANCH   4   6
ATOM      6  C   UNL     1       0.846   3.125  19.963  0.00  0.00    +0.000 C 
BRANCH   6   7
ATOM      7  C   UNL     1       1.268   2.554  21.308  0.00  0.00    +0.000 C 
BRANCH   7   8
ATOM      8  C   UNL     1       2.760   2.709  21.563  0.00  0.00    +0.000 C 
BRANCH   8   9
ATOM      9  O   UNL     1       3.478   2.437  20.369  0.00  0.00    +0.000 OA
ATOM     10  H   UNL     1       3.137   1.604  20.002  0.00  0.00    +0.000 HD
ENDBRANCH   8   9
ENDBRANCH   7   8
ENDBRANCH   6   7
ENDBRANCH   4   6
ENDBRANCH   1   3
BRANCH   1  11
ATOM     11  N   UNL     1       3.537   6.401  17.705  0.00  0.00    +0.000 N 
ATOM     12  C   UNL     1       4.450   5.376  17.748  0.00  0.00    +0.000 C 
ATOM     13  O   UNL     1       4.278   4.411  18.494  0.00  0.00    +0.000 OA
ATOM     14  H   UNL     1       3.741   7.211  17.132  0.00  0.00    +0.000 HD
BRANCH  12  15
ATOM     15  C   UNL     1       5.722   5.547  16.882  0.00  0.00    +0.000 C 
ATOM     16  C   UNL     1       6.411   4.162  16.759  0.00  0.00    +0.000 C 
ATOM     17  C   UNL     1       7.255   4.242  15.495  0.00  0.00    +0.000 C 
ATOM     18  C   UNL     1       6.535   5.231  14.586  0.00  0.00    +0.000 C 
ATOM     19  C   UNL     1       5.356   5.775  15.396  0.00  0.00    +0.000 C 
BRANCH  15  20
ATOM     20  C   UNL     1       6.686   6.582  17.493  0.00  0.00    +0.000 A 
ATOM     21  C   UNL     1       7.569   6.189  18.519  0.00  0.00    +0.000 A 
ATOM     22  C   UNL     1       8.494   7.085  19.065  0.00  0.00    +0.000 A 
ATOM     23  C   UNL     1       8.548   8.388  18.599  0.00  0.00    +0.000 A 
ATOM     24  F   UNL     1       9.437   9.247  19.117  0.00  0.00    +0.000 F 
ATOM     25  C   UNL     1       7.692   8.812  17.596  0.00  0.00    +0.000 A 
ATOM     26  C   UNL     1       6.764   7.917  17.050  0.00  0.00    +0.000 A 
ENDBRANCH  15  20
ENDBRANCH  12  15
ENDBRANCH   1  11
BRANCH   1  27
ATOM     27  C   UNL     1       2.293   6.974  19.796  0.00  0.00    +0.000 C 
BRANCH  27  28
ATOM     28  C   UNL     1       1.434   8.192  20.105  0.00  0.00    +0.000 A 
ATOM     29  C   UNL     1       1.199   9.237  19.198  0.00  0.00    +0.000 A 
ATOM     30  C   UNL     1       0.384  10.318  19.544  0.00  0.00    +0.000 A 
ATOM     31  C   UNL     1      -0.194  10.376  20.805  0.00  0.00    +0.000 A 
ATOM     32 CL   UNL     1      -1.206  11.703  21.219  0.00  0.00    +0.000 Cl
ATOM     33  C   UNL     1       0.045   9.366  21.731  0.00  0.00    +0.000 A 
ATOM     34  C   UNL     1       0.853   8.280  21.383  0.00  0.00    +0.000 A 
ENDBRANCH  27  28
ENDBRANCH   1  27
TORSDOF 10
ENDMDL
MODEL 2
REMARK VINA RESULT:      -7.4      0.746      1.442
REMARK  Name = 
REMARK  10 active torsions:
REMARK  status: ('A' for Active; 'I' for Inactive)
REMARK    1  A    between atoms: C_2  and  C_8
REMARK    2  A    between atoms: N_3  and  C_4
REMARK    3  A    between atoms: C_4  and  C_5
REMARK    4  A    between atoms: C_5  and  C_6
REMARK    5  A    between atoms: C_6  and  O_7
REMARK    6  A    between atoms: C_8  and  C_9
REMARK    7  A    between atoms: C_8  and  N_17
REMARK    8  A    between atoms: C_9  and  C_10
REMARK    9  A    between atoms: C_18  and  C_20
REMARK   10  A    between atoms: C_20  and  C_21
REMARK                            x       y       z     vdW  Elec       q    Type
REMARK                         _______ _______ _______ _____ _____    ______ ____
ROOT
ATOM      1  C   UNL     1       2.233   6.384  18.324  0.00  0.00    +0.000 C 
ENDROOT
BRANCH   1   3
ATOM      2  O   UNL     1       1.149   4.404  17.374  0.00  0.00    +0.000 OA
ATOM      3  C   UNL     1       1.546   4.990  18.380  0.00  0.00    +0.000 C 
ATOM      4  N   UNL     1       1.514   4.401  19.620  0.00  0.00    +0.000 N 
ATOM      5  H   UNL     1       2.055   4.838  20.369  0.00  0.00    +0.000 HD
BRANCH   4   6
ATOM      6  C   UNL     1       0.888   3.119  19.853  0.00  0.00    +0.000 C 
BRANCH   6   7
ATOM      7  C   UNL     1       1.913   2.059  20.230  0.00  0.00    +0.000 C 
BRANCH   7   8
ATOM      8  C   UNL     1       2.873   1.748  19.091  0.00  0.00    +0.000 C 
BRANCH   8   9
ATOM      9  O   UNL     1       2.157   1.689  17.867  0.00  0.00    +0.000 OA
ATOM     10  H   UNL     1       2.668   2.182  17.202  0.00  0.00    +0.000 HD
ENDBRANCH   8   9
ENDBRANCH   7   8
ENDBRANCH   6   7
ENDBRANCH   4   6
ENDBRANCH   1   3
BRANCH   1  11
ATOM     11  N   UNL     1       3.536   6.429  17.629  0.00  0.00    +0.000 N 
ATOM     12  C   UNL     1       4.532   5.504  17.829  0.00  0.00    +0.000 C 
ATOM     13  O   UNL     1       4.441   4.666  18.727  0.00  0.00    +0.000 OA
ATOM     14  H   UNL     1       3.672   7.146  16.927  0.00  0.00    +0.000 HD
BRANCH  12  15
ATOM     15  C   UNL     1       5.786   5.633  16.929  0.00  0.00    +0.000 C 
ATOM     16  C   UNL     1       6.404   4.220  16.759  0.00  0.00    +0.000 C 
ATOM     17  C   UNL     1       7.214   4.287  15.472  0.00  0.00    +0.000 C 
ATOM     18  C   UNL     1       6.516   5.328  14.604  0.00  0.00    +0.000 C 
ATOM     19  C   UNL     1       5.388   5.910  15.460  0.00  0.00    +0.000 C 
BRANCH  15  20
ATOM     20  C   UNL     1       6.816   6.607  17.532  0.00  0.00    +0.000 A 
ATOM     21  C   UNL     1       6.899   7.924  17.037  0.00  0.00    +0.000 A 
ATOM     22  C   UNL     1       7.786   8.854  17.590  0.00  0.00    +0.000 A 
ATOM     23  C   UNL     1       8.606   8.482  18.643  0.00  0.00    +0.000 A 
ATOM     24  F   UNL     1       9.452   9.373  19.179  0.00  0.00    +0.000 F 
ATOM     25  C   UNL     1       8.556   7.195  19.152  0.00  0.00    +0.000 A 
ATOM     26  C   UNL     1       7.671   6.263  18.597  0.00  0.00    +0.000 A 
ENDBRANCH  15  20
ENDBRANCH  12  15
ENDBRANCH   1  11
BRANCH   1  27
ATOM     27  C   UNL     1       2.329   6.979  19.747  0.00  0.00    +0.000 C 
BRANCH  27  28
ATOM     28  C   UNL     1       1.466   8.182  20.101  0.00  0.00    +0.000 A 
ATOM     29  C   UNL     1       0.820   8.348  21.335  0.00  0.00    +0.000 A 
ATOM     30  C   UNL     1       0.056   9.488  21.599  0.00  0.00    +0.000 A 
ATOM     31  C   UNL     1      -0.084  10.469  20.626  0.00  0.00    +0.000 A 
ATOM     32 CL   UNL     1      -1.016  11.875  20.961  0.00  0.00    +0.000 Cl
ATOM     33  C   UNL     1       0.524  10.315  19.384  0.00  0.00    +0.000 A 
ATOM     34  C   UNL     1       1.295   9.179  19.124  0.00  0.00    +0.000 A 
ENDBRANCH  27  28
ENDBRANCH   1  27
TORSDOF 10
ENDMDL
MODEL 3
REMARK VINA RESULT:      -7.4      3.458      7.169
REMARK  Name = 
REMARK  10 active torsions:
REMARK  status: ('A' for Active; 'I' for Inactive)
REMARK    1  A    between atoms: C_2  and  C_8
REMARK    2  A    between atoms: N_3  and  C_4
REMARK    3  A    between atoms: C_4  and  C_5
REMARK    4  A    between atoms: C_5  and  C_6
REMARK    5  A    between atoms: C_6  and  O_7
REMARK    6  A    between atoms: C_8  and  C_9
REMARK    7  A    between atoms: C_8  and  N_17
REMARK    8  A    between atoms: C_9  and  C_10
REMARK    9  A    between atoms: C_18  and  C_20
REMARK   10  A    between atoms: C_20  and  C_21
REMARK                            x       y       z     vdW  Elec       q    Type
REMARK                         _______ _______ _______ _____ _____    ______ ____
ROOT
ATOM      1  C   UNL     1       7.091   6.480  17.738  0.00  0.00    +0.000 C 
ENDROOT
BRANCH   1   3
ATOM      2  O   UNL     1       7.969   4.310  17.018  0.00  0.00    +0.000 OA
ATOM      3  C   UNL     1       7.466   5.386  16.698  0.00  0.00    +0.000 C 
ATOM      4  N   UNL     1       7.094   5.655  15.404  0.00  0.00    +0.000 N 
ATOM      5  H   UNL     1       6.485   6.460  15.241  0.00  0.00    +0.000 HD
BRANCH   4   6
ATOM      6  C   UNL     1       7.391   4.757  14.311  0.00  0.00    +0.000 C 
BRANCH   6   7
ATOM      7  C   UNL     1       6.144   4.023  13.838  0.00  0.00    +0.000 C 
BRANCH   7   8
ATOM      8  C   UNL     1       6.308   3.441  12.441  0.00  0.00    +0.000 C 
BRANCH   8   9
ATOM      9  O   UNL     1       5.033   3.116  11.908  0.00  0.00    +0.000 OA
ATOM     10  H   UNL     1       4.756   2.271  12.299  0.00  0.00    +0.000 HD
ENDBRANCH   8   9
ENDBRANCH   7   8
ENDBRANCH   6   7
ENDBRANCH   4   6
ENDBRANCH   1   3
BRANCH   1  11
ATOM     11  N   UNL     1       5.780   6.311  18.400  0.00  0.00    +0.000 N 
ATOM     12  C   UNL     1       4.587   6.289  17.719  0.00  0.00    +0.000 C 
ATOM     13  O   UNL     1       4.541   6.565  16.520  0.00  0.00    +0.000 OA
ATOM     14  H   UNL     1       5.774   6.144  19.398  0.00  0.00    +0.000 HD
BRANCH  12  15
ATOM     15  C   UNL     1       3.320   5.983  18.556  0.00  0.00    +0.000 C 
ATOM     16  C   UNL     1       2.453   4.969  17.764  0.00  0.00    +0.000 C 
ATOM     17  C   UNL     1       1.585   4.278  18.807  0.00  0.00    +0.000 C 
ATOM     18  C   UNL     1       2.399   4.306  20.096  0.00  0.00    +0.000 C 
ATOM     19  C   UNL     1       3.665   5.109  19.785  0.00  0.00    +0.000 C 
BRANCH  15  20
ATOM     20  C   UNL     1       2.520   7.264  18.857  0.00  0.00    +0.000 A 
ATOM     21  C   UNL     1       2.209   8.153  17.809  0.00  0.00    +0.000 A 
ATOM     22  C   UNL     1       1.443   9.302  18.032  0.00  0.00    +0.000 A 
ATOM     23  C   UNL     1       0.978   9.583  19.306  0.00  0.00    +0.000 A 
ATOM     24  F   UNL     1       0.238  10.679  19.522  0.00  0.00    +0.000 F 
ATOM     25  C   UNL     1       1.268   8.735  20.363  0.00  0.00    +0.000 A 
ATOM     26  C   UNL     1       2.038   7.587  20.141  0.00  0.00    +0.000 A 
ENDBRANCH  15  20
ENDBRANCH  12  15
ENDBRANCH   1  11
BRANCH   1  27
ATOM     27  C   UNL     1       7.227   7.880  17.099  0.00  0.00    +0.000 C 
BRANCH  27  28
ATOM     28  C   UNL     1       8.001   8.957  17.845  0.00  0.00    +0.000 A 
ATOM     29  C   UNL     1       8.748   8.721  19.010  0.00  0.00    +0.000 A 
ATOM     30  C   UNL     1       9.450   9.756  19.635  0.00  0.00    +0.000 A 
ATOM     31  C   UNL     1       9.400  11.042  19.113  0.00  0.00    +0.000 A 
ATOM     32 CL   UNL     1      10.275  12.308  19.880  0.00  0.00    +0.000 Cl
ATOM     33  C   UNL     1       8.644  11.307  17.975  0.00  0.00    +0.000 A 
ATOM     34  C   UNL     1       7.950  10.270  17.345  0.00  0.00    +0.000 A 
ENDBRANCH  27  28
ENDBRANCH   1  27
TORSDOF 10
ENDMDL
MODEL 4
REMARK VINA RESULT:      -7.3      1.257      1.402
REMARK  Name = 
REMARK  10 active torsions:
REMARK  status: ('A' for Active; 'I' for Inactive)
REMARK    1  A    between atoms: C_2  and  C_8
REMARK    2  A    between atoms: N_3  and  C_4
REMARK    3  A    between atoms: C_4  and  C_5
REMARK    4  A    between atoms: C_5  and  C_6
REMARK    5  A    between atoms: C_6  and  O_7
REMARK    6  A    between atoms: C_8  and  C_9
REMARK    7  A    between atoms: C_8  and  N_17
REMARK    8  A    between atoms: C_9  and  C_10
REMARK    9  A    between atoms: C_18  and  C_20
REMARK   10  A    between atoms: C_20  and  C_21
REMARK                            x       y       z     vdW  Elec       q    Type
REMARK                         _______ _______ _______ _____ _____    ______ ____
ROOT
ATOM      1  C   UNL     1       2.494   6.353  18.923  0.00  0.00    +0.000 C 
ENDROOT
BRANCH   1   3
ATOM      2  O   UNL     1       2.292   5.122  21.031  0.00  0.00    +0.000 OA
ATOM      3  C   UNL     1       2.088   5.148  19.818  0.00  0.00    +0.000 C 
ATOM      4  N   UNL     1       1.380   4.158  19.182  0.00  0.00    +0.000 N 
ATOM      5  H   UNL     1       1.052   4.342  18.232  0.00  0.00    +0.000 HD
BRANCH   4   6
ATOM      6  C   UNL     1       0.949   2.956  19.860  0.00  0.00    +0.000 C 
BRANCH   6   7
ATOM      7  C   UNL     1       1.653   1.724  19.311  0.00  0.00    +0.000 C 
BRANCH   7   8
ATOM      8  C   UNL     1       3.166   1.815  19.435  0.00  0.00    +0.000 C 
BRANCH   8   9
ATOM      9  O   UNL     1       3.750   1.842  18.142  0.00  0.00    +0.000 OA
ATOM     10  H   UNL     1       4.654   2.188  18.233  0.00  0.00    +0.000 HD
ENDBRANCH   8   9
ENDBRANCH   7   8
ENDBRANCH   6   7
ENDBRANCH   4   6
ENDBRANCH   1   3
BRANCH   1  11
ATOM     11  N   UNL     1       3.777   6.211  18.203  0.00  0.00    +0.000 N 
ATOM     12  C   UNL     1       4.005   5.251  17.248  0.00  0.00    +0.000 C 
ATOM     13  O   UNL     1       3.188   4.351  17.052  0.00  0.00    +0.000 OA
ATOM     14  H   UNL     1       4.498   6.898  18.385  0.00  0.00    +0.000 HD
BRANCH  12  15
ATOM     15  C   UNL     1       5.363   5.322  16.507  0.00  0.00    +0.000 C 
ATOM     16  C   UNL     1       5.914   3.879  16.370  0.00  0.00    +0.000 C 
ATOM     17  C   UNL     1       6.876   3.923  15.191  0.00  0.00    +0.000 C 
ATOM     18  C   UNL     1       6.349   5.023  14.277  0.00  0.00    +0.000 C 
ATOM     19  C   UNL     1       5.162   5.655  15.009  0.00  0.00    +0.000 C 
BRANCH  15  20
ATOM     20  C   UNL     1       6.368   6.219  17.255  0.00  0.00    +0.000 A 
ATOM     21  C   UNL     1       7.114   5.685  18.326  0.00  0.00    +0.000 A 
ATOM     22  C   UNL     1       8.071   6.451  18.999  0.00  0.00    +0.000 A 
ATOM     23  C   UNL     1       8.296   7.763  18.616  0.00  0.00    +0.000 A 
ATOM     24  F   UNL     1       9.217   8.498  19.255  0.00  0.00    +0.000 F 
ATOM     25  C   UNL     1       7.578   8.324  17.572  0.00  0.00    +0.000 A 
ATOM     26  C   UNL     1       6.617   7.559  16.901  0.00  0.00    +0.000 A 
ENDBRANCH  15  20
ENDBRANCH  12  15
ENDBRANCH   1  11
BRANCH   1  27
ATOM     27  C   UNL     1       2.449   7.659  19.748  0.00  0.00    +0.000 C 
BRANCH  27  28
ATOM     28  C   UNL     1       1.361   8.680  19.449  0.00  0.00    +0.000 A 
ATOM     29  C   UNL     1       1.074   9.168  18.164  0.00  0.00    +0.000 A 
ATOM     30  C   UNL     1       0.047  10.094  17.960  0.00  0.00    +0.000 A 
ATOM     31  C   UNL     1      -0.695  10.555  19.038  0.00  0.00    +0.000 A 
ATOM     32 CL   UNL     1      -1.965  11.685  18.778  0.00  0.00    +0.000 Cl
ATOM     33  C   UNL     1      -0.413  10.108  20.325  0.00  0.00    +0.000 A 
ATOM     34  C   UNL     1       0.608   9.176  20.528  0.00  0.00    +0.000 A 
ENDBRANCH  27  28
ENDBRANCH   1  27
TORSDOF 10
ENDMDL
MODEL 5
REMARK VINA RESULT:      -7.2      4.160      8.233
REMARK  Name = 
REMARK  10 active torsions:
REMARK  status: ('A' for Active; 'I' for Inactive)
REMARK    1  A    between atoms: C_2  and  C_8
REMARK    2  A    between atoms: N_3  and  C_4
REMARK    3  A    between atoms: C_4  and  C_5
REMARK    4  A    between atoms: C_5  and  C_6
REMARK    5  A    between atoms: C_6  and  O_7
REMARK    6  A    between atoms: C_8  and  C_9
REMARK    7  A    between atoms: C_8  and  N_17
REMARK    8  A    between atoms: C_9  and  C_10
REMARK    9  A    between atoms: C_18  and  C_20
REMARK   10  A    between atoms: C_20  and  C_21
REMARK                            x       y       z     vdW  Elec       q    Type
REMARK                         _______ _______ _______ _____ _____    ______ ____
ROOT
ATOM      1  C   UNL     1       6.788   6.694  17.479  0.00  0.00    +0.000 C 
ENDROOT
BRANCH   1   3
ATOM      2  O   UNL     1       8.648   6.971  19.048  0.00  0.00    +0.000 OA
ATOM      3  C   UNL     1       7.879   7.495  18.244  0.00  0.00    +0.000 C 
ATOM      4  N   UNL     1       8.001   8.813  17.879  0.00  0.00    +0.000 N 
ATOM      5  H   UNL     1       7.487   9.129  17.054  0.00  0.00    +0.000 HD
BRANCH   4   6
ATOM      6  C   UNL     1       8.946   9.707  18.511  0.00  0.00    +0.000 C 
BRANCH   6   7
ATOM      7  C   UNL     1       8.841  11.117  17.949  0.00  0.00    +0.000 C 
BRANCH   7   8
ATOM      8  C   UNL     1       9.694  12.115  18.719  0.00  0.00    +0.000 C 
BRANCH   8   9
ATOM      9  O   UNL     1       9.970  13.240  17.899  0.00  0.00    +0.000 OA
ATOM     10  H   UNL     1       9.121  13.658  17.675  0.00  0.00    +0.000 HD
ENDBRANCH   8   9
ENDBRANCH   7   8
ENDBRANCH   6   7
ENDBRANCH   4   6
ENDBRANCH   1   3
BRANCH   1  11
ATOM     11  N   UNL     1       5.526   6.467  18.213  0.00  0.00    +0.000 N 
ATOM     12  C   UNL     1       4.284   6.593  17.638  0.00  0.00    +0.000 C 
ATOM     13  O   UNL     1       4.160   7.059  16.505  0.00  0.00    +0.000 OA
ATOM     14  H   UNL     1       5.589   6.143  19.170  0.00  0.00    +0.000 HD
BRANCH  12  15
ATOM     15  C   UNL     1       3.072   6.201  18.519  0.00  0.00    +0.000 C 
ATOM     16  C   UNL     1       2.233   5.152  17.744  0.00  0.00    +0.000 C 
ATOM     17  C   UNL     1       1.450   4.396  18.808  0.00  0.00    +0.000 C 
ATOM     18  C   UNL     1       2.312   4.450  20.064  0.00  0.00    +0.000 C 
ATOM     19  C   UNL     1       3.516   5.330  19.718  0.00  0.00    +0.000 C 
BRANCH  15  20
ATOM     20  C   UNL     1       2.213   7.430  18.875  0.00  0.00    +0.000 A 
ATOM     21  C   UNL     1       1.866   7.669  20.220  0.00  0.00    +0.000 A 
ATOM     22  C   UNL     1       1.129   8.798  20.591  0.00  0.00    +0.000 A 
ATOM     23  C   UNL     1       0.723   9.704  19.624  0.00  0.00    +0.000 A 
ATOM     24  F   UNL     1       0.023  10.791  19.977  0.00  0.00    +0.000 F 
ATOM     25  C   UNL     1       1.041   9.499  18.291  0.00  0.00    +0.000 A 
ATOM     26  C   UNL     1       1.776   8.367  17.919  0.00  0.00    +0.000 A 
ENDBRANCH  15  20
ENDBRANCH  12  15
ENDBRANCH   1  11
BRANCH   1  27
ATOM     27  C   UNL     1       7.384   5.368  16.952  0.00  0.00    +0.000 C 
BRANCH  27  28
ATOM     28  C   UNL     1       6.897   4.822  15.617  0.00  0.00    +0.000 A 
ATOM     29  C   UNL     1       7.516   5.090  14.387  0.00  0.00    +0.000 A 
ATOM     30  C   UNL     1       7.023   4.540  13.200  0.00  0.00    +0.000 A 
ATOM     31  C   UNL     1       5.897   3.729  13.227  0.00  0.00    +0.000 A 
ATOM     32 CL   UNL     1       5.304   3.045  11.765  0.00  0.00    +0.000 Cl
ATOM     33  C   UNL     1       5.249   3.470  14.431  0.00  0.00    +0.000 A 
ATOM     34  C   UNL     1       5.746   4.013  15.618  0.00  0.00    +0.000 A 
ENDBRANCH  27  28
ENDBRANCH   1  27
TORSDOF 10
ENDMDL
MODEL 6
REMARK VINA RESULT:      -7.2      1.206      1.416
REMARK  Name = 
REMARK  10 active torsions:
REMARK  status: ('A' for Active; 'I' for Inactive)
REMARK    1  A    between atoms: C_2  and  C_8
REMARK    2  A    between atoms: N_3  and  C_4
REMARK    3  A    between atoms: C_4  and  C_5
REMARK    4  A    between atoms: C_5  and  C_6
REMARK    5  A    between atoms: C_6  and  O_7
REMARK    6  A    between atoms: C_8  and  C_9
REMARK    7  A    between atoms: C_8  and  N_17
REMARK    8  A    between atoms: C_9  and  C_10
REMARK    9  A    between atoms: C_18  and  C_20
REMARK   10  A    between atoms: C_20  and  C_21
REMARK                            x       y       z     vdW  Elec       q    Type
REMARK                         _______ _______ _______ _____ _____    ______ ____
ROOT
ATOM      1  C   UNL     1       2.360   5.958  18.730  0.00  0.00    +0.000 C 
ENDROOT
BRANCH   1   3
ATOM      2  O   UNL     1       0.986   3.944  18.958  0.00  0.00    +0.000 OA
ATOM      3  C   UNL     1       1.935   4.608  19.373  0.00  0.00    +0.000 C 
ATOM      4  N   UNL     1       2.760   4.147  20.369  0.00  0.00    +0.000 N 
ATOM      5  H   UNL     1       3.648   4.632  20.514  0.00  0.00    +0.000 HD
BRANCH   4   6
ATOM      6  C   UNL     1       2.494   2.923  21.090  0.00  0.00    +0.000 C 
BRANCH   6   7
ATOM      7  C   UNL     1       3.715   2.015  21.117  0.00  0.00    +0.000 C 
BRANCH   7   8
ATOM      8  C   UNL     1       4.306   1.795  19.732  0.00  0.00    +0.000 C 
BRANCH   8   9
ATOM      9  O   UNL     1       5.281   2.792  19.465  0.00  0.00    +0.000 OA
ATOM     10  H   UNL     1       5.203   3.038  18.528  0.00  0.00    +0.000 HD
ENDBRANCH   8   9
ENDBRANCH   7   8
ENDBRANCH   6   7
ENDBRANCH   4   6
ENDBRANCH   1   3
BRANCH   1  11
ATOM     11  N   UNL     1       3.645   5.943  18.000  0.00  0.00    +0.000 N 
ATOM     12  C   UNL     1       4.034   4.915  17.176  0.00  0.00    +0.000 C 
ATOM     13  O   UNL     1       3.386   3.869  17.126  0.00  0.00    +0.000 OA
ATOM     14  H   UNL     1       4.236   6.762  18.068  0.00  0.00    +0.000 HD
BRANCH  12  15
ATOM     15  C   UNL     1       5.356   5.117  16.395  0.00  0.00    +0.000 C 
ATOM     16  C   UNL     1       5.992   3.723  16.154  0.00  0.00    +0.000 C 
ATOM     17  C   UNL     1       6.903   3.897  14.948  0.00  0.00    +0.000 C 
ATOM     18  C   UNL     1       6.273   5.011  14.119  0.00  0.00    +0.000 C 
ATOM     19  C   UNL     1       5.077   5.520  14.927  0.00  0.00    +0.000 C 
BRANCH  15  20
ATOM     20  C   UNL     1       6.329   6.034  17.160  0.00  0.00    +0.000 A 
ATOM     21  C   UNL     1       7.069   5.514  18.241  0.00  0.00    +0.000 A 
ATOM     22  C   UNL     1       7.999   6.300  18.931  0.00  0.00    +0.000 A 
ATOM     23  C   UNL     1       8.201   7.618  18.554  0.00  0.00    +0.000 A 
ATOM     24  F   UNL     1       9.096   8.371  19.208  0.00  0.00    +0.000 F 
ATOM     25  C   UNL     1       7.488   8.165  17.499  0.00  0.00    +0.000 A 
ATOM     26  C   UNL     1       6.555   7.380  16.811  0.00  0.00    +0.000 A 
ENDBRANCH  15  20
ENDBRANCH  12  15
ENDBRANCH   1  11
BRANCH   1  27
ATOM     27  C   UNL     1       2.326   7.080  19.792  0.00  0.00    +0.000 C 
BRANCH  27  28
ATOM     28  C   UNL     1       1.709   8.422  19.425  0.00  0.00    +0.000 A 
ATOM     29  C   UNL     1       1.877   9.048  18.181  0.00  0.00    +0.000 A 
ATOM     30  C   UNL     1       1.266  10.275  17.906  0.00  0.00    +0.000 A 
ATOM     31  C   UNL     1       0.492  10.898  18.876  0.00  0.00    +0.000 A 
ATOM     32 CL   UNL     1      -0.267  12.400  18.527  0.00  0.00    +0.000 Cl
ATOM     33  C   UNL     1       0.333  10.310  20.128  0.00  0.00    +0.000 A 
ATOM     34  C   UNL     1       0.937   9.080  20.399  0.00  0.00    +0.000 A 
ENDBRANCH  27  28
ENDBRANCH   1  27
TORSDOF 10
ENDMDL
MODEL 7
REMARK VINA RESULT:      -7.2      1.326      1.729
REMARK  Name = 
REMARK  10 active torsions:
REMARK  status: ('A' for Active; 'I' for Inactive)
REMARK    1  A    between atoms: C_2  and  C_8
REMARK    2  A    between atoms: N_3  and  C_4
REMARK    3  A    between atoms: C_4  and  C_5
REMARK    4  A    between atoms: C_5  and  C_6
REMARK    5  A    between atoms: C_6  and  O_7
REMARK    6  A    between atoms: C_8  and  C_9
REMARK    7  A    between atoms: C_8  and  N_17
REMARK    8  A    between atoms: C_9  and  C_10
REMARK    9  A    between atoms: C_18  and  C_20
REMARK   10  A    between atoms: C_20  and  C_21
REMARK                            x       y       z     vdW  Elec       q    Type
REMARK                         _______ _______ _______ _____ _____    ______ ____
ROOT
ATOM      1  C   UNL     1       2.508   6.530  19.062  0.00  0.00    +0.000 C 
ENDROOT
BRANCH   1   3
ATOM      2  O   UNL     1       1.204   5.578  20.904  0.00  0.00    +0.000 OA
ATOM      3  C   UNL     1       2.121   5.435  20.097  0.00  0.00    +0.000 C 
ATOM      4  N   UNL     1       2.800   4.248  19.975  0.00  0.00    +0.000 N 
ATOM      5  H   UNL     1       3.387   4.117  19.149  0.00  0.00    +0.000 HD
BRANCH   4   6
ATOM      6  C   UNL     1       2.582   3.136  20.873  0.00  0.00    +0.000 C 
BRANCH   6   7
ATOM      7  C   UNL     1       1.366   2.318  20.463  0.00  0.00    +0.000 C 
BRANCH   7   8
ATOM      8  C   UNL     1       1.217   2.217  18.952  0.00  0.00    +0.000 C 
BRANCH   8   9
ATOM      9  O   UNL     1       2.420   1.720  18.387  0.00  0.00    +0.000 OA
ATOM     10  H   UNL     1       3.023   1.504  19.118  0.00  0.00    +0.000 HD
ENDBRANCH   8   9
ENDBRANCH   7   8
ENDBRANCH   6   7
ENDBRANCH   4   6
ENDBRANCH   1   3
BRANCH   1  11
ATOM     11  N   UNL     1       3.775   6.305  18.335  0.00  0.00    +0.000 N 
ATOM     12  C   UNL     1       3.926   5.352  17.357  0.00  0.00    +0.000 C 
ATOM     13  O   UNL     1       3.039   4.524  17.142  0.00  0.00    +0.000 OA
ATOM     14  H   UNL     1       4.548   6.928  18.532  0.00  0.00    +0.000 HD
BRANCH  12  15
ATOM     15  C   UNL     1       5.285   5.334  16.614  0.00  0.00    +0.000 C 
ATOM     16  C   UNL     1       5.777   3.864  16.547  0.00  0.00    +0.000 C 
ATOM     17  C   UNL     1       6.738   3.814  15.368  0.00  0.00    +0.000 C 
ATOM     18  C   UNL     1       6.254   4.889  14.402  0.00  0.00    +0.000 C 
ATOM     19  C   UNL     1       5.095   5.602  15.102  0.00  0.00    +0.000 C 
BRANCH  15  20
ATOM     20  C   UNL     1       6.325   6.224  17.320  0.00  0.00    +0.000 A 
ATOM     21  C   UNL     1       7.101   5.690  18.368  0.00  0.00    +0.000 A 
ATOM     22  C   UNL     1       8.090   6.450  19.001  0.00  0.00    +0.000 A 
ATOM     23  C   UNL     1       8.317   7.757  18.600  0.00  0.00    +0.000 A 
ATOM     24  F   UNL     1       9.269   8.485  19.200  0.00  0.00    +0.000 F 
ATOM     25  C   UNL     1       7.570   8.318  17.576  0.00  0.00    +0.000 A 
ATOM     26  C   UNL     1       6.578   7.559  16.945  0.00  0.00    +0.000 A 
ENDBRANCH  15  20
ENDBRANCH  12  15
ENDBRANCH   1  11
BRANCH   1  27
ATOM     27  C   UNL     1       2.479   7.921  19.734  0.00  0.00    +0.000 C 
BRANCH  27  28
ATOM     28  C   UNL     1       1.291   8.837  19.477  0.00  0.00    +0.000 A 
ATOM     29  C   UNL     1       0.461   9.347  20.487  0.00  0.00    +0.000 A 
ATOM     30  C   UNL     1      -0.604  10.199  20.180  0.00  0.00    +0.000 A 
ATOM     31  C   UNL     1      -0.862  10.538  18.859  0.00  0.00    +0.000 A 
ATOM     32 CL   UNL     1      -2.166  11.596  18.489  0.00  0.00    +0.000 Cl
ATOM     33  C   UNL     1      -0.070  10.024  17.836  0.00  0.00    +0.000 A 
ATOM     34  C   UNL     1       1.000   9.179  18.144  0.00  0.00    +0.000 A 
ENDBRANCH  27  28
ENDBRANCH   1  27
TORSDOF 10
ENDMDL
MODEL 8
REMARK VINA RESULT:      -7.2      4.305      8.483
REMARK  Name = 
REMARK  10 active torsions:
REMARK  status: ('A' for Active; 'I' for Inactive)
REMARK    1  A    between atoms: C_2  and  C_8
REMARK    2  A    between atoms: N_3  and  C_4
REMARK    3  A    between atoms: C_4  and  C_5
REMARK    4  A    between atoms: C_5  and  C_6
REMARK    5  A    between atoms: C_6  and  O_7
REMARK    6  A    between atoms: C_8  and  C_9
REMARK    7  A    between atoms: C_8  and  N_17
REMARK    8  A    between atoms: C_9  and  C_10
REMARK    9  A    between atoms: C_18  and  C_20
REMARK   10  A    between atoms: C_20  and  C_21
REMARK                            x       y       z     vdW  Elec       q    Type
REMARK                         _______ _______ _______ _____ _____    ______ ____
ROOT
ATOM      1  C   UNL     1       6.817   6.906  16.897  0.00  0.00    +0.000 C 
ENDROOT
BRANCH   1   3
ATOM      2  O   UNL     1       8.270   6.842  18.867  0.00  0.00    +0.000 OA
ATOM      3  C   UNL     1       7.747   7.518  17.982  0.00  0.00    +0.000 C 
ATOM      4  N   UNL     1       8.039   8.850  17.821  0.00  0.00    +0.000 N 
ATOM      5  H   UNL     1       7.755   9.298  16.947  0.00  0.00    +0.000 HD
BRANCH   4   6
ATOM      6  C   UNL     1       8.865   9.580  18.756  0.00  0.00    +0.000 C 
BRANCH   6   7
ATOM      7  C   UNL     1       9.089  11.015  18.300  0.00  0.00    +0.000 C 
BRANCH   7   8
ATOM      8  C   UNL     1      10.516  11.484  18.539  0.00  0.00    +0.000 C 
BRANCH   8   9
ATOM      9  O   UNL     1      11.239  11.454  17.318  0.00  0.00    +0.000 OA
ATOM     10  H   UNL     1      11.677  10.589  17.255  0.00  0.00    +0.000 HD
ENDBRANCH   8   9
ENDBRANCH   7   8
ENDBRANCH   6   7
ENDBRANCH   4   6
ENDBRANCH   1   3
BRANCH   1  11
ATOM     11  N   UNL     1       5.369   6.964  17.187  0.00  0.00    +0.000 N 
ATOM     12  C   UNL     1       4.776   6.272  18.216  0.00  0.00    +0.000 C 
ATOM     13  O   UNL     1       5.412   5.437  18.861  0.00  0.00    +0.000 OA
ATOM     14  H   UNL     1       4.801   7.594  16.634  0.00  0.00    +0.000 HD
BRANCH  12  15
ATOM     15  C   UNL     1       3.270   6.542  18.452  0.00  0.00    +0.000 C 
ATOM     16  C   UNL     1       3.126   7.364  19.759  0.00  0.00    +0.000 C 
ATOM     17  C   UNL     1       1.787   8.078  19.643  0.00  0.00    +0.000 C 
ATOM     18  C   UNL     1       1.563   8.281  18.148  0.00  0.00    +0.000 C 
ATOM     19  C   UNL     1       2.727   7.581  17.443  0.00  0.00    +0.000 C 
BRANCH  15  20
ATOM     20  C   UNL     1       2.470   5.228  18.546  0.00  0.00    +0.000 A 
ATOM     21  C   UNL     1       2.476   4.331  17.458  0.00  0.00    +0.000 A 
ATOM     22  C   UNL     1       1.803   3.107  17.522  0.00  0.00    +0.000 A 
ATOM     23  C   UNL     1       1.110   2.760  18.670  0.00  0.00    +0.000 A 
ATOM     24  F   UNL     1       0.470   1.585  18.737  0.00  0.00    +0.000 F 
ATOM     25  C   UNL     1       1.077   3.619  19.757  0.00  0.00    +0.000 A 
ATOM     26  C   UNL     1       1.747   4.847  19.693  0.00  0.00    +0.000 A 
ENDBRANCH  15  20
ENDBRANCH  12  15
ENDBRANCH   1  11
BRANCH   1  27
ATOM     27  C   UNL     1       7.272   5.467  16.565  0.00  0.00    +0.000 C 
BRANCH  27  28
ATOM     28  C   UNL     1       6.798   4.827  15.269  0.00  0.00    +0.000 A 
ATOM     29  C   UNL     1       7.448   4.980  14.034  0.00  0.00    +0.000 A 
ATOM     30  C   UNL     1       6.966   4.348  12.885  0.00  0.00    +0.000 A 
ATOM     31  C   UNL     1       5.820   3.566  12.952  0.00  0.00    +0.000 A 
ATOM     32 CL   UNL     1       5.240   2.781  11.537  0.00  0.00    +0.000 Cl
ATOM     33  C   UNL     1       5.142   3.420  14.158  0.00  0.00    +0.000 A 
ATOM     34  C   UNL     1       5.629   4.046  15.309  0.00  0.00    +0.000 A 
ENDBRANCH  27  28
ENDBRANCH   1  27
TORSDOF 10
ENDMDL
MODEL 9
REMARK VINA RESULT:      -7.2      1.119      1.533
REMARK  Name = 
REMARK  10 active torsions:
REMARK  status: ('A' for Active; 'I' for Inactive)
REMARK    1  A    between atoms: C_2  and  C_8
REMARK    2  A    between atoms: N_3  and  C_4
REMARK    3  A    between atoms: C_4  and  C_5
REMARK    4  A    between atoms: C_5  and  C_6
REMARK    5  A    between atoms: C_6  and  O_7
REMARK    6  A    between atoms: C_8  and  C_9
REMARK    7  A    between atoms: C_8  and  N_17
REMARK    8  A    between atoms: C_9  and  C_10
REMARK    9  A    between atoms: C_18  and  C_20
REMARK   10  A    between atoms: C_20  and  C_21
REMARK                            x       y       z     vdW  Elec       q    Type
REMARK                         _______ _______ _______ _____ _____    ______ ____
ROOT
ATOM      1  C   UNL     1       2.408   6.083  18.832  0.00  0.00    +0.000 C 
ENDROOT
BRANCH   1   3
ATOM      2  O   UNL     1       1.061   4.059  19.130  0.00  0.00    +0.000 OA
ATOM      3  C   UNL     1       1.922   4.812  19.583  0.00  0.00    +0.000 C 
ATOM      4  N   UNL     1       2.599   4.521  20.742  0.00  0.00    +0.000 N 
ATOM      5  H   UNL     1       3.445   5.057  20.946  0.00  0.00    +0.000 HD
BRANCH   4   6
ATOM      6  C   UNL     1       2.257   3.391  21.576  0.00  0.00    +0.000 C 
BRANCH   6   7
ATOM      7  C   UNL     1       3.199   2.219  21.343  0.00  0.00    +0.000 C 
BRANCH   7   8
ATOM      8  C   UNL     1       4.087   2.421  20.123  0.00  0.00    +0.000 C 
BRANCH   8   9
ATOM      9  O   UNL     1       3.436   1.909  18.970  0.00  0.00    +0.000 OA
ATOM     10  H   UNL     1       2.665   2.475  18.790  0.00  0.00    +0.000 HD
ENDBRANCH   8   9
ENDBRANCH   7   8
ENDBRANCH   6   7
ENDBRANCH   4   6
ENDBRANCH   1   3
BRANCH   1  11
ATOM     11  N   UNL     1       3.676   5.941  18.086  0.00  0.00    +0.000 N 
ATOM     12  C   UNL     1       3.910   4.938  17.177  0.00  0.00    +0.000 C 
ATOM     13  O   UNL     1       3.116   4.005  17.051  0.00  0.00    +0.000 OA
ATOM     14  H   UNL     1       4.381   6.657  18.213  0.00  0.00    +0.000 HD
BRANCH  12  15
ATOM     15  C   UNL     1       5.247   5.008  16.398  0.00  0.00    +0.000 C 
ATOM     16  C   UNL     1       5.736   3.558  16.147  0.00  0.00    +0.000 C 
ATOM     17  C   UNL     1       6.662   3.647  14.942  0.00  0.00    +0.000 C 
ATOM     18  C   UNL     1       6.151   4.826  14.122  0.00  0.00    +0.000 C 
ATOM     19  C   UNL     1       5.013   5.450  14.934  0.00  0.00    +0.000 C 
BRANCH  15  20
ATOM     20  C   UNL     1       6.309   5.814  17.172  0.00  0.00    +0.000 A 
ATOM     21  C   UNL     1       6.578   7.146  16.799  0.00  0.00    +0.000 A 
ATOM     22  C   UNL     1       7.499   7.927  17.506  0.00  0.00    +0.000 A 
ATOM     23  C   UNL     1       8.167   7.388  18.594  0.00  0.00    +0.000 A 
ATOM     24  F   UNL     1       9.044   8.136  19.277  0.00  0.00    +0.000 F 
ATOM     25  C   UNL     1       7.932   6.080  18.986  0.00  0.00    +0.000 A 
ATOM     26  C   UNL     1       7.013   5.297  18.277  0.00  0.00    +0.000 A 
ENDBRANCH  15  20
ENDBRANCH  12  15
ENDBRANCH   1  11
BRANCH   1  27
ATOM     27  C   UNL     1       2.454   7.283  19.804  0.00  0.00    +0.000 C 
BRANCH  27  28
ATOM     28  C   UNL     1       1.495   8.444  19.585  0.00  0.00    +0.000 A 
ATOM     29  C   UNL     1       1.313   9.091  18.353  0.00  0.00    +0.000 A 
ATOM     30  C   UNL     1       0.401  10.141  18.220  0.00  0.00    +0.000 A 
ATOM     31  C   UNL     1      -0.330  10.568  19.320  0.00  0.00    +0.000 A 
ATOM     32 CL   UNL     1      -1.460  11.852  19.147  0.00  0.00    +0.000 Cl
ATOM     33  C   UNL     1      -0.149   9.961  20.560  0.00  0.00    +0.000 A 
ATOM     34  C   UNL     1       0.757   8.906  20.690  0.00  0.00    +0.000 A 
ENDBRANCH  27  28
ENDBRANCH   1  27
TORSDOF 10
ENDMDL
