MODEL 1
REMARK VINA RESULT:      -7.3      0.000      0.000
REMARK  Name = 
REMARK  7 active torsions:
REMARK  status: ('A' for Active; 'I' for Inactive)
REMARK    1  A    between atoms: C_1  and  O_2
REMARK    2  A    between atoms: O_2  and  C_3
REMARK    3  A    between atoms: C_8  and  C_9
REMARK    4  A    between atoms: N_11  and  C_12
REMARK    5  A    between atoms: C_12  and  C_13
REMARK    6  A    between atoms: N_15  and  C_16
REMARK    7  A    between atoms: C_16  and  C_17
REMARK                            x       y       z     vdW  Elec       q    Type
REMARK                         _______ _______ _______ _____ _____    ______ ____
ROOT
ATOM      1  C   UNL     1       4.624   5.355  19.025  0.00  0.00    +0.000 C 
ATOM      2  O   UNL     1       4.471   6.277  18.226  0.00  0.00    +0.000 OA
ATOM      3  N   UNL     1       5.880   4.945  19.396  0.00  0.00    +0.000 N 
ATOM      4  H   UNL     1       5.985   4.174  20.059  0.00  0.00    +0.000 HD
ENDROOT
BRANCH   1  10
ATOM      5  C   UNL     1       3.252   3.263  19.706  0.00  0.00    +0.000 A 
ATOM      6  C   UNL     1       2.065   2.760  20.270  0.00  0.00    +0.000 A 
ATOM      7  C   UNL     1       1.085   3.615  20.774  0.00  0.00    +0.000 A 
ATOM      8  C   UNL     1       1.266   4.988  20.710  0.00  0.00    +0.000 A 
ATOM      9  C   UNL     1       2.426   5.504  20.132  0.00  0.00    +0.000 A 
ATOM     10  C   UNL     1       3.431   4.658  19.618  0.00  0.00    +0.000 A 
BRANCH   5  12
ATOM     11  C   UNL     1       3.853   1.654  18.061  0.00  0.00    +0.000 C 
ATOM     12  O   UNL     1       4.224   2.435  19.197  0.00  0.00    +0.000 OA
ENDBRANCH   5  12
ENDBRANCH   1  10
BRANCH   3  13
ATOM     13  C   UNL     1       7.069   5.562  18.854  0.00  0.00    +0.000 C 
BRANCH  13  14
ATOM     14  C   UNL     1       7.479   4.948  17.513  0.00  0.00    +0.000 C 
ATOM     15  O   UNL     1       8.349   4.089  17.399  0.00  0.00    +0.000 OA
ATOM     16  N   UNL     1       6.776   5.440  16.430  0.00  0.00    +0.000 N 
ATOM     17  H   UNL     1       6.196   6.261  16.556  0.00  0.00    +0.000 HD
BRANCH  16  18
ATOM     18  C   UNL     1       7.114   5.023  15.066  0.00  0.00    +0.000 C 
BRANCH  18  19
ATOM     19  C   UNL     1       6.175   3.991  14.422  0.00  0.00    +0.000 C 
ATOM     20  F   UNL     1       6.697   3.454  13.296  0.00  0.00    +0.000 F 
ATOM     21  F   UNL     1       5.877   2.981  15.267  0.00  0.00    +0.000 F 
ATOM     22  F   UNL     1       5.004   4.582  14.070  0.00  0.00    +0.000 F 
ENDBRANCH  18  19
ENDBRANCH  16  18
ENDBRANCH  13  14
ENDBRANCH   3  13
TORSDOF 6
ENDMDL
MODEL 2
REMARK VINA RESULT:      -6.9      1.186      2.366
REMARK  Name = 
REMARK  7 active torsions:
REMARK  status: ('A' for Active; 'I' for Inactive)
REMARK    1  A    between atoms: C_1  and  O_2
REMARK    2  A    between atoms: O_2  and  C_3
REMARK    3  A    between atoms: C_8  and  C_9
REMARK    4  A    between atoms: N_11  and  C_12
REMARK    5  A    between atoms: C_12  and  C_13
REMARK    6  A    between atoms: N_15  and  C_16
REMARK    7  A    between atoms: C_16  and  C_17
REMARK                            x       y       z     vdW  Elec       q    Type
REMARK                         _______ _______ _______ _____ _____    ______ ____
ROOT
ATOM      1  C   UNL     1       5.114   4.365  19.314  0.00  0.00    +0.000 C 
ATOM      2  O   UNL     1       5.741   3.383  18.922  0.00  0.00    +0.000 OA
ATOM      3  N   UNL     1       5.686   5.612  19.314  0.00  0.00    +0.000 N 
ATOM      4  H   UNL     1       5.148   6.415  19.647  0.00  0.00    +0.000 HD
ENDROOT
BRANCH   1  10
ATOM      5  C   UNL     1       2.741   5.251  19.869  0.00  0.00    +0.000 A 
ATOM      6  C   UNL     1       1.458   4.962  20.367  0.00  0.00    +0.000 A 
ATOM      7  C   UNL     1       1.108   3.668  20.754  0.00  0.00    +0.000 A 
ATOM      8  C   UNL     1       2.037   2.644  20.664  0.00  0.00    +0.000 A 
ATOM      9  C   UNL     1       3.322   2.919  20.195  0.00  0.00    +0.000 A 
ATOM     10  C   UNL     1       3.698   4.218  19.797  0.00  0.00    +0.000 A 
BRANCH   5  12
ATOM     11  C   UNL     1       2.431   7.057  18.353  0.00  0.00    +0.000 C 
ATOM     12  O   UNL     1       3.106   6.521  19.491  0.00  0.00    +0.000 OA
ENDBRANCH   5  12
ENDBRANCH   1  10
BRANCH   3  13
ATOM     13  C   UNL     1       7.047   5.821  18.875  0.00  0.00    +0.000 C 
BRANCH  13  14
ATOM     14  C   UNL     1       7.140   6.034  17.361  0.00  0.00    +0.000 C 
ATOM     15  O   UNL     1       7.082   7.139  16.829  0.00  0.00    +0.000 OA
ATOM     16  N   UNL     1       7.303   4.869  16.638  0.00  0.00    +0.000 N 
ATOM     17  H   UNL     1       7.174   3.980  17.106  0.00  0.00    +0.000 HD
BRANCH  16  18
ATOM     18  C   UNL     1       7.314   4.894  15.172  0.00  0.00    +0.000 C 
BRANCH  18  19
ATOM     19  C   UNL     1       6.219   4.072  14.473  0.00  0.00    +0.000 C 
ATOM     20  F   UNL     1       5.869   2.975  15.181  0.00  0.00    +0.000 F 
ATOM     21  F   UNL     1       5.105   4.801  14.250  0.00  0.00    +0.000 F 
ATOM     22  F   UNL     1       6.664   3.637  13.266  0.00  0.00    +0.000 F 
ENDBRANCH  18  19
ENDBRANCH  16  18
ENDBRANCH  13  14
ENDBRANCH   3  13
TORSDOF 6
ENDMDL
MODEL 3
REMARK VINA RESULT:      -6.8      1.627      1.761
REMARK  Name = 
REMARK  7 active torsions:
REMARK  status: ('A' for Active; 'I' for Inactive)
REMARK    1  A    between atoms: C_1  and  O_2
REMARK    2  A    between atoms: O_2  and  C_3
REMARK    3  A    between atoms: C_8  and  C_9
REMARK    4  A    between atoms: N_11  and  C_12
REMARK    5  A    between atoms: C_12  and  C_13
REMARK    6  A    between atoms: N_15  and  C_16
REMARK    7  A    between atoms: C_16  and  C_17
REMARK                            x       y       z     vdW  Elec       q    Type
REMARK                         _______ _______ _______ _____ _____    ______ ____
ROOT
ATOM      1  C   UNL     1       4.421   5.421  18.487  0.00  0.00    +0.000 C 
ATOM      2  O   UNL     1       5.500   5.695  19.007  0.00  0.00    +0.000 OA
ATOM      3  N   UNL     1       4.162   5.752  17.182  0.00  0.00    +0.000 N 
ATOM      4  H   UNL     1       3.256   5.518  16.770  0.00  0.00    +0.000 HD
ENDROOT
BRANCH   1  10
ATOM      5  C   UNL     1       3.285   3.314  19.486  0.00  0.00    +0.000 A 
ATOM      6  C   UNL     1       2.214   2.789  20.231  0.00  0.00    +0.000 A 
ATOM      7  C   UNL     1       1.248   3.624  20.793  0.00  0.00    +0.000 A 
ATOM      8  C   UNL     1       1.327   4.995  20.609  0.00  0.00    +0.000 A 
ATOM      9  C   UNL     1       2.370   5.530  19.853  0.00  0.00    +0.000 A 
ATOM     10  C   UNL     1       3.359   4.706  19.276  0.00  0.00    +0.000 A 
BRANCH   5  12
ATOM     11  C   UNL     1       3.759   1.369  18.201  0.00  0.00    +0.000 C 
ATOM     12  O   UNL     1       4.241   2.506  18.918  0.00  0.00    +0.000 OA
ENDBRANCH   5  12
ENDBRANCH   1  10
BRANCH   3  13
ATOM     13  C   UNL     1       5.133   6.451  16.371  0.00  0.00    +0.000 C 
BRANCH  13  14
ATOM     14  C   UNL     1       6.108   5.492  15.682  0.00  0.00    +0.000 C 
ATOM     15  O   UNL     1       7.320   5.504  15.875  0.00  0.00    +0.000 OA
ATOM     16  N   UNL     1       5.503   4.596  14.821  0.00  0.00    +0.000 N 
ATOM     17  H   UNL     1       4.532   4.738  14.570  0.00  0.00    +0.000 HD
BRANCH  16  18
ATOM     18  C   UNL     1       6.307   3.674  14.013  0.00  0.00    +0.000 C 
BRANCH  18  19
ATOM     19  C   UNL     1       5.868   3.496  12.551  0.00  0.00    +0.000 C 
ATOM     20  F   UNL     1       6.646   4.193  11.693  0.00  0.00    +0.000 F 
ATOM     21  F   UNL     1       5.884   2.200  12.172  0.00  0.00    +0.000 F 
ATOM     22  F   UNL     1       4.598   3.948  12.388  0.00  0.00    +0.000 F 
ENDBRANCH  18  19
ENDBRANCH  16  18
ENDBRANCH  13  14
ENDBRANCH   3  13
TORSDOF 6
ENDMDL
MODEL 4
REMARK VINA RESULT:      -6.8      0.952      1.255
REMARK  Name = 
REMARK  7 active torsions:
REMARK  status: ('A' for Active; 'I' for Inactive)
REMARK    1  A    between atoms: C_1  and  O_2
REMARK    2  A    between atoms: O_2  and  C_3
REMARK    3  A    between atoms: C_8  and  C_9
REMARK    4  A    between atoms: N_11  and  C_12
REMARK    5  A    between atoms: C_12  and  C_13
REMARK    6  A    between atoms: N_15  and  C_16
REMARK    7  A    between atoms: C_16  and  C_17
REMARK                            x       y       z     vdW  Elec       q    Type
REMARK                         _______ _______ _______ _____ _____    ______ ____
ROOT
ATOM      1  C   UNL     1       4.598   5.358  19.011  0.00  0.00    +0.000 C 
ATOM      2  O   UNL     1       4.519   6.404  18.371  0.00  0.00    +0.000 OA
ATOM      3  N   UNL     1       5.817   4.840  19.368  0.00  0.00    +0.000 N 
ATOM      4  H   UNL     1       5.860   3.966  19.898  0.00  0.00    +0.000 HD
ENDROOT
BRANCH   1  10
ATOM      5  C   UNL     1       3.017   3.303  19.066  0.00  0.00    +0.000 A 
ATOM      6  C   UNL     1       1.799   2.760  19.512  0.00  0.00    +0.000 A 
ATOM      7  C   UNL     1       0.938   3.494  20.328  0.00  0.00    +0.000 A 
ATOM      8  C   UNL     1       1.271   4.786  20.701  0.00  0.00    +0.000 A 
ATOM      9  C   UNL     1       2.464   5.348  20.247  0.00  0.00    +0.000 A 
ATOM     10  C   UNL     1       3.351   4.625  19.423  0.00  0.00    +0.000 A 
BRANCH   5  12
ATOM     11  C   UNL     1       3.918   1.186  18.462  0.00  0.00    +0.000 C 
ATOM     12  O   UNL     1       3.874   2.598  18.254  0.00  0.00    +0.000 OA
ENDBRANCH   5  12
ENDBRANCH   1  10
BRANCH   3  13
ATOM     13  C   UNL     1       7.054   5.487  18.994  0.00  0.00    +0.000 C 
BRANCH  13  14
ATOM     14  C   UNL     1       7.241   5.541  17.475  0.00  0.00    +0.000 C 
ATOM     15  O   UNL     1       7.614   6.545  16.874  0.00  0.00    +0.000 OA
ATOM     16  N   UNL     1       6.959   4.352  16.830  0.00  0.00    +0.000 N 
ATOM     17  H   UNL     1       6.496   3.613  17.346  0.00  0.00    +0.000 HD
BRANCH  16  18
ATOM     18  C   UNL     1       6.998   4.266  15.367  0.00  0.00    +0.000 C 
BRANCH  18  19
ATOM     19  C   UNL     1       5.673   4.540  14.637  0.00  0.00    +0.000 C 
ATOM     20  F   UNL     1       4.622   3.938  15.237  0.00  0.00    +0.000 F 
ATOM     21  F   UNL     1       5.407   5.860  14.551  0.00  0.00    +0.000 F 
ATOM     22  F   UNL     1       5.732   4.057  13.369  0.00  0.00    +0.000 F 
ENDBRANCH  18  19
ENDBRANCH  16  18
ENDBRANCH  13  14
ENDBRANCH   3  13
TORSDOF 6
ENDMDL
MODEL 5
REMARK VINA RESULT:      -6.8      1.458      2.687
REMARK  Name = 
REMARK  7 active torsions:
REMARK  status: ('A' for Active; 'I' for Inactive)
REMARK    1  A    between atoms: C_1  and  O_2
REMARK    2  A    between atoms: O_2  and  C_3
REMARK    3  A    between atoms: C_8  and  C_9
REMARK    4  A    between atoms: N_11  and  C_12
REMARK    5  A    between atoms: C_12  and  C_13
REMARK    6  A    between atoms: N_15  and  C_16
REMARK    7  A    between atoms: C_16  and  C_17
REMARK                            x       y       z     vdW  Elec       q    Type
REMARK                         _______ _______ _______ _____ _____    ______ ____
ROOT
ATOM      1  C   UNL     1       4.816   4.821  19.070  0.00  0.00    +0.000 C 
ATOM      2  O   UNL     1       5.829   4.153  19.260  0.00  0.00    +0.000 OA
ATOM      3  N   UNL     1       4.849   5.943  18.281  0.00  0.00    +0.000 N 
ATOM      4  H   UNL     1       3.994   6.487  18.139  0.00  0.00    +0.000 HD
ENDROOT
BRANCH   1  10
ATOM      5  C   UNL     1       2.377   5.241  19.845  0.00  0.00    +0.000 A 
ATOM      6  C   UNL     1       1.232   4.724  20.478  0.00  0.00    +0.000 A 
ATOM      7  C   UNL     1       1.189   3.405  20.928  0.00  0.00    +0.000 A 
ATOM      8  C   UNL     1       2.293   2.583  20.766  0.00  0.00    +0.000 A 
ATOM      9  C   UNL     1       3.445   3.087  20.163  0.00  0.00    +0.000 A 
ATOM     10  C   UNL     1       3.511   4.417  19.699  0.00  0.00    +0.000 A 
BRANCH   5  12
ATOM     11  C   UNL     1       1.924   7.533  20.292  0.00  0.00    +0.000 C 
ATOM     12  O   UNL     1       2.440   6.542  19.404  0.00  0.00    +0.000 OA
ENDBRANCH   5  12
ENDBRANCH   1  10
BRANCH   3  13
ATOM     13  C   UNL     1       6.072   6.395  17.657  0.00  0.00    +0.000 C 
BRANCH  13  14
ATOM     14  C   UNL     1       6.043   6.221  16.136  0.00  0.00    +0.000 C 
ATOM     15  O   UNL     1       5.209   6.753  15.409  0.00  0.00    +0.000 OA
ATOM     16  N   UNL     1       7.048   5.412  15.643  0.00  0.00    +0.000 N 
ATOM     17  H   UNL     1       7.601   4.866  16.293  0.00  0.00    +0.000 HD
BRANCH  16  18
ATOM     18  C   UNL     1       7.103   5.069  14.218  0.00  0.00    +0.000 C 
BRANCH  18  19
ATOM     19  C   UNL     1       6.208   3.904  13.767  0.00  0.00    +0.000 C 
ATOM     20  F   UNL     1       6.078   2.957  14.723  0.00  0.00    +0.000 F 
ATOM     21  F   UNL     1       4.973   4.321  13.418  0.00  0.00    +0.000 F 
ATOM     22  F   UNL     1       6.750   3.295  12.681  0.00  0.00    +0.000 F 
ENDBRANCH  18  19
ENDBRANCH  16  18
ENDBRANCH  13  14
ENDBRANCH   3  13
TORSDOF 6
ENDMDL
MODEL 6
REMARK VINA RESULT:      -6.8      1.841      2.111
REMARK  Name = 
REMARK  7 active torsions:
REMARK  status: ('A' for Active; 'I' for Inactive)
REMARK    1  A    between atoms: C_1  and  O_2
REMARK    2  A    between atoms: O_2  and  C_3
REMARK    3  A    between atoms: C_8  and  C_9
REMARK    4  A    between atoms: N_11  and  C_12
REMARK    5  A    between atoms: C_12  and  C_13
REMARK    6  A    between atoms: N_15  and  C_16
REMARK    7  A    between atoms: C_16  and  C_17
REMARK                            x       y       z     vdW  Elec       q    Type
REMARK                         _______ _______ _______ _____ _____    ______ ____
ROOT
ATOM      1  C   UNL     1       4.529   5.341  18.209  0.00  0.00    +0.000 C 
ATOM      2  O   UNL     1       5.609   5.375  18.794  0.00  0.00    +0.000 OA
ATOM      3  N   UNL     1       4.422   5.745  16.902  0.00  0.00    +0.000 N 
ATOM      4  H   UNL     1       3.513   5.711  16.435  0.00  0.00    +0.000 HD
ENDROOT
BRANCH   1  10
ATOM      5  C   UNL     1       2.662   3.607  18.693  0.00  0.00    +0.000 A 
ATOM      6  C   UNL     1       1.499   3.294  19.420  0.00  0.00    +0.000 A 
ATOM      7  C   UNL     1       0.989   4.169  20.379  0.00  0.00    +0.000 A 
ATOM      8  C   UNL     1       1.622   5.378  20.618  0.00  0.00    +0.000 A 
ATOM      9  C   UNL     1       2.763   5.715  19.889  0.00  0.00    +0.000 A 
ATOM     10  C   UNL     1       3.297   4.845  18.916  0.00  0.00    +0.000 A 
BRANCH   5  12
ATOM     11  C   UNL     1       3.644   1.496  18.207  0.00  0.00    +0.000 C 
ATOM     12  O   UNL     1       3.174   2.760  17.739  0.00  0.00    +0.000 OA
ENDBRANCH   5  12
ENDBRANCH   1  10
BRANCH   3  13
ATOM     13  C   UNL     1       5.562   6.244  16.168  0.00  0.00    +0.000 C 
BRANCH  13  14
ATOM     14  C   UNL     1       6.352   5.119  15.493  0.00  0.00    +0.000 C 
ATOM     15  O   UNL     1       7.528   4.872  15.744  0.00  0.00    +0.000 OA
ATOM     16  N   UNL     1       5.621   4.390  14.574  0.00  0.00    +0.000 N 
ATOM     17  H   UNL     1       4.716   4.739  14.283  0.00  0.00    +0.000 HD
BRANCH  16  18
ATOM     18  C   UNL     1       6.258   3.340  13.774  0.00  0.00    +0.000 C 
BRANCH  18  19
ATOM     19  C   UNL     1       6.416   3.633  12.274  0.00  0.00    +0.000 C 
ATOM     20  F   UNL     1       5.225   3.781  11.652  0.00  0.00    +0.000 F 
ATOM     21  F   UNL     1       7.147   4.745  12.050  0.00  0.00    +0.000 F 
ATOM     22  F   UNL     1       7.054   2.601  11.663  0.00  0.00    +0.000 F 
ENDBRANCH  18  19
ENDBRANCH  16  18
ENDBRANCH  13  14
ENDBRANCH   3  13
TORSDOF 6
ENDMDL
MODEL 7
REMARK VINA RESULT:      -6.7      2.685      3.303
REMARK  Name = 
REMARK  7 active torsions:
REMARK  status: ('A' for Active; 'I' for Inactive)
REMARK    1  A    between atoms: C_1  and  O_2
REMARK    2  A    between atoms: O_2  and  C_3
REMARK    3  A    between atoms: C_8  and  C_9
REMARK    4  A    between atoms: N_11  and  C_12
REMARK    5  A    between atoms: C_12  and  C_13
REMARK    6  A    between atoms: N_15  and  C_16
REMARK    7  A    between atoms: C_16  and  C_17
REMARK                            x       y       z     vdW  Elec       q    Type
REMARK                         _______ _______ _______ _____ _____    ______ ____
ROOT
ATOM      1  C   UNL     1       3.655   4.868  17.477  0.00  0.00    +0.000 C 
ATOM      2  O   UNL     1       3.931   6.065  17.432  0.00  0.00    +0.000 OA
ATOM      3  N   UNL     1       4.190   3.986  16.572  0.00  0.00    +0.000 N 
ATOM      4  H   UNL     1       3.944   2.995  16.626  0.00  0.00    +0.000 HD
ENDROOT
BRANCH   1  10
ATOM      5  C   UNL     1       2.382   2.991  18.733  0.00  0.00    +0.000 A 
ATOM      6  C   UNL     1       1.476   2.656  19.755  0.00  0.00    +0.000 A 
ATOM      7  C   UNL     1       0.942   3.634  20.595  0.00  0.00    +0.000 A 
ATOM      8  C   UNL     1       1.292   4.963  20.420  0.00  0.00    +0.000 A 
ATOM      9  C   UNL     1       2.171   5.314  19.395  0.00  0.00    +0.000 A 
ATOM     10  C   UNL     1       2.724   4.344  18.535  0.00  0.00    +0.000 A 
BRANCH   5  12
ATOM     11  C   UNL     1       3.842   1.131  18.476  0.00  0.00    +0.000 C 
ATOM     12  O   UNL     1       2.911   2.042  17.891  0.00  0.00    +0.000 OA
ENDBRANCH   5  12
ENDBRANCH   1  10
BRANCH   3  13
ATOM     13  C   UNL     1       5.081   4.425  15.522  0.00  0.00    +0.000 C 
BRANCH  13  14
ATOM     14  C   UNL     1       6.458   4.823  16.061  0.00  0.00    +0.000 C 
ATOM     15  O   UNL     1       7.293   5.435  15.400  0.00  0.00    +0.000 OA
ATOM     16  N   UNL     1       6.683   4.440  17.369  0.00  0.00    +0.000 N 
ATOM     17  H   UNL     1       6.036   3.796  17.808  0.00  0.00    +0.000 HD
BRANCH  16  18
ATOM     18  C   UNL     1       7.987   4.663  18.001  0.00  0.00    +0.000 C 
BRANCH  18  19
ATOM     19  C   UNL     1       8.005   5.636  19.190  0.00  0.00    +0.000 C 
ATOM     20  F   UNL     1       8.403   6.878  18.831  0.00  0.00    +0.000 F 
ATOM     21  F   UNL     1       6.796   5.738  19.780  0.00  0.00    +0.000 F 
ATOM     22  F   UNL     1       8.879   5.201  20.134  0.00  0.00    +0.000 F 
ENDBRANCH  18  19
ENDBRANCH  16  18
ENDBRANCH  13  14
ENDBRANCH   3  13
TORSDOF 6
ENDMDL
MODEL 8
REMARK VINA RESULT:      -6.7      1.668      2.762
REMARK  Name = 
REMARK  7 active torsions:
REMARK  status: ('A' for Active; 'I' for Inactive)
REMARK    1  A    between atoms: C_1  and  O_2
REMARK    2  A    between atoms: O_2  and  C_3
REMARK    3  A    between atoms: C_8  and  C_9
REMARK    4  A    between atoms: N_11  and  C_12
REMARK    5  A    between atoms: C_12  and  C_13
REMARK    6  A    between atoms: N_15  and  C_16
REMARK    7  A    between atoms: C_16  and  C_17
REMARK                            x       y       z     vdW  Elec       q    Type
REMARK                         _______ _______ _______ _____ _____    ______ ____
ROOT
ATOM      1  C   UNL     1       4.849   4.817  18.569  0.00  0.00    +0.000 C 
ATOM      2  O   UNL     1       5.934   4.432  18.998  0.00  0.00    +0.000 OA
ATOM      3  N   UNL     1       4.775   5.620  17.460  0.00  0.00    +0.000 N 
ATOM      4  H   UNL     1       3.862   5.932  17.121  0.00  0.00    +0.000 HD
ENDROOT
BRANCH   1  10
ATOM      5  C   UNL     1       2.601   5.281  19.774  0.00  0.00    +0.000 A 
ATOM      6  C   UNL     1       1.466   4.743  20.407  0.00  0.00    +0.000 A 
ATOM      7  C   UNL     1       1.272   3.364  20.493  0.00  0.00    +0.000 A 
ATOM      8  C   UNL     1       2.214   2.499  19.960  0.00  0.00    +0.000 A 
ATOM      9  C   UNL     1       3.357   3.016  19.351  0.00  0.00    +0.000 A 
ATOM     10  C   UNL     1       3.574   4.405  19.251  0.00  0.00    +0.000 A 
BRANCH   5  12
ATOM     11  C   UNL     1       1.811   7.468  20.276  0.00  0.00    +0.000 C 
ATOM     12  O   UNL     1       2.812   6.637  19.688  0.00  0.00    +0.000 OA
ENDBRANCH   5  12
ENDBRANCH   1  10
BRANCH   3  13
ATOM     13  C   UNL     1       5.962   6.063  16.764  0.00  0.00    +0.000 C 
BRANCH  13  14
ATOM     14  C   UNL     1       6.616   4.935  15.962  0.00  0.00    +0.000 C 
ATOM     15  O   UNL     1       7.741   4.501  16.196  0.00  0.00    +0.000 OA
ATOM     16  N   UNL     1       5.825   4.435  14.946  0.00  0.00    +0.000 N 
ATOM     17  H   UNL     1       4.984   4.937  14.688  0.00  0.00    +0.000 HD
BRANCH  16  18
ATOM     18  C   UNL     1       6.342   3.416  14.026  0.00  0.00    +0.000 C 
BRANCH  18  19
ATOM     19  C   UNL     1       5.856   3.508  12.571  0.00  0.00    +0.000 C 
ATOM     20  F   UNL     1       4.579   3.943  12.482  0.00  0.00    +0.000 F 
ATOM     21  F   UNL     1       6.631   4.329  11.830  0.00  0.00    +0.000 F 
ATOM     22  F   UNL     1       5.896   2.282  11.989  0.00  0.00    +0.000 F 
ENDBRANCH  18  19
ENDBRANCH  16  18
ENDBRANCH  13  14
ENDBRANCH   3  13
TORSDOF 6
ENDMDL
MODEL 9
REMARK VINA RESULT:      -6.7      1.287      1.429
REMARK  Name = 
REMARK  7 active torsions:
REMARK  status: ('A' for Active; 'I' for Inactive)
REMARK    1  A    between atoms: C_1  and  O_2
REMARK    2  A    between atoms: O_2  and  C_3
REMARK    3  A    between atoms: C_8  and  C_9
REMARK    4  A    between atoms: N_11  and  C_12
REMARK    5  A    between atoms: C_12  and  C_13
REMARK    6  A    between atoms: N_15  and  C_16
REMARK    7  A    between atoms: C_16  and  C_17
REMARK                            x       y       z     vdW  Elec       q    Type
REMARK                         _______ _______ _______ _____ _____    ______ ____
ROOT
ATOM      1  C   UNL     1       5.054   5.383  18.998  0.00  0.00    +0.000 C 
ATOM      2  O   UNL     1       6.073   5.344  19.684  0.00  0.00    +0.000 OA
ATOM      3  N   UNL     1       5.085   5.873  17.717  0.00  0.00    +0.000 N 
ATOM      4  H   UNL     1       4.225   5.898  17.164  0.00  0.00    +0.000 HD
ENDROOT
BRANCH   1  10
ATOM      5  C   UNL     1       3.342   3.535  19.615  0.00  0.00    +0.000 A 
ATOM      6  C   UNL     1       2.075   3.225  20.141  0.00  0.00    +0.000 A 
ATOM      7  C   UNL     1       1.232   4.224  20.630  0.00  0.00    +0.000 A 
ATOM      8  C   UNL     1       1.635   5.549  20.590  0.00  0.00    +0.000 A 
ATOM      9  C   UNL     1       2.878   5.876  20.049  0.00  0.00    +0.000 A 
ATOM     10  C   UNL     1       3.747   4.884  19.551  0.00  0.00    +0.000 A 
BRANCH   5  12
ATOM     11  C   UNL     1       3.551   1.423  18.541  0.00  0.00    +0.000 C 
ATOM     12  O   UNL     1       4.182   2.565  19.121  0.00  0.00    +0.000 OA
ENDBRANCH   5  12
ENDBRANCH   1  10
BRANCH   3  13
ATOM     13  C   UNL     1       6.304   6.380  17.129  0.00  0.00    +0.000 C 
BRANCH  13  14
ATOM     14  C   UNL     1       6.968   5.357  16.203  0.00  0.00    +0.000 C 
ATOM     15  O   UNL     1       7.801   4.539  16.585  0.00  0.00    +0.000 OA
ATOM     16  N   UNL     1       6.542   5.424  14.891  0.00  0.00    +0.000 N 
ATOM     17  H   UNL     1       5.987   6.219  14.597  0.00  0.00    +0.000 HD
BRANCH  16  18
ATOM     18  C   UNL     1       7.151   4.576  13.862  0.00  0.00    +0.000 C 
BRANCH  18  19
ATOM     19  C   UNL     1       6.177   3.834  12.934  0.00  0.00    +0.000 C 
ATOM     20  F   UNL     1       6.398   2.500  12.917  0.00  0.00    +0.000 F 
ATOM     21  F   UNL     1       4.889   4.040  13.282  0.00  0.00    +0.000 F 
ATOM     22  F   UNL     1       6.324   4.273  11.657  0.00  0.00    +0.000 F 
ENDBRANCH  18  19
ENDBRANCH  16  18
ENDBRANCH  13  14
ENDBRANCH   3  13
TORSDOF 6
ENDMDL
