MODEL 1
REMARK VINA RESULT:      -4.5      0.000      0.000
REMARK  Name = 
REMARK  6 active torsions:
REMARK  status: ('A' for Active; 'I' for Inactive)
REMARK    1  A    between atoms: C_2  and  C_3
REMARK    2  A    between atoms: C_2  and  C_4
REMARK    3  A    between atoms: C_4  and  O_6
REMARK    4  A    between atoms: O_6  and  C_7
REMARK    5  A    between atoms: C_7  and  C_8
REMARK    6  A    between atoms: C_7  and  C_9
REMARK                            x       y       z     vdW  Elec       q    Type
REMARK                         _______ _______ _______ _____ _____    ______ ____
ROOT
ATOM      1  C   UNL     1       1.092   2.992  19.058  0.00  0.00    +0.000 C 
ATOM      2  O   UNL     1       0.236   2.157  18.808  0.00  0.00    +0.000 OA
ENDROOT
BRANCH   1   4
ATOM      3  C   UNL     1       1.313   4.899  20.540  0.00  0.00    +0.000 C 
ATOM      4  C   UNL     1       1.327   3.561  20.416  0.00  0.00    +0.000 C 
ATOM      5  C   UNL     1       1.556   2.646  21.578  0.00  0.00    +0.000 C 
ENDBRANCH   1   4
BRANCH   1   6
ATOM      6  O   UNL     1       1.957   3.530  18.159  0.00  0.00    +0.000 OA
BRANCH   6   7
ATOM      7  C   UNL     1       3.337   3.145  18.321  0.00  0.00    +0.000 C 
ATOM      8  C   UNL     1       3.489   1.647  18.082  0.00  0.00    +0.000 C 
ATOM      9  C   UNL     1       4.158   3.932  17.306  0.00  0.00    +0.000 C 
ENDBRANCH   6   7
ENDBRANCH   1   6
TORSDOF 3
ENDMDL
MODEL 2
REMARK VINA RESULT:      -4.5      4.107      6.214
REMARK  Name = 
REMARK  6 active torsions:
REMARK  status: ('A' for Active; 'I' for Inactive)
REMARK    1  A    between atoms: C_2  and  C_3
REMARK    2  A    between atoms: C_2  and  C_4
REMARK    3  A    between atoms: C_4  and  O_6
REMARK    4  A    between atoms: O_6  and  C_7
REMARK    5  A    between atoms: C_7  and  C_8
REMARK    6  A    between atoms: C_7  and  C_9
REMARK                            x       y       z     vdW  Elec       q    Type
REMARK                         _______ _______ _______ _____ _____    ______ ____
ROOT
ATOM      1  C   UNL     1       7.018   5.776  16.833  0.00  0.00    +0.000 C 
ATOM      2  O   UNL     1       7.371   5.827  15.665  0.00  0.00    +0.000 OA
ENDROOT
BRANCH   1   4
ATOM      3  C   UNL     1       7.878   6.045  19.085  0.00  0.00    +0.000 C 
ATOM      4  C   UNL     1       7.590   6.632  17.912  0.00  0.00    +0.000 C 
ATOM      5  C   UNL     1       7.831   8.088  17.660  0.00  0.00    +0.000 C 
ENDBRANCH   1   4
BRANCH   1   6
ATOM      6  O   UNL     1       6.065   4.949  17.336  0.00  0.00    +0.000 OA
BRANCH   6   7
ATOM      7  C   UNL     1       4.746   5.112  16.776  0.00  0.00    +0.000 C 
ATOM      8  C   UNL     1       3.933   3.839  16.986  0.00  0.00    +0.000 C 
ATOM      9  C   UNL     1       4.086   6.289  17.484  0.00  0.00    +0.000 C 
ENDBRANCH   6   7
ENDBRANCH   1   6
TORSDOF 3
ENDMDL
MODEL 3
REMARK VINA RESULT:      -4.3      5.423      6.940
REMARK  Name = 
REMARK  6 active torsions:
REMARK  status: ('A' for Active; 'I' for Inactive)
REMARK    1  A    between atoms: C_2  and  C_3
REMARK    2  A    between atoms: C_2  and  C_4
REMARK    3  A    between atoms: C_4  and  O_6
REMARK    4  A    between atoms: O_6  and  C_7
REMARK    5  A    between atoms: C_7  and  C_8
REMARK    6  A    between atoms: C_7  and  C_9
REMARK                            x       y       z     vdW  Elec       q    Type
REMARK                         _______ _______ _______ _____ _____    ______ ____
ROOT
ATOM      1  C   UNL     1       7.180   4.985  15.377  0.00  0.00    +0.000 C 
ATOM      2  O   UNL     1       7.910   5.578  14.597  0.00  0.00    +0.000 OA
ENDROOT
BRANCH   1   4
ATOM      3  C   UNL     1       5.123   3.812  15.904  0.00  0.00    +0.000 C 
ATOM      4  C   UNL     1       6.011   4.158  14.958  0.00  0.00    +0.000 C 
ATOM      5  C   UNL     1       5.861   3.754  13.524  0.00  0.00    +0.000 C 
ENDBRANCH   1   4
BRANCH   1   6
ATOM      6  O   UNL     1       7.307   4.979  16.730  0.00  0.00    +0.000 OA
BRANCH   6   7
ATOM      7  C   UNL     1       7.420   6.278  17.346  0.00  0.00    +0.000 C 
ATOM      8  C   UNL     1       6.097   7.026  17.227  0.00  0.00    +0.000 C 
ATOM      9  C   UNL     1       7.782   6.065  18.811  0.00  0.00    +0.000 C 
ENDBRANCH   6   7
ENDBRANCH   1   6
TORSDOF 3
ENDMDL
MODEL 4
REMARK VINA RESULT:      -4.3      5.078      6.829
REMARK  Name = 
REMARK  6 active torsions:
REMARK  status: ('A' for Active; 'I' for Inactive)
REMARK    1  A    between atoms: C_2  and  C_3
REMARK    2  A    between atoms: C_2  and  C_4
REMARK    3  A    between atoms: C_4  and  O_6
REMARK    4  A    between atoms: O_6  and  C_7
REMARK    5  A    between atoms: C_7  and  C_8
REMARK    6  A    between atoms: C_7  and  C_9
REMARK                            x       y       z     vdW  Elec       q    Type
REMARK                         _______ _______ _______ _____ _____    ______ ____
ROOT
ATOM      1  C   UNL     1       6.787   5.462  15.450  0.00  0.00    +0.000 C 
ATOM      2  O   UNL     1       7.828   5.435  14.812  0.00  0.00    +0.000 OA
ENDROOT
BRANCH   1   4
ATOM      3  C   UNL     1       5.493   4.001  14.011  0.00  0.00    +0.000 C 
ATOM      4  C   UNL     1       5.659   4.509  15.243  0.00  0.00    +0.000 C 
ATOM      5  C   UNL     1       4.769   4.146  16.391  0.00  0.00    +0.000 C 
ENDBRANCH   1   4
BRANCH   1   6
ATOM      6  O   UNL     1       6.489   6.346  16.438  0.00  0.00    +0.000 OA
BRANCH   6   7
ATOM      7  C   UNL     1       7.557   6.618  17.368  0.00  0.00    +0.000 C 
ATOM      8  C   UNL     1       7.669   8.121  17.603  0.00  0.00    +0.000 C 
ATOM      9  C   UNL     1       7.230   5.899  18.671  0.00  0.00    +0.000 C 
ENDBRANCH   6   7
ENDBRANCH   1   6
TORSDOF 3
ENDMDL
MODEL 5
REMARK VINA RESULT:      -4.3      1.917      3.936
REMARK  Name = 
REMARK  6 active torsions:
REMARK  status: ('A' for Active; 'I' for Inactive)
REMARK    1  A    between atoms: C_2  and  C_3
REMARK    2  A    between atoms: C_2  and  C_4
REMARK    3  A    between atoms: C_4  and  O_6
REMARK    4  A    between atoms: O_6  and  C_7
REMARK    5  A    between atoms: C_7  and  C_8
REMARK    6  A    between atoms: C_7  and  C_9
REMARK                            x       y       z     vdW  Elec       q    Type
REMARK                         _______ _______ _______ _____ _____    ______ ____
ROOT
ATOM      1  C   UNL     1       4.232   2.566  19.645  0.00  0.00    +0.000 C 
ATOM      2  O   UNL     1       5.096   2.100  20.373  0.00  0.00    +0.000 OA
ENDROOT
BRANCH   1   4
ATOM      3  C   UNL     1       4.227   3.478  17.397  0.00  0.00    +0.000 C 
ATOM      4  C   UNL     1       4.461   3.698  18.701  0.00  0.00    +0.000 C 
ATOM      5  C   UNL     1       4.925   5.021  19.224  0.00  0.00    +0.000 C 
ENDBRANCH   1   4
BRANCH   1   6
ATOM      6  O   UNL     1       2.944   2.139  19.574  0.00  0.00    +0.000 OA
BRANCH   6   7
ATOM      7  C   UNL     1       1.964   3.035  20.135  0.00  0.00    +0.000 C 
ATOM      8  C   UNL     1       0.662   2.940  19.346  0.00  0.00    +0.000 C 
ATOM      9  C   UNL     1       1.738   2.624  21.585  0.00  0.00    +0.000 C 
ENDBRANCH   6   7
ENDBRANCH   1   6
TORSDOF 3
ENDMDL
MODEL 6
REMARK VINA RESULT:      -4.3      3.900      5.847
REMARK  Name = 
REMARK  6 active torsions:
REMARK  status: ('A' for Active; 'I' for Inactive)
REMARK    1  A    between atoms: C_2  and  C_3
REMARK    2  A    between atoms: C_2  and  C_4
REMARK    3  A    between atoms: C_4  and  O_6
REMARK    4  A    between atoms: O_6  and  C_7
REMARK    5  A    between atoms: C_7  and  C_8
REMARK    6  A    between atoms: C_7  and  C_9
REMARK                            x       y       z     vdW  Elec       q    Type
REMARK                         _______ _______ _______ _____ _____    ______ ____
ROOT
ATOM      1  C   UNL     1       7.304   4.769  17.459  0.00  0.00    +0.000 C 
ATOM      2  O   UNL     1       7.821   4.494  16.387  0.00  0.00    +0.000 OA
ENDROOT
BRANCH   1   4
ATOM      3  C   UNL     1       7.536   7.179  17.612  0.00  0.00    +0.000 C 
ATOM      4  C   UNL     1       7.621   5.997  18.245  0.00  0.00    +0.000 C 
ATOM      5  C   UNL     1       8.005   5.881  19.686  0.00  0.00    +0.000 C 
ENDBRANCH   1   4
BRANCH   1   6
ATOM      6  O   UNL     1       6.373   4.018  18.103  0.00  0.00    +0.000 OA
BRANCH   6   7
ATOM      7  C   UNL     1       5.020   4.511  18.025  0.00  0.00    +0.000 C 
ATOM      8  C   UNL     1       4.333   3.946  16.786  0.00  0.00    +0.000 C 
ATOM      9  C   UNL     1       4.292   4.063  19.287  0.00  0.00    +0.000 C 
ENDBRANCH   6   7
ENDBRANCH   1   6
TORSDOF 3
ENDMDL
MODEL 7
REMARK VINA RESULT:      -4.3      4.312      6.296
REMARK  Name = 
REMARK  6 active torsions:
REMARK  status: ('A' for Active; 'I' for Inactive)
REMARK    1  A    between atoms: C_2  and  C_3
REMARK    2  A    between atoms: C_2  and  C_4
REMARK    3  A    between atoms: C_4  and  O_6
REMARK    4  A    between atoms: O_6  and  C_7
REMARK    5  A    between atoms: C_7  and  C_8
REMARK    6  A    between atoms: C_7  and  C_9
REMARK                            x       y       z     vdW  Elec       q    Type
REMARK                         _______ _______ _______ _____ _____    ______ ____
ROOT
ATOM      1  C   UNL     1       7.047   5.697  16.979  0.00  0.00    +0.000 C 
ATOM      2  O   UNL     1       7.657   4.750  16.506  0.00  0.00    +0.000 OA
ENDROOT
BRANCH   1   4
ATOM      3  C   UNL     1       8.053   6.197  19.129  0.00  0.00    +0.000 C 
ATOM      4  C   UNL     1       7.640   6.670  17.942  0.00  0.00    +0.000 C 
ATOM      5  C   UNL     1       7.764   8.112  17.562  0.00  0.00    +0.000 C 
ENDBRANCH   1   4
BRANCH   1   6
ATOM      6  O   UNL     1       5.754   6.016  16.714  0.00  0.00    +0.000 OA
BRANCH   6   7
ATOM      7  C   UNL     1       4.776   5.408  17.582  0.00  0.00    +0.000 C 
ATOM      8  C   UNL     1       3.641   6.390  17.853  0.00  0.00    +0.000 C 
ATOM      9  C   UNL     1       4.247   4.162  16.882  0.00  0.00    +0.000 C 
ENDBRANCH   6   7
ENDBRANCH   1   6
TORSDOF 3
ENDMDL
MODEL 8
REMARK VINA RESULT:      -4.3      2.283      3.055
REMARK  Name = 
REMARK  6 active torsions:
REMARK  status: ('A' for Active; 'I' for Inactive)
REMARK    1  A    between atoms: C_2  and  C_3
REMARK    2  A    between atoms: C_2  and  C_4
REMARK    3  A    between atoms: C_4  and  O_6
REMARK    4  A    between atoms: O_6  and  C_7
REMARK    5  A    between atoms: C_7  and  C_8
REMARK    6  A    between atoms: C_7  and  C_9
REMARK                            x       y       z     vdW  Elec       q    Type
REMARK                         _______ _______ _______ _____ _____    ______ ____
ROOT
ATOM      1  C   UNL     1       4.055   2.627  19.890  0.00  0.00    +0.000 C 
ATOM      2  O   UNL     1       4.908   1.944  20.436  0.00  0.00    +0.000 OA
ENDROOT
BRANCH   1   4
ATOM      3  C   UNL     1       2.306   2.857  21.555  0.00  0.00    +0.000 C 
ATOM      4  C   UNL     1       2.613   2.617  20.269  0.00  0.00    +0.000 C 
ATOM      5  C   UNL     1       1.570   2.358  19.227  0.00  0.00    +0.000 C 
ENDBRANCH   1   4
BRANCH   1   6
ATOM      6  O   UNL     1       4.274   3.493  18.866  0.00  0.00    +0.000 OA
BRANCH   6   7
ATOM      7  C   UNL     1       4.447   4.872  19.249  0.00  0.00    +0.000 C 
ATOM      8  C   UNL     1       5.923   5.250  19.172  0.00  0.00    +0.000 C 
ATOM      9  C   UNL     1       3.629   5.725  18.287  0.00  0.00    +0.000 C 
ENDBRANCH   6   7
ENDBRANCH   1   6
TORSDOF 3
ENDMDL
MODEL 9
REMARK VINA RESULT:      -4.3      1.635      4.166
REMARK  Name = 
REMARK  6 active torsions:
REMARK  status: ('A' for Active; 'I' for Inactive)
REMARK    1  A    between atoms: C_2  and  C_3
REMARK    2  A    between atoms: C_2  and  C_4
REMARK    3  A    between atoms: C_4  and  O_6
REMARK    4  A    between atoms: O_6  and  C_7
REMARK    5  A    between atoms: C_7  and  C_8
REMARK    6  A    between atoms: C_7  and  C_9
REMARK                            x       y       z     vdW  Elec       q    Type
REMARK                         _______ _______ _______ _____ _____    ______ ____
ROOT
ATOM      1  C   UNL     1       3.981   3.114  19.130  0.00  0.00    +0.000 C 
ATOM      2  O   UNL     1       5.070   3.110  19.684  0.00  0.00    +0.000 OA
ENDROOT
BRANCH   1   4
ATOM      3  C   UNL     1       2.545   3.330  17.187  0.00  0.00    +0.000 C 
ATOM      4  C   UNL     1       3.777   3.485  17.700  0.00  0.00    +0.000 C 
ATOM      5  C   UNL     1       4.923   4.017  16.897  0.00  0.00    +0.000 C 
ENDBRANCH   1   4
BRANCH   1   6
ATOM      6  O   UNL     1       2.798   2.786  19.711  0.00  0.00    +0.000 OA
BRANCH   6   7
ATOM      7  C   UNL     1       2.519   3.447  20.962  0.00  0.00    +0.000 C 
ATOM      8  C   UNL     1       1.971   4.846  20.698  0.00  0.00    +0.000 C 
ATOM      9  C   UNL     1       1.493   2.606  21.711  0.00  0.00    +0.000 C 
ENDBRANCH   6   7
ENDBRANCH   1   6
TORSDOF 3
ENDMDL
