MODEL 1
REMARK VINA RESULT:      -6.9      0.000      0.000
REMARK  Name = 
REMARK  4 active torsions:
REMARK  status: ('A' for Active; 'I' for Inactive)
REMARK    1  A    between atoms: C_1  and  C_2
REMARK    2  A    between atoms: C_2  and  C_3
REMARK    3  A    between atoms: C_3  and  C_4
REMARK    4  A    between atoms: C_10  and  C_11
REMARK                            x       y       z     vdW  Elec       q    Type
REMARK                         _______ _______ _______ _____ _____    ______ ____
ROOT
ATOM      1  C   UNL     1       4.801   5.425  16.719  0.00  0.00    +0.000 C 
ATOM      2  C   UNL     1       3.845   5.666  17.915  0.00  0.00    +0.000 C 
ATOM      3  C   UNL     1       2.592   4.760  17.708  0.00  0.00    +0.000 C 
ATOM      4  C   UNL     1       2.320   3.648  18.755  0.00  0.00    +0.000 C 
ATOM      5  C   UNL     1       2.179   2.274  18.068  0.00  0.00    +0.000 C 
ATOM      6  C   UNL     1       1.055   3.935  19.568  0.00  0.00    +0.000 C 
ATOM      7  C   UNL     1       1.339   3.351  20.944  0.00  0.00    +0.000 C 
ATOM      8  O   UNL     1       2.723   3.011  20.999  0.00  0.00    +0.000 OA
ATOM      9  C   UNL     1       3.369   3.590  19.857  0.00  0.00    +0.000 C 
ATOM     10  O   UNL     1       3.767   4.923  20.134  0.00  0.00    +0.000 OA
ATOM     11  O   UNL     1       4.649   5.305  19.045  0.00  0.00    +0.000 OA
ENDROOT
BRANCH   2  12
ATOM     12  C   UNL     1       3.531   7.189  17.916  0.00  0.00    +0.000 C 
BRANCH  12  13
ATOM     13  C   UNL     1       2.148   7.678  18.384  0.00  0.00    +0.000 C 
ATOM     14  C   UNL     1       1.990   7.874  19.893  0.00  0.00    +0.000 C 
ATOM     15  C   UNL     1       0.977   8.999  20.036  0.00  0.00    +0.000 C 
ATOM     16  C   UNL     1       1.364   9.956  18.930  0.00  0.00    +0.000 C 
ATOM     17  C   UNL     1       1.822   9.064  17.780  0.00  0.00    +0.000 C 
ENDBRANCH  12  13
ENDBRANCH   2  12
TORSDOF 2
ENDMDL
MODEL 2
REMARK VINA RESULT:      -6.9      2.690      3.575
REMARK  Name = 
REMARK  4 active torsions:
REMARK  status: ('A' for Active; 'I' for Inactive)
REMARK    1  A    between atoms: C_1  and  C_2
REMARK    2  A    between atoms: C_2  and  C_3
REMARK    3  A    between atoms: C_3  and  C_4
REMARK    4  A    between atoms: C_10  and  C_11
REMARK                            x       y       z     vdW  Elec       q    Type
REMARK                         _______ _______ _______ _____ _____    ______ ____
ROOT
ATOM      1  C   UNL     1       4.327   3.870  16.749  0.00  0.00    +0.000 C 
ATOM      2  C   UNL     1       3.999   4.283  18.207  0.00  0.00    +0.000 C 
ATOM      3  C   UNL     1       2.446   4.317  18.351  0.00  0.00    +0.000 C 
ATOM      4  C   UNL     1       1.788   3.319  19.340  0.00  0.00    +0.000 C 
ATOM      5  C   UNL     1       0.698   2.488  18.632  0.00  0.00    +0.000 C 
ATOM      6  C   UNL     1       1.170   4.039  20.542  0.00  0.00    +0.000 C 
ATOM      7  C   UNL     1       1.329   3.065  21.699  0.00  0.00    +0.000 C 
ATOM      8  O   UNL     1       2.192   2.013  21.272  0.00  0.00    +0.000 OA
ATOM      9  C   UNL     1       2.792   2.406  20.031  0.00  0.00    +0.000 C 
ATOM     10  O   UNL     1       3.966   3.168  20.265  0.00  0.00    +0.000 OA
ATOM     11  O   UNL     1       4.638   3.260  18.981  0.00  0.00    +0.000 OA
ENDROOT
BRANCH   2  12
ATOM     12  C   UNL     1       4.684   5.661  18.429  0.00  0.00    +0.000 C 
BRANCH  12  13
ATOM     13  C   UNL     1       6.021   5.966  17.728  0.00  0.00    +0.000 C 
ATOM     14  C   UNL     1       6.199   7.405  17.238  0.00  0.00    +0.000 C 
ATOM     15  C   UNL     1       7.695   7.664  17.325  0.00  0.00    +0.000 C 
ATOM     16  C   UNL     1       8.090   6.982  18.617  0.00  0.00    +0.000 C 
ATOM     17  C   UNL     1       7.210   5.738  18.690  0.00  0.00    +0.000 C 
ENDBRANCH  12  13
ENDBRANCH   2  12
TORSDOF 2
ENDMDL
MODEL 3
REMARK VINA RESULT:      -6.9      2.769      5.432
REMARK  Name = 
REMARK  4 active torsions:
REMARK  status: ('A' for Active; 'I' for Inactive)
REMARK    1  A    between atoms: C_1  and  C_2
REMARK    2  A    between atoms: C_2  and  C_3
REMARK    3  A    between atoms: C_3  and  C_4
REMARK    4  A    between atoms: C_10  and  C_11
REMARK                            x       y       z     vdW  Elec       q    Type
REMARK                         _______ _______ _______ _____ _____    ______ ____
ROOT
ATOM      1  C   UNL     1       7.054   5.555  17.278  0.00  0.00    +0.000 C 
ATOM      2  C   UNL     1       5.614   5.367  16.735  0.00  0.00    +0.000 C 
ATOM      3  C   UNL     1       5.121   3.956  17.182  0.00  0.00    +0.000 C 
ATOM      4  C   UNL     1       3.904   3.884  18.141  0.00  0.00    +0.000 C 
ATOM      5  C   UNL     1       4.247   3.053  19.395  0.00  0.00    +0.000 C 
ATOM      6  C   UNL     1       2.679   3.275  17.454  0.00  0.00    +0.000 C 
ATOM      7  C   UNL     1       1.490   3.973  18.096  0.00  0.00    +0.000 C 
ATOM      8  O   UNL     1       1.986   5.063  18.870  0.00  0.00    +0.000 OA
ATOM      9  C   UNL     1       3.367   5.253  18.537  0.00  0.00    +0.000 C 
ATOM     10  O   UNL     1       3.494   6.100  17.406  0.00  0.00    +0.000 OA
ATOM     11  O   UNL     1       4.901   6.455  17.336  0.00  0.00    +0.000 OA
ENDROOT
BRANCH   2  12
ATOM     12  C   UNL     1       5.708   5.545  15.193  0.00  0.00    +0.000 C 
BRANCH  12  13
ATOM     13  C   UNL     1       6.317   4.421  14.335  0.00  0.00    +0.000 C 
ATOM     14  C   UNL     1       5.368   3.770  13.325  0.00  0.00    +0.000 C 
ATOM     15  C   UNL     1       6.262   3.339  12.173  0.00  0.00    +0.000 C 
ATOM     16  C   UNL     1       7.239   4.488  12.044  0.00  0.00    +0.000 C 
ATOM     17  C   UNL     1       7.484   4.958  13.474  0.00  0.00    +0.000 C 
ENDBRANCH  12  13
ENDBRANCH   2  12
TORSDOF 2
ENDMDL
MODEL 4
REMARK VINA RESULT:      -6.8      1.845      4.977
REMARK  Name = 
REMARK  4 active torsions:
REMARK  status: ('A' for Active; 'I' for Inactive)
REMARK    1  A    between atoms: C_1  and  C_2
REMARK    2  A    between atoms: C_2  and  C_3
REMARK    3  A    between atoms: C_3  and  C_4
REMARK    4  A    between atoms: C_10  and  C_11
REMARK                            x       y       z     vdW  Elec       q    Type
REMARK                         _______ _______ _______ _____ _____    ______ ____
ROOT
ATOM      1  C   UNL     1       3.080   7.444  18.168  0.00  0.00    +0.000 C 
ATOM      2  C   UNL     1       3.829   6.090  18.082  0.00  0.00    +0.000 C 
ATOM      3  C   UNL     1       4.940   6.233  16.996  0.00  0.00    +0.000 C 
ATOM      4  C   UNL     1       6.418   6.102  17.449  0.00  0.00    +0.000 C 
ATOM      5  C   UNL     1       7.234   7.334  17.007  0.00  0.00    +0.000 C 
ATOM      6  C   UNL     1       7.072   4.838  16.887  0.00  0.00    +0.000 C 
ATOM      7  C   UNL     1       8.068   4.411  17.953  0.00  0.00    +0.000 C 
ATOM      8  O   UNL     1       7.818   5.187  19.123  0.00  0.00    +0.000 OA
ATOM      9  C   UNL     1       6.570   5.869  18.946  0.00  0.00    +0.000 C 
ATOM     10  O   UNL     1       5.491   5.045  19.358  0.00  0.00    +0.000 OA
ATOM     11  O   UNL     1       4.329   5.915  19.413  0.00  0.00    +0.000 OA
ENDROOT
BRANCH   2  12
ATOM     12  C   UNL     1       2.751   5.021  17.746  0.00  0.00    +0.000 C 
BRANCH  12  13
ATOM     13  C   UNL     1       2.463   3.891  18.751  0.00  0.00    +0.000 C 
ATOM     14  C   UNL     1       1.430   4.215  19.834  0.00  0.00    +0.000 C 
ATOM     15  C   UNL     1       0.772   2.882  20.155  0.00  0.00    +0.000 C 
ATOM     16  C   UNL     1       0.638   2.226  18.797  0.00  0.00    +0.000 C 
ATOM     17  C   UNL     1       1.888   2.649  18.032  0.00  0.00    +0.000 C 
ENDBRANCH  12  13
ENDBRANCH   2  12
TORSDOF 2
ENDMDL
MODEL 5
REMARK VINA RESULT:      -6.7      1.836      4.323
REMARK  Name = 
REMARK  4 active torsions:
REMARK  status: ('A' for Active; 'I' for Inactive)
REMARK    1  A    between atoms: C_1  and  C_2
REMARK    2  A    between atoms: C_2  and  C_3
REMARK    3  A    between atoms: C_3  and  C_4
REMARK    4  A    between atoms: C_10  and  C_11
REMARK                            x       y       z     vdW  Elec       q    Type
REMARK                         _______ _______ _______ _____ _____    ______ ____
ROOT
ATOM      1  C   UNL     1       2.439   7.439  18.903  0.00  0.00    +0.000 C 
ATOM      2  C   UNL     1       2.957   6.073  18.385  0.00  0.00    +0.000 C 
ATOM      3  C   UNL     1       3.287   5.190  19.628  0.00  0.00    +0.000 C 
ATOM      4  C   UNL     1       2.466   3.890  19.833  0.00  0.00    +0.000 C 
ATOM      5  C   UNL     1       1.832   3.862  21.239  0.00  0.00    +0.000 C 
ATOM      6  C   UNL     1       3.330   2.641  19.647  0.00  0.00    +0.000 C 
ATOM      7  C   UNL     1       2.385   1.599  19.069  0.00  0.00    +0.000 C 
ATOM      8  O   UNL     1       1.174   2.260  18.704  0.00  0.00    +0.000 OA
ATOM      9  C   UNL     1       1.404   3.674  18.763  0.00  0.00    +0.000 C 
ATOM     10  O   UNL     1       1.939   4.143  17.536  0.00  0.00    +0.000 OA
ATOM     11  O   UNL     1       1.859   5.592  17.599  0.00  0.00    +0.000 OA
ENDROOT
BRANCH   2  12
ATOM     12  C   UNL     1       4.188   6.390  17.489  0.00  0.00    +0.000 C 
BRANCH  12  13
ATOM     13  C   UNL     1       4.916   5.241  16.767  0.00  0.00    +0.000 C 
ATOM     14  C   UNL     1       5.548   5.600  15.420  0.00  0.00    +0.000 C 
ATOM     15  C   UNL     1       6.756   4.685  15.301  0.00  0.00    +0.000 C 
ATOM     16  C   UNL     1       7.318   4.668  16.706  0.00  0.00    +0.000 C 
ATOM     17  C   UNL     1       6.097   4.719  17.618  0.00  0.00    +0.000 C 
ENDBRANCH  12  13
ENDBRANCH   2  12
TORSDOF 2
ENDMDL
MODEL 6
REMARK VINA RESULT:      -6.5      2.959      5.299
REMARK  Name = 
REMARK  4 active torsions:
REMARK  status: ('A' for Active; 'I' for Inactive)
REMARK    1  A    between atoms: C_1  and  C_2
REMARK    2  A    between atoms: C_2  and  C_3
REMARK    3  A    between atoms: C_3  and  C_4
REMARK    4  A    between atoms: C_10  and  C_11
REMARK                            x       y       z     vdW  Elec       q    Type
REMARK                         _______ _______ _______ _____ _____    ______ ____
ROOT
ATOM      1  C   UNL     1       4.273   5.313  19.639  0.00  0.00    +0.000 C 
ATOM      2  C   UNL     1       4.951   4.406  18.582  0.00  0.00    +0.000 C 
ATOM      3  C   UNL     1       4.390   4.809  17.183  0.00  0.00    +0.000 C 
ATOM      4  C   UNL     1       5.383   5.392  16.143  0.00  0.00    +0.000 C 
ATOM      5  C   UNL     1       4.884   6.754  15.618  0.00  0.00    +0.000 C 
ATOM      6  C   UNL     1       5.586   4.441  14.961  0.00  0.00    +0.000 C 
ATOM      7  C   UNL     1       7.026   4.666  14.527  0.00  0.00    +0.000 C 
ATOM      8  O   UNL     1       7.666   5.458  15.525  0.00  0.00    +0.000 OA
ATOM      9  C   UNL     1       6.806   5.510  16.671  0.00  0.00    +0.000 C 
ATOM     10  O   UNL     1       7.037   4.396  17.518  0.00  0.00    +0.000 OA
ATOM     11  O   UNL     1       6.344   4.694  18.759  0.00  0.00    +0.000 OA
ENDROOT
BRANCH   2  12
ATOM     12  C   UNL     1       4.627   2.943  18.996  0.00  0.00    +0.000 C 
BRANCH  12  13
ATOM     13  C   UNL     1       3.158   2.503  19.139  0.00  0.00    +0.000 C 
ATOM     14  C   UNL     1       2.378   3.161  20.280  0.00  0.00    +0.000 C 
ATOM     15  C   UNL     1       0.940   3.214  19.789  0.00  0.00    +0.000 C 
ATOM     16  C   UNL     1       1.087   3.577  18.327  0.00  0.00    +0.000 C 
ATOM     17  C   UNL     1       2.351   2.858  17.869  0.00  0.00    +0.000 C 
ENDBRANCH  12  13
ENDBRANCH   2  12
TORSDOF 2
ENDMDL
MODEL 7
REMARK VINA RESULT:      -6.4      2.774      4.511
REMARK  Name = 
REMARK  4 active torsions:
REMARK  status: ('A' for Active; 'I' for Inactive)
REMARK    1  A    between atoms: C_1  and  C_2
REMARK    2  A    between atoms: C_2  and  C_3
REMARK    3  A    between atoms: C_3  and  C_4
REMARK    4  A    between atoms: C_10  and  C_11
REMARK                            x       y       z     vdW  Elec       q    Type
REMARK                         _______ _______ _______ _____ _____    ______ ____
ROOT
ATOM      1  C   UNL     1       6.069   5.376  19.263  0.00  0.00    +0.000 C 
ATOM      2  C   UNL     1       4.716   5.059  18.577  0.00  0.00    +0.000 C 
ATOM      3  C   UNL     1       4.399   3.553  18.830  0.00  0.00    +0.000 C 
ATOM      4  C   UNL     1       3.137   3.207  19.663  0.00  0.00    +0.000 C 
ATOM      5  C   UNL     1       3.502   2.291  20.850  0.00  0.00    +0.000 C 
ATOM      6  C   UNL     1       2.066   2.522  18.810  0.00  0.00    +0.000 C 
ATOM      7  C   UNL     1       0.745   2.975  19.411  0.00  0.00    +0.000 C 
ATOM      8  O   UNL     1       1.021   4.026  20.336  0.00  0.00    +0.000 OA
ATOM      9  C   UNL     1       2.381   4.437  20.149  0.00  0.00    +0.000 C 
ATOM     10  O   UNL     1       2.469   5.418  19.128  0.00  0.00    +0.000 OA
ATOM     11  O   UNL     1       3.811   5.965  19.221  0.00  0.00    +0.000 OA
ENDROOT
BRANCH   2  12
ATOM     12  C   UNL     1       4.897   5.424  17.077  0.00  0.00    +0.000 C 
BRANCH  12  13
ATOM     13  C   UNL     1       5.613   4.437  16.137  0.00  0.00    +0.000 C 
ATOM     14  C   UNL     1       4.974   4.252  14.758  0.00  0.00    +0.000 C 
ATOM     15  C   UNL     1       6.135   3.935  13.830  0.00  0.00    +0.000 C 
ATOM     16  C   UNL     1       7.231   4.858  14.318  0.00  0.00    +0.000 C 
ATOM     17  C   UNL     1       7.052   4.915  15.831  0.00  0.00    +0.000 C 
ENDBRANCH  12  13
ENDBRANCH   2  12
TORSDOF 2
ENDMDL
MODEL 8
REMARK VINA RESULT:      -6.4      1.677      4.783
REMARK  Name = 
REMARK  4 active torsions:
REMARK  status: ('A' for Active; 'I' for Inactive)
REMARK    1  A    between atoms: C_1  and  C_2
REMARK    2  A    between atoms: C_2  and  C_3
REMARK    3  A    between atoms: C_3  and  C_4
REMARK    4  A    between atoms: C_10  and  C_11
REMARK                            x       y       z     vdW  Elec       q    Type
REMARK                         _______ _______ _______ _____ _____    ______ ____
ROOT
ATOM      1  C   UNL     1       2.676   7.138  18.887  0.00  0.00    +0.000 C 
ATOM      2  C   UNL     1       3.426   5.871  18.402  0.00  0.00    +0.000 C 
ATOM      3  C   UNL     1       4.430   6.312  17.292  0.00  0.00    +0.000 C 
ATOM      4  C   UNL     1       5.945   6.120  17.568  0.00  0.00    +0.000 C 
ATOM      5  C   UNL     1       6.706   7.448  17.375  0.00  0.00    +0.000 C 
ATOM      6  C   UNL     1       6.554   5.054  16.654  0.00  0.00    +0.000 C 
ATOM      7  C   UNL     1       7.649   4.409  17.490  0.00  0.00    +0.000 C 
ATOM      8  O   UNL     1       7.502   4.866  18.833  0.00  0.00    +0.000 OA
ATOM      9  C   UNL     1       6.237   5.531  18.941  0.00  0.00    +0.000 C 
ATOM     10  O   UNL     1       5.208   4.598  19.228  0.00  0.00    +0.000 OA
ATOM     11  O   UNL     1       4.049   5.390  19.600  0.00  0.00    +0.000 OA
ENDROOT
BRANCH   2  12
ATOM     12  C   UNL     1       2.330   4.885  17.908  0.00  0.00    +0.000 C 
BRANCH  12  13
ATOM     13  C   UNL     1       1.572   4.019  18.930  0.00  0.00    +0.000 C 
ATOM     14  C   UNL     1       2.235   2.689  19.295  0.00  0.00    +0.000 C 
ATOM     15  C   UNL     1       1.814   2.425  20.732  0.00  0.00    +0.000 C 
ATOM     16  C   UNL     1       1.883   3.795  21.371  0.00  0.00    +0.000 C 
ATOM     17  C   UNL     1       1.430   4.760  20.280  0.00  0.00    +0.000 C 
ENDBRANCH  12  13
ENDBRANCH   2  12
TORSDOF 2
ENDMDL
MODEL 9
REMARK VINA RESULT:      -6.3      0.825      1.274
REMARK  Name = 
REMARK  4 active torsions:
REMARK  status: ('A' for Active; 'I' for Inactive)
REMARK    1  A    between atoms: C_1  and  C_2
REMARK    2  A    between atoms: C_2  and  C_3
REMARK    3  A    between atoms: C_3  and  C_4
REMARK    4  A    between atoms: C_10  and  C_11
REMARK                            x       y       z     vdW  Elec       q    Type
REMARK                         _______ _______ _______ _____ _____    ______ ____
ROOT
ATOM      1  C   UNL     1       4.175   5.720  17.120  0.00  0.00    +0.000 C 
ATOM      2  C   UNL     1       3.035   5.565  18.159  0.00  0.00    +0.000 C 
ATOM      3  C   UNL     1       2.393   4.159  17.951  0.00  0.00    +0.000 C 
ATOM      4  C   UNL     1       2.497   3.135  19.111  0.00  0.00    +0.000 C 
ATOM      5  C   UNL     1       3.119   1.812  18.617  0.00  0.00    +0.000 C 
ATOM      6  C   UNL     1       1.129   2.845  19.734  0.00  0.00    +0.000 C 
ATOM      7  C   UNL     1       1.423   2.573  21.201  0.00  0.00    +0.000 C 
ATOM      8  O   UNL     1       2.779   2.938  21.453  0.00  0.00    +0.000 OA
ATOM      9  C   UNL     1       3.261   3.667  20.316  0.00  0.00    +0.000 C 
ATOM     10  O   UNL     1       2.949   5.045  20.440  0.00  0.00    +0.000 OA
ATOM     11  O   UNL     1       3.719   5.718  19.409  0.00  0.00    +0.000 OA
ENDROOT
BRANCH   2  12
ATOM     12  C   UNL     1       2.059   6.749  17.908  0.00  0.00    +0.000 C 
BRANCH  12  13
ATOM     13  C   UNL     1       2.336   8.113  18.566  0.00  0.00    +0.000 C 
ATOM     14  C   UNL     1       1.900   9.339  17.760  0.00  0.00    +0.000 C 
ATOM     15  C   UNL     1       1.545  10.386  18.804  0.00  0.00    +0.000 C 
ATOM     16  C   UNL     1       0.843   9.582  19.876  0.00  0.00    +0.000 C 
ATOM     17  C   UNL     1       1.572   8.243  19.905  0.00  0.00    +0.000 C 
ENDBRANCH  12  13
ENDBRANCH   2  12
TORSDOF 2
ENDMDL
