MODEL 1
REMARK VINA RESULT:      -6.5      0.000      0.000
REMARK  Name = 
REMARK  13 active torsions:
REMARK  status: ('A' for Active; 'I' for Inactive)
REMARK    1  A    between atoms: C_1  and  C_2
REMARK    2  A    between atoms: C_2  and  O_3
REMARK    3  A    between atoms: O_3  and  C_4
REMARK    4  A    between atoms: C_4  and  C_6
REMARK    5  A    between atoms: N_8  and  C_9
REMARK    6  A    between atoms: C_9  and  C_10
REMARK    7  A    between atoms: C_13  and  O_14
REMARK    8  A    between atoms: O_14  and  C_15
REMARK    9  A    between atoms: C_19  and  C_20
REMARK   10  A    between atoms: C_20  and  O_22
REMARK   11  A    between atoms: O_22  and  C_23
REMARK   12  A    between atoms: C_23  and  C_24
REMARK   13  A    between atoms: C_25  and  C_26
REMARK                            x       y       z     vdW  Elec       q    Type
REMARK                         _______ _______ _______ _____ _____    ______ ____
ROOT
ATOM      1  C   UNL     1       4.096   6.686  17.573  0.00  0.00    +0.000 C 
ATOM      2  C   UNL     1       3.485   7.885  17.476  0.00  0.00    +0.000 C 
ATOM      3  N   UNL     1       2.492   8.327  18.337  0.00  0.00    +0.000 N 
ATOM      4  C   UNL     1       1.989   7.427  19.266  0.00  0.00    +0.000 C 
ATOM      5  C   UNL     1       2.517   6.203  19.489  0.00  0.00    +0.000 C 
ATOM      6  C   UNL     1       3.751   5.725  18.725  0.00  0.00    +0.000 C 
ENDROOT
BRANCH   6   7
ATOM      7  C   UNL     1       3.720   4.255  18.331  0.00  0.00    +0.000 A 
ATOM      8  C   UNL     1       3.159   3.701  17.190  0.00  0.00    +0.000 A 
ATOM      9  C   UNL     1       3.312   2.287  17.146  0.00  0.00    +0.000 A 
ATOM     10  C   UNL     1       3.983   1.807  18.249  0.00  0.00    +0.000 A 
ATOM     11  S   UNL     1       4.432   3.056  19.330  0.00  0.00    +0.000 S 
ENDBRANCH   6   7
BRANCH   1  12
ATOM     12  C   UNL     1       5.148   6.348  16.591  0.00  0.00    +0.000 C 
ATOM     13  O   UNL     1       5.067   6.559  15.392  0.00  0.00    +0.000 OA
BRANCH  12  14
ATOM     14  O   UNL     1       6.203   5.763  17.222  0.00  0.00    +0.000 OA
BRANCH  14  16
ATOM     15  C   UNL     1       7.657   7.599  17.795  0.00  0.00    +0.000 C 
ATOM     16  C   UNL     1       7.500   6.323  16.994  0.00  0.00    +0.000 C 
ENDBRANCH  14  16
ENDBRANCH  12  14
ENDBRANCH   1  12
BRANCH   5  17
ATOM     17  C   UNL     1       1.855   5.426  20.551  0.00  0.00    +0.000 C 
ATOM     18  O   UNL     1       2.291   5.325  21.690  0.00  0.00    +0.000 OA
BRANCH  17  19
ATOM     19  O   UNL     1       0.808   4.726  20.050  0.00  0.00    +0.000 OA
BRANCH  19  20
ATOM     20  C   UNL     1       0.801   3.333  20.397  0.00  0.00    +0.000 C 
ATOM     21  C   UNL     1       0.432   2.562  19.143  0.00  0.00    +0.000 C 
ENDBRANCH  19  20
ENDBRANCH  17  19
ENDBRANCH   5  17
BRANCH   3  22
ATOM     22  C   UNL     1       2.099   9.743  18.355  0.00  0.00    +0.000 C 
BRANCH  22  23
ATOM     23  C   UNL     1       0.605   9.958  18.395  0.00  0.00    +0.000 A 
ATOM     24  C   UNL     1       0.018  10.671  19.448  0.00  0.00    +0.000 A 
ATOM     25  C   UNL     1      -1.344  10.982  19.418  0.00  0.00    +0.000 A 
ATOM     26  C   UNL     1      -2.134  10.596  18.335  0.00  0.00    +0.000 A 
ATOM     27  C   UNL     1      -1.574   9.826  17.317  0.00  0.00    +0.000 A 
ATOM     28  C   UNL     1      -0.213   9.503  17.350  0.00  0.00    +0.000 A 
BRANCH  26  29
ATOM     29  O   UNL     1      -3.441  10.995  18.388  0.00  0.00    +0.000 OA
ATOM     30  C   UNL     1      -4.029  11.314  17.130  0.00  0.00    +0.000 C 
ENDBRANCH  26  29
ENDBRANCH  22  23
ENDBRANCH   3  22
TORSDOF 10
ENDMDL
MODEL 2
REMARK VINA RESULT:      -6.4      1.387      1.619
REMARK  Name = 
REMARK  13 active torsions:
REMARK  status: ('A' for Active; 'I' for Inactive)
REMARK    1  A    between atoms: C_1  and  C_2
REMARK    2  A    between atoms: C_2  and  O_3
REMARK    3  A    between atoms: O_3  and  C_4
REMARK    4  A    between atoms: C_4  and  C_6
REMARK    5  A    between atoms: N_8  and  C_9
REMARK    6  A    between atoms: C_9  and  C_10
REMARK    7  A    between atoms: C_13  and  O_14
REMARK    8  A    between atoms: O_14  and  C_15
REMARK    9  A    between atoms: C_19  and  C_20
REMARK   10  A    between atoms: C_20  and  O_22
REMARK   11  A    between atoms: O_22  and  C_23
REMARK   12  A    between atoms: C_23  and  C_24
REMARK   13  A    between atoms: C_25  and  C_26
REMARK                            x       y       z     vdW  Elec       q    Type
REMARK                         _______ _______ _______ _____ _____    ______ ____
ROOT
ATOM      1  C   UNL     1       4.053   6.746  17.425  0.00  0.00    +0.000 C 
ATOM      2  C   UNL     1       3.506   7.960  17.208  0.00  0.00    +0.000 C 
ATOM      3  N   UNL     1       2.562   8.550  18.034  0.00  0.00    +0.000 N 
ATOM      4  C   UNL     1       2.035   7.787  19.067  0.00  0.00    +0.000 C 
ATOM      5  C   UNL     1       2.500   6.566  19.413  0.00  0.00    +0.000 C 
ATOM      6  C   UNL     1       3.687   5.938  18.682  0.00  0.00    +0.000 C 
ENDROOT
BRANCH   6   7
ATOM      7  C   UNL     1       3.566   4.438  18.453  0.00  0.00    +0.000 A 
ATOM      8  C   UNL     1       4.439   3.448  18.878  0.00  0.00    +0.000 A 
ATOM      9  C   UNL     1       4.014   2.148  18.485  0.00  0.00    +0.000 A 
ATOM     10  C   UNL     1       2.834   2.185  17.775  0.00  0.00    +0.000 A 
ATOM     11  S   UNL     1       2.238   3.779  17.588  0.00  0.00    +0.000 S 
ENDBRANCH   6   7
BRANCH   1  12
ATOM     12  C   UNL     1       5.060   6.244  16.466  0.00  0.00    +0.000 C 
ATOM     13  O   UNL     1       4.934   5.228  15.801  0.00  0.00    +0.000 OA
BRANCH  12  14
ATOM     14  O   UNL     1       6.139   7.074  16.445  0.00  0.00    +0.000 OA
BRANCH  14  16
ATOM     15  C   UNL     1       7.884   8.128  17.733  0.00  0.00    +0.000 C 
ATOM     16  C   UNL     1       7.175   6.830  17.402  0.00  0.00    +0.000 C 
ENDBRANCH  14  16
ENDBRANCH  12  14
ENDBRANCH   1  12
BRANCH   5  17
ATOM     17  C   UNL     1       1.825   5.948  20.567  0.00  0.00    +0.000 C 
ATOM     18  O   UNL     1       0.931   6.493  21.201  0.00  0.00    +0.000 OA
BRANCH  17  19
ATOM     19  O   UNL     1       2.435   4.789  20.914  0.00  0.00    +0.000 OA
BRANCH  19  20
ATOM     20  C   UNL     1       1.537   3.709  21.212  0.00  0.00    +0.000 C 
ATOM     21  C   UNL     1       2.374   2.574  21.772  0.00  0.00    +0.000 C 
ENDBRANCH  19  20
ENDBRANCH  17  19
ENDBRANCH   5  17
BRANCH   3  22
ATOM     22  C   UNL     1       2.247   9.979  17.905  0.00  0.00    +0.000 C 
BRANCH  22  23
ATOM     23  C   UNL     1       1.056  10.416  18.724  0.00  0.00    +0.000 A 
ATOM     24  C   UNL     1       1.236  11.166  19.893  0.00  0.00    +0.000 A 
ATOM     25  C   UNL     1       0.133  11.681  20.579  0.00  0.00    +0.000 A 
ATOM     26  C   UNL     1      -1.160  11.463  20.103  0.00  0.00    +0.000 A 
ATOM     27  C   UNL     1      -1.351  10.659  18.980  0.00  0.00    +0.000 A 
ATOM     28  C   UNL     1      -0.250  10.134  18.298  0.00  0.00    +0.000 A 
BRANCH  26  29
ATOM     29  O   UNL     1      -2.161  12.052  20.825  0.00  0.00    +0.000 OA
ATOM     30  C   UNL     1      -3.103  12.798  20.060  0.00  0.00    +0.000 C 
ENDBRANCH  26  29
ENDBRANCH  22  23
ENDBRANCH   3  22
TORSDOF 10
ENDMDL
MODEL 3
REMARK VINA RESULT:      -6.4      2.072      4.759
REMARK  Name = 
REMARK  13 active torsions:
REMARK  status: ('A' for Active; 'I' for Inactive)
REMARK    1  A    between atoms: C_1  and  C_2
REMARK    2  A    between atoms: C_2  and  O_3
REMARK    3  A    between atoms: O_3  and  C_4
REMARK    4  A    between atoms: C_4  and  C_6
REMARK    5  A    between atoms: N_8  and  C_9
REMARK    6  A    between atoms: C_9  and  C_10
REMARK    7  A    between atoms: C_13  and  O_14
REMARK    8  A    between atoms: O_14  and  C_15
REMARK    9  A    between atoms: C_19  and  C_20
REMARK   10  A    between atoms: C_20  and  O_22
REMARK   11  A    between atoms: O_22  and  C_23
REMARK   12  A    between atoms: C_23  and  C_24
REMARK   13  A    between atoms: C_25  and  C_26
REMARK                            x       y       z     vdW  Elec       q    Type
REMARK                         _______ _______ _______ _____ _____    ______ ____
ROOT
ATOM      1  C   UNL     1       1.995   4.741  18.364  0.00  0.00    +0.000 C 
ATOM      2  C   UNL     1       1.840   6.081  18.401  0.00  0.00    +0.000 C 
ATOM      3  N   UNL     1       2.751   6.987  17.880  0.00  0.00    +0.000 N 
ATOM      4  C   UNL     1       3.966   6.497  17.424  0.00  0.00    +0.000 C 
ATOM      5  C   UNL     1       4.252   5.181  17.310  0.00  0.00    +0.000 C 
ATOM      6  C   UNL     1       3.214   4.116  17.664  0.00  0.00    +0.000 C 
ENDROOT
BRANCH   6   7
ATOM      7  C   UNL     1       3.782   2.889  18.365  0.00  0.00    +0.000 A 
ATOM      8  C   UNL     1       3.620   1.561  18.001  0.00  0.00    +0.000 A 
ATOM      9  C   UNL     1       4.292   0.673  18.887  0.00  0.00    +0.000 A 
ATOM     10  C   UNL     1       4.943   1.347  19.896  0.00  0.00    +0.000 A 
ATOM     11  S   UNL     1       4.752   3.044  19.772  0.00  0.00    +0.000 S 
ENDBRANCH   6   7
BRANCH   1  12
ATOM     12  C   UNL     1       0.937   3.891  18.950  0.00  0.00    +0.000 C 
ATOM     13  O   UNL     1       0.376   2.981  18.360  0.00  0.00    +0.000 OA
BRANCH  12  14
ATOM     14  O   UNL     1       0.680   4.282  20.228  0.00  0.00    +0.000 OA
BRANCH  14  16
ATOM     15  C   UNL     1       1.547   2.529  21.641  0.00  0.00    +0.000 C 
ATOM     16  C   UNL     1       1.667   3.980  21.220  0.00  0.00    +0.000 C 
ENDBRANCH  14  16
ENDBRANCH  12  14
ENDBRANCH   1  12
BRANCH   5  17
ATOM     17  C   UNL     1       5.586   4.880  16.763  0.00  0.00    +0.000 C 
ATOM     18  O   UNL     1       5.822   3.925  16.035  0.00  0.00    +0.000 OA
BRANCH  17  19
ATOM     19  O   UNL     1       6.520   5.701  17.304  0.00  0.00    +0.000 OA
BRANCH  19  20
ATOM     20  C   UNL     1       7.592   5.022  17.977  0.00  0.00    +0.000 C 
ATOM     21  C   UNL     1       7.796   5.721  19.308  0.00  0.00    +0.000 C 
ENDBRANCH  19  20
ENDBRANCH  17  19
ENDBRANCH   5  17
BRANCH   3  22
ATOM     22  C   UNL     1       2.373   8.394  17.684  0.00  0.00    +0.000 C 
BRANCH  22  23
ATOM     23  C   UNL     1       1.681   9.008  18.877  0.00  0.00    +0.000 A 
ATOM     24  C   UNL     1       1.706   8.364  20.121  0.00  0.00    +0.000 A 
ATOM     25  C   UNL     1       1.180   8.994  21.252  0.00  0.00    +0.000 A 
ATOM     26  C   UNL     1       0.634  10.274  21.160  0.00  0.00    +0.000 A 
ATOM     27  C   UNL     1       0.542  10.892  19.914  0.00  0.00    +0.000 A 
ATOM     28  C   UNL     1       1.058  10.260  18.778  0.00  0.00    +0.000 A 
BRANCH  26  29
ATOM     29  O   UNL     1       0.193  10.813  22.338  0.00  0.00    +0.000 OA
ATOM     30  C   UNL     1      -0.618   9.952  23.132  0.00  0.00    +0.000 C 
ENDBRANCH  26  29
ENDBRANCH  22  23
ENDBRANCH   3  22
TORSDOF 10
ENDMDL
MODEL 4
REMARK VINA RESULT:      -6.3      0.755      1.048
REMARK  Name = 
REMARK  13 active torsions:
REMARK  status: ('A' for Active; 'I' for Inactive)
REMARK    1  A    between atoms: C_1  and  C_2
REMARK    2  A    between atoms: C_2  and  O_3
REMARK    3  A    between atoms: O_3  and  C_4
REMARK    4  A    between atoms: C_4  and  C_6
REMARK    5  A    between atoms: N_8  and  C_9
REMARK    6  A    between atoms: C_9  and  C_10
REMARK    7  A    between atoms: C_13  and  O_14
REMARK    8  A    between atoms: O_14  and  C_15
REMARK    9  A    between atoms: C_19  and  C_20
REMARK   10  A    between atoms: C_20  and  O_22
REMARK   11  A    between atoms: O_22  and  C_23
REMARK   12  A    between atoms: C_23  and  C_24
REMARK   13  A    between atoms: C_25  and  C_26
REMARK                            x       y       z     vdW  Elec       q    Type
REMARK                         _______ _______ _______ _____ _____    ______ ____
ROOT
ATOM      1  C   UNL     1       3.999   6.678  17.555  0.00  0.00    +0.000 C 
ATOM      2  C   UNL     1       3.411   7.891  17.499  0.00  0.00    +0.000 C 
ATOM      3  N   UNL     1       2.483   8.353  18.421  0.00  0.00    +0.000 N 
ATOM      4  C   UNL     1       2.019   7.461  19.377  0.00  0.00    +0.000 C 
ATOM      5  C   UNL     1       2.531   6.224  19.564  0.00  0.00    +0.000 C 
ATOM      6  C   UNL     1       3.704   5.721  18.723  0.00  0.00    +0.000 C 
ENDROOT
BRANCH   6   7
ATOM      7  C   UNL     1       3.615   4.254  18.328  0.00  0.00    +0.000 A 
ATOM      8  C   UNL     1       2.887   3.706  17.283  0.00  0.00    +0.000 A 
ATOM      9  C   UNL     1       3.033   2.292  17.206  0.00  0.00    +0.000 A 
ATOM     10  C   UNL     1       3.865   1.806  18.190  0.00  0.00    +0.000 A 
ATOM     11  S   UNL     1       4.473   3.049  19.199  0.00  0.00    +0.000 S 
ENDBRANCH   6   7
BRANCH   1  12
ATOM     12  C   UNL     1       4.980   6.320  16.509  0.00  0.00    +0.000 C 
ATOM     13  O   UNL     1       4.944   6.728  15.359  0.00  0.00    +0.000 OA
BRANCH  12  14
ATOM     14  O   UNL     1       5.912   5.467  17.017  0.00  0.00    +0.000 OA
BRANCH  14  16
ATOM     15  C   UNL     1       6.136   3.658  15.439  0.00  0.00    +0.000 C 
ATOM     16  C   UNL     1       6.811   4.847  16.092  0.00  0.00    +0.000 C 
ENDBRANCH  14  16
ENDBRANCH  12  14
ENDBRANCH   1  12
BRANCH   5  17
ATOM     17  C   UNL     1       1.918   5.458  20.663  0.00  0.00    +0.000 C 
ATOM     18  O   UNL     1       2.494   5.194  21.710  0.00  0.00    +0.000 OA
BRANCH  17  19
ATOM     19  O   UNL     1       0.713   4.963  20.287  0.00  0.00    +0.000 OA
BRANCH  19  20
ATOM     20  C   UNL     1       0.728   3.575  19.920  0.00  0.00    +0.000 C 
ATOM     21  C   UNL     1       1.186   2.795  21.138  0.00  0.00    +0.000 C 
ENDBRANCH  19  20
ENDBRANCH  17  19
ENDBRANCH   5  17
BRANCH   3  22
ATOM     22  C   UNL     1       2.125   9.777  18.468  0.00  0.00    +0.000 C 
BRANCH  22  23
ATOM     23  C   UNL     1       0.636  10.027  18.503  0.00  0.00    +0.000 A 
ATOM     24  C   UNL     1       0.064  10.757  19.553  0.00  0.00    +0.000 A 
ATOM     25  C   UNL     1      -1.290  11.101  19.519  0.00  0.00    +0.000 A 
ATOM     26  C   UNL     1      -2.086  10.731  18.436  0.00  0.00    +0.000 A 
ATOM     27  C   UNL     1      -1.542   9.945  17.421  0.00  0.00    +0.000 A 
ATOM     28  C   UNL     1      -0.190   9.590  17.458  0.00  0.00    +0.000 A 
BRANCH  26  29
ATOM     29  O   UNL     1      -3.384  11.161  18.484  0.00  0.00    +0.000 OA
ATOM     30  C   UNL     1      -4.153  10.900  17.313  0.00  0.00    +0.000 C 
ENDBRANCH  26  29
ENDBRANCH  22  23
ENDBRANCH   3  22
TORSDOF 10
ENDMDL
MODEL 5
REMARK VINA RESULT:      -6.2      1.040      1.458
REMARK  Name = 
REMARK  13 active torsions:
REMARK  status: ('A' for Active; 'I' for Inactive)
REMARK    1  A    between atoms: C_1  and  C_2
REMARK    2  A    between atoms: C_2  and  O_3
REMARK    3  A    between atoms: O_3  and  C_4
REMARK    4  A    between atoms: C_4  and  C_6
REMARK    5  A    between atoms: N_8  and  C_9
REMARK    6  A    between atoms: C_9  and  C_10
REMARK    7  A    between atoms: C_13  and  O_14
REMARK    8  A    between atoms: O_14  and  C_15
REMARK    9  A    between atoms: C_19  and  C_20
REMARK   10  A    between atoms: C_20  and  O_22
REMARK   11  A    between atoms: O_22  and  C_23
REMARK   12  A    between atoms: C_23  and  C_24
REMARK   13  A    between atoms: C_25  and  C_26
REMARK                            x       y       z     vdW  Elec       q    Type
REMARK                         _______ _______ _______ _____ _____    ______ ____
ROOT
ATOM      1  C   UNL     1       4.216   6.445  17.498  0.00  0.00    +0.000 C 
ATOM      2  C   UNL     1       3.801   7.707  17.260  0.00  0.00    +0.000 C 
ATOM      3  N   UNL     1       2.869   8.381  18.034  0.00  0.00    +0.000 N 
ATOM      4  C   UNL     1       2.212   7.669  19.027  0.00  0.00    +0.000 C 
ATOM      5  C   UNL     1       2.538   6.408  19.390  0.00  0.00    +0.000 C 
ATOM      6  C   UNL     1       3.701   5.672  18.724  0.00  0.00    +0.000 C 
ENDROOT
BRANCH   6   7
ATOM      7  C   UNL     1       3.452   4.191  18.476  0.00  0.00    +0.000 A 
ATOM      8  C   UNL     1       2.453   3.624  17.698  0.00  0.00    +0.000 A 
ATOM      9  C   UNL     1       2.517   2.203  17.691  0.00  0.00    +0.000 A 
ATOM     10  C   UNL     1       3.557   1.729  18.460  0.00  0.00    +0.000 A 
ATOM     11  S   UNL     1       4.457   2.993  19.182  0.00  0.00    +0.000 S 
ENDBRANCH   6   7
BRANCH   1  12
ATOM     12  C   UNL     1       5.226   5.852  16.596  0.00  0.00    +0.000 C 
ATOM     13  O   UNL     1       4.965   5.135  15.643  0.00  0.00    +0.000 OA
BRANCH  12  14
ATOM     14  O   UNL     1       6.477   6.217  16.992  0.00  0.00    +0.000 OA
BRANCH  14  16
ATOM     15  C   UNL     1       7.700   5.734  19.013  0.00  0.00    +0.000 C 
ATOM     16  C   UNL     1       7.274   5.228  17.650  0.00  0.00    +0.000 C 
ENDBRANCH  14  16
ENDBRANCH  12  14
ENDBRANCH   1  12
BRANCH   5  17
ATOM     17  C   UNL     1       1.739   5.854  20.497  0.00  0.00    +0.000 C 
ATOM     18  O   UNL     1       0.841   6.467  21.058  0.00  0.00    +0.000 OA
BRANCH  17  19
ATOM     19  O   UNL     1       2.241   4.661  20.898  0.00  0.00    +0.000 OA
BRANCH  19  20
ATOM     20  C   UNL     1       1.263   3.620  21.042  0.00  0.00    +0.000 C 
ATOM     21  C   UNL     1       1.901   2.517  21.865  0.00  0.00    +0.000 C 
ENDBRANCH  19  20
ENDBRANCH  17  19
ENDBRANCH   5  17
BRANCH   3  22
ATOM     22  C   UNL     1       2.700   9.834  17.898  0.00  0.00    +0.000 C 
BRANCH  22  23
ATOM     23  C   UNL     1       1.326  10.324  18.288  0.00  0.00    +0.000 A 
ATOM     24  C   UNL     1       0.181   9.770  17.701  0.00  0.00    +0.000 A 
ATOM     25  C   UNL     1      -1.090  10.129  18.155  0.00  0.00    +0.000 A 
ATOM     26  C   UNL     1      -1.236  11.036  19.204  0.00  0.00    +0.000 A 
ATOM     27  C   UNL     1      -0.106  11.646  19.747  0.00  0.00    +0.000 A 
ATOM     28  C   UNL     1       1.167  11.296  19.287  0.00  0.00    +0.000 A 
BRANCH  26  29
ATOM     29  O   UNL     1      -2.523  11.279  19.599  0.00  0.00    +0.000 OA
ATOM     30  C   UNL     1      -3.392  11.756  18.575  0.00  0.00    +0.000 C 
ENDBRANCH  26  29
ENDBRANCH  22  23
ENDBRANCH   3  22
TORSDOF 10
ENDMDL
MODEL 6
REMARK VINA RESULT:      -6.2      1.004      1.066
REMARK  Name = 
REMARK  13 active torsions:
REMARK  status: ('A' for Active; 'I' for Inactive)
REMARK    1  A    between atoms: C_1  and  C_2
REMARK    2  A    between atoms: C_2  and  O_3
REMARK    3  A    between atoms: O_3  and  C_4
REMARK    4  A    between atoms: C_4  and  C_6
REMARK    5  A    between atoms: N_8  and  C_9
REMARK    6  A    between atoms: C_9  and  C_10
REMARK    7  A    between atoms: C_13  and  O_14
REMARK    8  A    between atoms: O_14  and  C_15
REMARK    9  A    between atoms: C_19  and  C_20
REMARK   10  A    between atoms: C_20  and  O_22
REMARK   11  A    between atoms: O_22  and  C_23
REMARK   12  A    between atoms: C_23  and  C_24
REMARK   13  A    between atoms: C_25  and  C_26
REMARK                            x       y       z     vdW  Elec       q    Type
REMARK                         _______ _______ _______ _____ _____    ______ ____
ROOT
ATOM      1  C   UNL     1       4.023   6.717  17.473  0.00  0.00    +0.000 C 
ATOM      2  C   UNL     1       3.517   7.950  17.262  0.00  0.00    +0.000 C 
ATOM      3  N   UNL     1       2.555   8.546  18.063  0.00  0.00    +0.000 N 
ATOM      4  C   UNL     1       1.966   7.774  19.054  0.00  0.00    +0.000 C 
ATOM      5  C   UNL     1       2.385   6.534  19.391  0.00  0.00    +0.000 C 
ATOM      6  C   UNL     1       3.584   5.891  18.694  0.00  0.00    +0.000 C 
ENDROOT
BRANCH   6   7
ATOM      7  C   UNL     1       3.433   4.400  18.426  0.00  0.00    +0.000 A 
ATOM      8  C   UNL     1       2.444   3.774  17.682  0.00  0.00    +0.000 A 
ATOM      9  C   UNL     1       2.612   2.362  17.641  0.00  0.00    +0.000 A 
ATOM     10  C   UNL     1       3.719   1.954  18.352  0.00  0.00    +0.000 A 
ATOM     11  S   UNL     1       4.557   3.268  19.059  0.00  0.00    +0.000 S 
ENDBRANCH   6   7
BRANCH   1  12
ATOM     12  C   UNL     1       5.055   6.209  16.544  0.00  0.00    +0.000 C 
ATOM     13  O   UNL     1       4.906   5.251  15.802  0.00  0.00    +0.000 OA
BRANCH  12  14
ATOM     14  O   UNL     1       6.187   6.959  16.649  0.00  0.00    +0.000 OA
BRANCH  14  16
ATOM     15  C   UNL     1       7.400   6.053  18.526  0.00  0.00    +0.000 C 
ATOM     16  C   UNL     1       7.391   6.285  17.029  0.00  0.00    +0.000 C 
ENDBRANCH  14  16
ENDBRANCH  12  14
ENDBRANCH   1  12
BRANCH   5  17
ATOM     17  C   UNL     1       1.646   5.909  20.502  0.00  0.00    +0.000 C 
ATOM     18  O   UNL     1       1.169   6.537  21.438  0.00  0.00    +0.000 OA
BRANCH  17  19
ATOM     19  O   UNL     1       1.712   4.558  20.419  0.00  0.00    +0.000 OA
BRANCH  19  20
ATOM     20  C   UNL     1       2.131   3.907  21.628  0.00  0.00    +0.000 C 
ATOM     21  C   UNL     1       1.639   2.474  21.558  0.00  0.00    +0.000 C 
ENDBRANCH  19  20
ENDBRANCH  17  19
ENDBRANCH   5  17
BRANCH   3  22
ATOM     22  C   UNL     1       2.283   9.986  17.953  0.00  0.00    +0.000 C 
BRANCH  22  23
ATOM     23  C   UNL     1       0.901  10.379  18.416  0.00  0.00    +0.000 A 
ATOM     24  C   UNL     1       0.736  11.257  19.495  0.00  0.00    +0.000 A 
ATOM     25  C   UNL     1      -0.535  11.724  19.839  0.00  0.00    +0.000 A 
ATOM     26  C   UNL     1      -1.655  11.330  19.107  0.00  0.00    +0.000 A 
ATOM     27  C   UNL     1      -1.509  10.403  18.076  0.00  0.00    +0.000 A 
ATOM     28  C   UNL     1      -0.240   9.926  17.736  0.00  0.00    +0.000 A 
BRANCH  26  29
ATOM     29  O   UNL     1      -2.841  11.885  19.501  0.00  0.00    +0.000 OA
ATOM     30  C   UNL     1      -3.917  11.736  18.578  0.00  0.00    +0.000 C 
ENDBRANCH  26  29
ENDBRANCH  22  23
ENDBRANCH   3  22
TORSDOF 10
ENDMDL
MODEL 7
REMARK VINA RESULT:      -6.2      1.876      4.595
REMARK  Name = 
REMARK  13 active torsions:
REMARK  status: ('A' for Active; 'I' for Inactive)
REMARK    1  A    between atoms: C_1  and  C_2
REMARK    2  A    between atoms: C_2  and  O_3
REMARK    3  A    between atoms: O_3  and  C_4
REMARK    4  A    between atoms: C_4  and  C_6
REMARK    5  A    between atoms: N_8  and  C_9
REMARK    6  A    between atoms: C_9  and  C_10
REMARK    7  A    between atoms: C_13  and  O_14
REMARK    8  A    between atoms: O_14  and  C_15
REMARK    9  A    between atoms: C_19  and  C_20
REMARK   10  A    between atoms: C_20  and  O_22
REMARK   11  A    between atoms: O_22  and  C_23
REMARK   12  A    between atoms: C_23  and  C_24
REMARK   13  A    between atoms: C_25  and  C_26
REMARK                            x       y       z     vdW  Elec       q    Type
REMARK                         _______ _______ _______ _____ _____    ______ ____
ROOT
ATOM      1  C   UNL     1       2.284   4.757  18.343  0.00  0.00    +0.000 C 
ATOM      2  C   UNL     1       2.094   6.093  18.332  0.00  0.00    +0.000 C 
ATOM      3  N   UNL     1       3.064   7.016  17.971  0.00  0.00    +0.000 N 
ATOM      4  C   UNL     1       4.353   6.551  17.750  0.00  0.00    +0.000 C 
ATOM      5  C   UNL     1       4.684   5.241  17.709  0.00  0.00    +0.000 C 
ATOM      6  C   UNL     1       3.623   4.154  17.885  0.00  0.00    +0.000 C 
ENDROOT
BRANCH   6   7
ATOM      7  C   UNL     1       4.082   2.950  18.695  0.00  0.00    +0.000 A 
ATOM      8  C   UNL     1       4.707   2.957  19.934  0.00  0.00    +0.000 A 
ATOM      9  C   UNL     1       4.998   1.644  20.398  0.00  0.00    +0.000 A 
ATOM     10  C   UNL     1       4.589   0.679  19.505  0.00  0.00    +0.000 A 
ATOM     11  S   UNL     1       3.850   1.352  18.115  0.00  0.00    +0.000 S 
ENDBRANCH   6   7
BRANCH   1  12
ATOM     12  C   UNL     1       1.156   3.887  18.740  0.00  0.00    +0.000 C 
ATOM     13  O   UNL     1       0.533   3.170  17.974  0.00  0.00    +0.000 OA
BRANCH  12  14
ATOM     14  O   UNL     1       0.916   4.015  20.074  0.00  0.00    +0.000 OA
BRANCH  14  16
ATOM     15  C   UNL     1       2.034   3.128  22.018  0.00  0.00    +0.000 C 
ATOM     16  C   UNL     1       1.068   2.846  20.886  0.00  0.00    +0.000 C 
ENDBRANCH  14  16
ENDBRANCH  12  14
ENDBRANCH   1  12
BRANCH   5  17
ATOM     17  C   UNL     1       6.102   4.968  17.418  0.00  0.00    +0.000 C 
ATOM     18  O   UNL     1       6.931   4.700  18.277  0.00  0.00    +0.000 OA
BRANCH  17  19
ATOM     19  O   UNL     1       6.377   5.212  16.113  0.00  0.00    +0.000 OA
BRANCH  19  20
ATOM     20  C   UNL     1       5.708   4.340  15.190  0.00  0.00    +0.000 C 
ATOM     21  C   UNL     1       6.603   4.209  13.972  0.00  0.00    +0.000 C 
ENDBRANCH  19  20
ENDBRANCH  17  19
ENDBRANCH   5  17
BRANCH   3  22
ATOM     22  C   UNL     1       2.696   8.410  17.689  0.00  0.00    +0.000 C 
BRANCH  22  23
ATOM     23  C   UNL     1       1.629   8.954  18.607  0.00  0.00    +0.000 A 
ATOM     24  C   UNL     1       1.681   8.702  19.984  0.00  0.00    +0.000 A 
ATOM     25  C   UNL     1       0.769   9.313  20.849  0.00  0.00    +0.000 A 
ATOM     26  C   UNL     1      -0.197  10.188  20.355  0.00  0.00    +0.000 A 
ATOM     27  C   UNL     1      -0.301  10.390  18.979  0.00  0.00    +0.000 A 
ATOM     28  C   UNL     1       0.603   9.772  18.110  0.00  0.00    +0.000 A 
BRANCH  26  29
ATOM     29  O   UNL     1      -1.006  10.765  21.295  0.00  0.00    +0.000 OA
ATOM     30  C   UNL     1      -0.572  10.614  22.644  0.00  0.00    +0.000 C 
ENDBRANCH  26  29
ENDBRANCH  22  23
ENDBRANCH   3  22
TORSDOF 10
ENDMDL
MODEL 8
REMARK VINA RESULT:      -6.1      1.159      1.798
REMARK  Name = 
REMARK  13 active torsions:
REMARK  status: ('A' for Active; 'I' for Inactive)
REMARK    1  A    between atoms: C_1  and  C_2
REMARK    2  A    between atoms: C_2  and  O_3
REMARK    3  A    between atoms: O_3  and  C_4
REMARK    4  A    between atoms: C_4  and  C_6
REMARK    5  A    between atoms: N_8  and  C_9
REMARK    6  A    between atoms: C_9  and  C_10
REMARK    7  A    between atoms: C_13  and  O_14
REMARK    8  A    between atoms: O_14  and  C_15
REMARK    9  A    between atoms: C_19  and  C_20
REMARK   10  A    between atoms: C_20  and  O_22
REMARK   11  A    between atoms: O_22  and  C_23
REMARK   12  A    between atoms: C_23  and  C_24
REMARK   13  A    between atoms: C_25  and  C_26
REMARK                            x       y       z     vdW  Elec       q    Type
REMARK                         _______ _______ _______ _____ _____    ______ ____
ROOT
ATOM      1  C   UNL     1       4.053   6.554  17.595  0.00  0.00    +0.000 C 
ATOM      2  C   UNL     1       3.569   7.780  17.309  0.00  0.00    +0.000 C 
ATOM      3  N   UNL     1       2.616   8.440  18.071  0.00  0.00    +0.000 N 
ATOM      4  C   UNL     1       2.014   7.740  19.107  0.00  0.00    +0.000 C 
ATOM      5  C   UNL     1       2.411   6.516  19.518  0.00  0.00    +0.000 C 
ATOM      6  C   UNL     1       3.600   5.811  18.864  0.00  0.00    +0.000 C 
ENDROOT
BRANCH   6   7
ATOM      7  C   UNL     1       3.424   4.310  18.686  0.00  0.00    +0.000 A 
ATOM      8  C   UNL     1       2.479   3.659  17.907  0.00  0.00    +0.000 A 
ATOM      9  C   UNL     1       2.604   2.243  17.977  0.00  0.00    +0.000 A 
ATOM     10  C   UNL     1       3.636   1.858  18.803  0.00  0.00    +0.000 A 
ATOM     11  S   UNL     1       4.455   3.196  19.486  0.00  0.00    +0.000 S 
ENDBRANCH   6   7
BRANCH   1  12
ATOM     12  C   UNL     1       5.077   5.973  16.700  0.00  0.00    +0.000 C 
ATOM     13  O   UNL     1       4.933   5.812  15.499  0.00  0.00    +0.000 OA
BRANCH  12  14
ATOM     14  O   UNL     1       6.187   5.641  17.415  0.00  0.00    +0.000 OA
BRANCH  14  16
ATOM     15  C   UNL     1       7.617   7.573  17.610  0.00  0.00    +0.000 C 
ATOM     16  C   UNL     1       7.434   6.202  16.993  0.00  0.00    +0.000 C 
ENDBRANCH  14  16
ENDBRANCH  12  14
ENDBRANCH   1  12
BRANCH   5  17
ATOM     17  C   UNL     1       1.661   5.972  20.664  0.00  0.00    +0.000 C 
ATOM     18  O   UNL     1       1.882   4.876  21.161  0.00  0.00    +0.000 OA
BRANCH  17  19
ATOM     19  O   UNL     1       0.612   6.774  20.972  0.00  0.00    +0.000 OA
BRANCH  19  20
ATOM     20  C   UNL     1       0.970   7.994  21.638  0.00  0.00    +0.000 C 
ATOM     21  C   UNL     1      -0.318   8.747  21.914  0.00  0.00    +0.000 C 
ENDBRANCH  19  20
ENDBRANCH  17  19
ENDBRANCH   5  17
BRANCH   3  22
ATOM     22  C   UNL     1       2.369   9.875  17.874  0.00  0.00    +0.000 C 
BRANCH  22  23
ATOM     23  C   UNL     1       1.058  10.350  18.453  0.00  0.00    +0.000 A 
ATOM     24  C   UNL     1       1.039  11.313  19.471  0.00  0.00    +0.000 A 
ATOM     25  C   UNL     1      -0.174  11.848  19.914  0.00  0.00    +0.000 A 
ATOM     26  C   UNL     1      -1.378  11.438  19.343  0.00  0.00    +0.000 A 
ATOM     27  C   UNL     1      -1.373  10.431  18.379  0.00  0.00    +0.000 A 
ATOM     28  C   UNL     1      -0.162   9.886  17.941  0.00  0.00    +0.000 A 
BRANCH  26  29
ATOM     29  O   UNL     1      -2.498  12.062  19.820  0.00  0.00    +0.000 OA
ATOM     30  C   UNL     1      -3.653  11.949  18.993  0.00  0.00    +0.000 C 
ENDBRANCH  26  29
ENDBRANCH  22  23
ENDBRANCH   3  22
TORSDOF 10
ENDMDL
MODEL 9
REMARK VINA RESULT:      -6.1      2.132      4.680
REMARK  Name = 
REMARK  13 active torsions:
REMARK  status: ('A' for Active; 'I' for Inactive)
REMARK    1  A    between atoms: C_1  and  C_2
REMARK    2  A    between atoms: C_2  and  O_3
REMARK    3  A    between atoms: O_3  and  C_4
REMARK    4  A    between atoms: C_4  and  C_6
REMARK    5  A    between atoms: N_8  and  C_9
REMARK    6  A    between atoms: C_9  and  C_10
REMARK    7  A    between atoms: C_13  and  O_14
REMARK    8  A    between atoms: O_14  and  C_15
REMARK    9  A    between atoms: C_19  and  C_20
REMARK   10  A    between atoms: C_20  and  O_22
REMARK   11  A    between atoms: O_22  and  C_23
REMARK   12  A    between atoms: C_23  and  C_24
REMARK   13  A    between atoms: C_25  and  C_26
REMARK                            x       y       z     vdW  Elec       q    Type
REMARK                         _______ _______ _______ _____ _____    ______ ____
ROOT
ATOM      1  C   UNL     1       2.090   4.705  18.433  0.00  0.00    +0.000 C 
ATOM      2  C   UNL     1       1.824   6.027  18.412  0.00  0.00    +0.000 C 
ATOM      3  N   UNL     1       2.721   6.997  17.987  0.00  0.00    +0.000 N 
ATOM      4  C   UNL     1       4.021   6.601  17.708  0.00  0.00    +0.000 C 
ATOM      5  C   UNL     1       4.423   5.311  17.669  0.00  0.00    +0.000 C 
ATOM      6  C   UNL     1       3.437   4.170  17.916  0.00  0.00    +0.000 C 
ENDROOT
BRANCH   6   7
ATOM      7  C   UNL     1       4.004   3.008  18.719  0.00  0.00    +0.000 A 
ATOM      8  C   UNL     1       4.680   3.071  19.929  0.00  0.00    +0.000 A 
ATOM      9  C   UNL     1       5.072   1.785  20.395  0.00  0.00    +0.000 A 
ATOM     10  C   UNL     1       4.685   0.784  19.533  0.00  0.00    +0.000 A 
ATOM     11  S   UNL     1       3.847   1.391  18.168  0.00  0.00    +0.000 S 
ENDBRANCH   6   7
BRANCH   1  12
ATOM     12  C   UNL     1       1.035   3.780  18.901  0.00  0.00    +0.000 C 
ATOM     13  O   UNL     1       0.589   2.853  18.245  0.00  0.00    +0.000 OA
BRANCH  12  14
ATOM     14  O   UNL     1       0.637   4.125  20.156  0.00  0.00    +0.000 OA
BRANCH  14  16
ATOM     15  C   UNL     1       1.541   2.493  21.684  0.00  0.00    +0.000 C 
ATOM     16  C   UNL     1       1.574   3.935  21.220  0.00  0.00    +0.000 C 
ENDBRANCH  14  16
ENDBRANCH  12  14
ENDBRANCH   1  12
BRANCH   5  17
ATOM     17  C   UNL     1       5.838   5.113  17.310  0.00  0.00    +0.000 C 
ATOM     18  O   UNL     1       6.764   5.714  17.839  0.00  0.00    +0.000 OA
BRANCH  17  19
ATOM     19  O   UNL     1       5.947   4.309  16.224  0.00  0.00    +0.000 OA
BRANCH  19  20
ATOM     20  C   UNL     1       5.946   5.002  14.966  0.00  0.00    +0.000 C 
ATOM     21  C   UNL     1       6.080   3.954  13.878  0.00  0.00    +0.000 C 
ENDBRANCH  19  20
ENDBRANCH  17  19
ENDBRANCH   5  17
BRANCH   3  22
ATOM     22  C   UNL     1       2.261   8.363  17.704  0.00  0.00    +0.000 C 
BRANCH  22  23
ATOM     23  C   UNL     1       1.683   9.071  18.906  0.00  0.00    +0.000 A 
ATOM     24  C   UNL     1       1.115  10.345  18.775  0.00  0.00    +0.000 A 
ATOM     25  C   UNL     1       0.464  10.943  19.857  0.00  0.00    +0.000 A 
ATOM     26  C   UNL     1       0.363  10.276  21.078  0.00  0.00    +0.000 A 
ATOM     27  C   UNL     1       0.985   9.039  21.238  0.00  0.00    +0.000 A 
ATOM     28  C   UNL     1       1.646   8.443  20.160  0.00  0.00    +0.000 A 
BRANCH  26  29
ATOM     29  O   UNL     1      -0.336  10.934  22.052  0.00  0.00    +0.000 OA
ATOM     30  C   UNL     1      -0.750  12.255  21.715  0.00  0.00    +0.000 C 
ENDBRANCH  26  29
ENDBRANCH  22  23
ENDBRANCH   3  22
TORSDOF 10
ENDMDL
