MODEL 1
REMARK VINA RESULT:      -9.0      0.000      0.000
REMARK  Name = 
REMARK  8 active torsions:
REMARK  status: ('A' for Active; 'I' for Inactive)
REMARK    1  A    between atoms: C_1  and  C_2
REMARK    2  A    between atoms: C_6  and  C_7
REMARK    3  A    between atoms: C_7  and  N_8
REMARK    4  A    between atoms: C_9  and  S_10
REMARK    5  A    between atoms: S_10  and  C_11
REMARK    6  A    between atoms: C_11  and  C_12
REMARK    7  A    between atoms: C_15  and  C_16
REMARK    8  A    between atoms: N_18  and  C_19
REMARK                            x       y       z     vdW  Elec       q    Type
REMARK                         _______ _______ _______ _____ _____    ______ ____
ROOT
ATOM      1  S   UNL     1       2.488   8.146  18.030  0.00  0.00    +0.000 S 
ENDROOT
BRANCH   1   3
ATOM      2  N   UNL     1       3.376   5.590  18.406  0.00  0.00    +0.000 N 
ATOM      3  C   UNL     1       2.574   6.613  18.842  0.00  0.00    +0.000 A 
ATOM      4  N   UNL     1       1.986   6.309  19.987  0.00  0.00    +0.000 NA
ATOM      5  C   UNL     1       2.360   5.011  20.254  0.00  0.00    +0.000 A 
ATOM      6  C   UNL     1       2.000   4.181  21.319  0.00  0.00    +0.000 A 
ATOM      7  C   UNL     1       2.489   2.885  21.266  0.00  0.00    +0.000 A 
ATOM      8  N   UNL     1       3.287   2.400  20.288  0.00  0.00    +0.000 NA
ATOM      9  C   UNL     1       3.669   3.214  19.279  0.00  0.00    +0.000 A 
ATOM     10  C   UNL     1       3.205   4.528  19.267  0.00  0.00    +0.000 A 
BRANCH   2  11
ATOM     11  C   UNL     1       4.308   5.616  17.283  0.00  0.00    +0.000 C 
BRANCH  11  17
ATOM     12  C   UNL     1       8.434   5.350  20.184  0.00  0.00    +0.000 C 
ATOM     13  C   UNL     1       7.696   6.005  19.053  0.00  0.00    +0.000 A 
ATOM     14  C   UNL     1       8.171   7.167  18.439  0.00  0.00    +0.000 A 
ATOM     15  C   UNL     1       7.425   7.781  17.434  0.00  0.00    +0.000 A 
ATOM     16  C   UNL     1       6.187   7.256  17.056  0.00  0.00    +0.000 A 
ATOM     17  C   UNL     1       5.692   6.087  17.654  0.00  0.00    +0.000 A 
ATOM     18  C   UNL     1       6.473   5.463  18.637  0.00  0.00    +0.000 A 
ENDBRANCH  11  17
ENDBRANCH   2  11
ENDBRANCH   1   3
BRANCH   1  19
ATOM     19  C   UNL     1       1.664   9.251  19.212  0.00  0.00    +0.000 C 
BRANCH  19  20
ATOM     20  C   UNL     1       0.274   9.757  18.861  0.00  0.00    +0.000 A 
ATOM     21  C   UNL     1      -0.396  10.574  19.772  0.00  0.00    +0.000 A 
ATOM     22  C   UNL     1      -1.663  11.106  19.466  0.00  0.00    +0.000 A 
ATOM     23  C   UNL     1      -2.284  10.861  18.230  0.00  0.00    +0.000 A 
ATOM     24  C   UNL     1      -1.615  10.058  17.311  0.00  0.00    +0.000 A 
ATOM     25  C   UNL     1      -0.363   9.530  17.630  0.00  0.00    +0.000 A 
BRANCH  23  26
ATOM     26  C   UNL     1      -3.626  11.473  17.982  0.00  0.00    +0.000 C 
ATOM     27  O   UNL     1      -4.013  11.595  16.815  0.00  0.00    +0.000 OA
ATOM     28  N   UNL     1      -4.406  11.886  19.057  0.00  0.00    +0.000 N 
ATOM     29  H   UNL     1      -4.176  11.576  19.990  0.00  0.00    +0.000 HD
BRANCH  28  30
ATOM     30  C   UNL     1      -5.748  12.434  18.834  0.00  0.00    +0.000 C 
ATOM     31  C   UNL     1      -6.782  11.309  18.681  0.00  0.00    +0.000 C 
ATOM     32  C   UNL     1      -7.210  10.710  20.019  0.00  0.00    +0.000 C 
ATOM     33  C   UNL     1      -7.735  11.784  20.963  0.00  0.00    +0.000 C 
ATOM     34  C   UNL     1      -6.680  12.857  21.206  0.00  0.00    +0.000 C 
ATOM     35  C   UNL     1      -6.167  13.460  19.901  0.00  0.00    +0.000 C 
ENDBRANCH  28  30
ENDBRANCH  23  26
ENDBRANCH  19  20
ENDBRANCH   1  19
TORSDOF 7
ENDMDL
MODEL 2
REMARK VINA RESULT:      -8.9      2.584      3.359
REMARK  Name = 
REMARK  8 active torsions:
REMARK  status: ('A' for Active; 'I' for Inactive)
REMARK    1  A    between atoms: C_1  and  C_2
REMARK    2  A    between atoms: C_6  and  C_7
REMARK    3  A    between atoms: C_7  and  N_8
REMARK    4  A    between atoms: C_9  and  S_10
REMARK    5  A    between atoms: S_10  and  C_11
REMARK    6  A    between atoms: C_11  and  C_12
REMARK    7  A    between atoms: C_15  and  C_16
REMARK    8  A    between atoms: N_18  and  C_19
REMARK                            x       y       z     vdW  Elec       q    Type
REMARK                         _______ _______ _______ _____ _____    ______ ____
ROOT
ATOM      1  S   UNL     1       3.054   8.038  17.938  0.00  0.00    +0.000 S 
ENDROOT
BRANCH   1   3
ATOM      2  N   UNL     1       3.488   5.366  17.563  0.00  0.00    +0.000 N 
ATOM      3  C   UNL     1       2.734   6.345  18.158  0.00  0.00    +0.000 A 
ATOM      4  N   UNL     1       1.834   5.828  18.979  0.00  0.00    +0.000 NA
ATOM      5  C   UNL     1       1.960   4.464  18.843  0.00  0.00    +0.000 A 
ATOM      6  C   UNL     1       1.234   3.436  19.450  0.00  0.00    +0.000 A 
ATOM      7  C   UNL     1       1.554   2.149  19.046  0.00  0.00    +0.000 A 
ATOM      8  N   UNL     1       2.513   1.839  18.144  0.00  0.00    +0.000 NA
ATOM      9  C   UNL     1       3.244   2.831  17.586  0.00  0.00    +0.000 A 
ATOM     10  C   UNL     1       2.967   4.149  17.942  0.00  0.00    +0.000 A 
BRANCH   2  11
ATOM     11  C   UNL     1       4.676   5.548  16.736  0.00  0.00    +0.000 C 
BRANCH  11  17
ATOM     12  C   UNL     1       8.283   8.968  17.636  0.00  0.00    +0.000 C 
ATOM     13  C   UNL     1       7.662   7.640  17.954  0.00  0.00    +0.000 A 
ATOM     14  C   UNL     1       8.271   6.730  18.821  0.00  0.00    +0.000 A 
ATOM     15  C   UNL     1       7.694   5.481  19.043  0.00  0.00    +0.000 A 
ATOM     16  C   UNL     1       6.520   5.121  18.377  0.00  0.00    +0.000 A 
ATOM     17  C   UNL     1       5.886   6.020  17.506  0.00  0.00    +0.000 A 
ATOM     18  C   UNL     1       6.461   7.285  17.324  0.00  0.00    +0.000 A 
ENDBRANCH  11  17
ENDBRANCH   2  11
ENDBRANCH   1   3
BRANCH   1  19
ATOM     19  C   UNL     1       1.424   8.786  17.654  0.00  0.00    +0.000 C 
BRANCH  19  20
ATOM     20  C   UNL     1       0.720   9.423  18.841  0.00  0.00    +0.000 A 
ATOM     21  C   UNL     1       1.151   9.108  20.130  0.00  0.00    +0.000 A 
ATOM     22  C   UNL     1       0.562   9.713  21.255  0.00  0.00    +0.000 A 
ATOM     23  C   UNL     1      -0.456  10.673  21.125  0.00  0.00    +0.000 A 
ATOM     24  C   UNL     1      -0.881  11.004  19.841  0.00  0.00    +0.000 A 
ATOM     25  C   UNL     1      -0.294  10.389  18.734  0.00  0.00    +0.000 A 
BRANCH  23  26
ATOM     26  C   UNL     1      -1.022  11.276  22.371  0.00  0.00    +0.000 C 
ATOM     27  O   UNL     1      -0.728  10.767  23.459  0.00  0.00    +0.000 OA
ATOM     28  N   UNL     1      -1.857  12.384  22.284  0.00  0.00    +0.000 N 
ATOM     29  H   UNL     1      -1.900  12.911  21.424  0.00  0.00    +0.000 HD
BRANCH  28  30
ATOM     30  C   UNL     1      -2.373  13.023  23.500  0.00  0.00    +0.000 C 
ATOM     31  C   UNL     1      -2.380  14.551  23.357  0.00  0.00    +0.000 C 
ATOM     32  C   UNL     1      -3.563  15.066  22.540  0.00  0.00    +0.000 C 
ATOM     33  C   UNL     1      -4.886  14.585  23.122  0.00  0.00    +0.000 C 
ATOM     34  C   UNL     1      -4.935  13.063  23.175  0.00  0.00    +0.000 C 
ATOM     35  C   UNL     1      -3.745  12.479  23.933  0.00  0.00    +0.000 C 
ENDBRANCH  28  30
ENDBRANCH  23  26
ENDBRANCH  19  20
ENDBRANCH   1  19
TORSDOF 7
ENDMDL
MODEL 3
REMARK VINA RESULT:      -8.8      2.243      2.857
REMARK  Name = 
REMARK  8 active torsions:
REMARK  status: ('A' for Active; 'I' for Inactive)
REMARK    1  A    between atoms: C_1  and  C_2
REMARK    2  A    between atoms: C_6  and  C_7
REMARK    3  A    between atoms: C_7  and  N_8
REMARK    4  A    between atoms: C_9  and  S_10
REMARK    5  A    between atoms: S_10  and  C_11
REMARK    6  A    between atoms: C_11  and  C_12
REMARK    7  A    between atoms: C_15  and  C_16
REMARK    8  A    between atoms: N_18  and  C_19
REMARK                            x       y       z     vdW  Elec       q    Type
REMARK                         _______ _______ _______ _____ _____    ______ ____
ROOT
ATOM      1  S   UNL     1       1.943   8.258  19.960  0.00  0.00    +0.000 S 
ENDROOT
BRANCH   1   3
ATOM      2  N   UNL     1       2.521   5.938  18.638  0.00  0.00    +0.000 N 
ATOM      3  C   UNL     1       1.912   6.540  19.709  0.00  0.00    +0.000 A 
ATOM      4  N   UNL     1       1.416   5.644  20.546  0.00  0.00    +0.000 NA
ATOM      5  C   UNL     1       1.641   4.424  19.948  0.00  0.00    +0.000 A 
ATOM      6  C   UNL     1       1.290   3.142  20.378  0.00  0.00    +0.000 A 
ATOM      7  C   UNL     1       1.595   2.108  19.507  0.00  0.00    +0.000 A 
ATOM      8  N   UNL     1       2.214   2.260  18.314  0.00  0.00    +0.000 NA
ATOM      9  C   UNL     1       2.590   3.496  17.915  0.00  0.00    +0.000 A 
ATOM     10  C   UNL     1       2.305   4.582  18.741  0.00  0.00    +0.000 A 
BRANCH   2  11
ATOM     11  C   UNL     1       3.324   6.583  17.603  0.00  0.00    +0.000 C 
BRANCH  11  17
ATOM     12  C   UNL     1       7.981   5.655  19.324  0.00  0.00    +0.000 C 
ATOM     13  C   UNL     1       6.968   5.533  18.224  0.00  0.00    +0.000 A 
ATOM     14  C   UNL     1       7.306   5.034  16.963  0.00  0.00    +0.000 A 
ATOM     15  C   UNL     1       6.352   4.994  15.948  0.00  0.00    +0.000 A 
ATOM     16  C   UNL     1       5.062   5.479  16.176  0.00  0.00    +0.000 A 
ATOM     17  C   UNL     1       4.697   5.979  17.435  0.00  0.00    +0.000 A 
ATOM     18  C   UNL     1       5.659   5.978  18.454  0.00  0.00    +0.000 A 
ENDBRANCH  11  17
ENDBRANCH   2  11
ENDBRANCH   1   3
BRANCH   1  19
ATOM     19  C   UNL     1       1.286   8.494  21.636  0.00  0.00    +0.000 C 
BRANCH  19  20
ATOM     20  C   UNL     1       0.278   9.611  21.853  0.00  0.00    +0.000 A 
ATOM     21  C   UNL     1      -0.148  10.356  20.753  0.00  0.00    +0.000 A 
ATOM     22  C   UNL     1      -1.119  11.366  20.899  0.00  0.00    +0.000 A 
ATOM     23  C   UNL     1      -1.711  11.641  22.142  0.00  0.00    +0.000 A 
ATOM     24  C   UNL     1      -1.301  10.891  23.241  0.00  0.00    +0.000 A 
ATOM     25  C   UNL     1      -0.332   9.899  23.084  0.00  0.00    +0.000 A 
BRANCH  23  26
ATOM     26  C   UNL     1      -2.741  12.724  22.209  0.00  0.00    +0.000 C 
ATOM     27  O   UNL     1      -2.361  13.895  22.311  0.00  0.00    +0.000 OA
ATOM     28  N   UNL     1      -4.091  12.396  22.154  0.00  0.00    +0.000 N 
ATOM     29  H   UNL     1      -4.370  11.475  21.849  0.00  0.00    +0.000 HD
BRANCH  28  30
ATOM     30  C   UNL     1      -5.113  13.448  22.160  0.00  0.00    +0.000 C 
ATOM     31  C   UNL     1      -6.222  13.142  21.144  0.00  0.00    +0.000 C 
ATOM     32  C   UNL     1      -7.229  12.114  21.655  0.00  0.00    +0.000 C 
ATOM     33  C   UNL     1      -7.835  12.548  22.983  0.00  0.00    +0.000 C 
ATOM     34  C   UNL     1      -6.750  12.757  24.034  0.00  0.00    +0.000 C 
ATOM     35  C   UNL     1      -5.678  13.736  23.561  0.00  0.00    +0.000 C 
ENDBRANCH  28  30
ENDBRANCH  23  26
ENDBRANCH  19  20
ENDBRANCH   1  19
TORSDOF 7
ENDMDL
MODEL 4
REMARK VINA RESULT:      -8.6      2.579      3.268
REMARK  Name = 
REMARK  8 active torsions:
REMARK  status: ('A' for Active; 'I' for Inactive)
REMARK    1  A    between atoms: C_1  and  C_2
REMARK    2  A    between atoms: C_6  and  C_7
REMARK    3  A    between atoms: C_7  and  N_8
REMARK    4  A    between atoms: C_9  and  S_10
REMARK    5  A    between atoms: S_10  and  C_11
REMARK    6  A    between atoms: C_11  and  C_12
REMARK    7  A    between atoms: C_15  and  C_16
REMARK    8  A    between atoms: N_18  and  C_19
REMARK                            x       y       z     vdW  Elec       q    Type
REMARK                         _______ _______ _______ _____ _____    ______ ____
ROOT
ATOM      1  S   UNL     1       3.223   7.951  17.875  0.00  0.00    +0.000 S 
ENDROOT
BRANCH   1   3
ATOM      2  N   UNL     1       3.678   5.275  17.571  0.00  0.00    +0.000 N 
ATOM      3  C   UNL     1       2.953   6.264  18.184  0.00  0.00    +0.000 A 
ATOM      4  N   UNL     1       2.128   5.765  19.090  0.00  0.00    +0.000 NA
ATOM      5  C   UNL     1       2.270   4.399  18.997  0.00  0.00    +0.000 A 
ATOM      6  C   UNL     1       1.612   3.384  19.697  0.00  0.00    +0.000 A 
ATOM      7  C   UNL     1       1.925   2.088  19.319  0.00  0.00    +0.000 A 
ATOM      8  N   UNL     1       2.819   1.758  18.359  0.00  0.00    +0.000 NA
ATOM      9  C   UNL     1       3.486   2.738  17.710  0.00  0.00    +0.000 A 
ATOM     10  C   UNL     1       3.212   4.065  18.035  0.00  0.00    +0.000 A 
BRANCH   2  11
ATOM     11  C   UNL     1       4.797   5.443  16.649  0.00  0.00    +0.000 C 
BRANCH  11  17
ATOM     12  C   UNL     1       8.307   5.312  20.279  0.00  0.00    +0.000 C 
ATOM     13  C   UNL     1       7.746   5.975  19.056  0.00  0.00    +0.000 A 
ATOM     14  C   UNL     1       8.231   7.201  18.594  0.00  0.00    +0.000 A 
ATOM     15  C   UNL     1       7.642   7.816  17.491  0.00  0.00    +0.000 A 
ATOM     16  C   UNL     1       6.545   7.225  16.859  0.00  0.00    +0.000 A 
ATOM     17  C   UNL     1       6.043   5.991  17.301  0.00  0.00    +0.000 A 
ATOM     18  C   UNL     1       6.672   5.370  18.389  0.00  0.00    +0.000 A 
ENDBRANCH  11  17
ENDBRANCH   2  11
ENDBRANCH   1   3
BRANCH   1  19
ATOM     19  C   UNL     1       1.567   8.645  17.605  0.00  0.00    +0.000 C 
BRANCH  19  20
ATOM     20  C   UNL     1       0.859   9.274  18.794  0.00  0.00    +0.000 A 
ATOM     21  C   UNL     1       1.296   8.962  20.081  0.00  0.00    +0.000 A 
ATOM     22  C   UNL     1       0.703   9.561  21.209  0.00  0.00    +0.000 A 
ATOM     23  C   UNL     1      -0.325  10.511  21.081  0.00  0.00    +0.000 A 
ATOM     24  C   UNL     1      -0.756  10.838  19.799  0.00  0.00    +0.000 A 
ATOM     25  C   UNL     1      -0.165  10.229  18.690  0.00  0.00    +0.000 A 
BRANCH  23  26
ATOM     26  C   UNL     1      -0.893  11.106  22.330  0.00  0.00    +0.000 C 
ATOM     27  O   UNL     1      -0.433  10.748  23.419  0.00  0.00    +0.000 OA
ATOM     28  N   UNL     1      -1.917  12.043  22.243  0.00  0.00    +0.000 N 
ATOM     29  H   UNL     1      -2.119  12.482  21.356  0.00  0.00    +0.000 HD
BRANCH  28  30
ATOM     30  C   UNL     1      -2.447  12.680  23.453  0.00  0.00    +0.000 C 
ATOM     31  C   UNL     1      -1.778  14.041  23.695  0.00  0.00    +0.000 C 
ATOM     32  C   UNL     1      -2.353  15.150  22.817  0.00  0.00    +0.000 C 
ATOM     33  C   UNL     1      -3.861  15.266  22.991  0.00  0.00    +0.000 C 
ATOM     34  C   UNL     1      -4.550  13.948  22.654  0.00  0.00    +0.000 C 
ATOM     35  C   UNL     1      -3.982  12.784  23.461  0.00  0.00    +0.000 C 
ENDBRANCH  28  30
ENDBRANCH  23  26
ENDBRANCH  19  20
ENDBRANCH   1  19
TORSDOF 7
ENDMDL
MODEL 5
REMARK VINA RESULT:      -8.6      2.795     11.481
REMARK  Name = 
REMARK  8 active torsions:
REMARK  status: ('A' for Active; 'I' for Inactive)
REMARK    1  A    between atoms: C_1  and  C_2
REMARK    2  A    between atoms: C_6  and  C_7
REMARK    3  A    between atoms: C_7  and  N_8
REMARK    4  A    between atoms: C_9  and  S_10
REMARK    5  A    between atoms: S_10  and  C_11
REMARK    6  A    between atoms: C_11  and  C_12
REMARK    7  A    between atoms: C_15  and  C_16
REMARK    8  A    between atoms: N_18  and  C_19
REMARK                            x       y       z     vdW  Elec       q    Type
REMARK                         _______ _______ _______ _____ _____    ______ ____
ROOT
ATOM      1  S   UNL     1      -0.630  11.862  20.622  0.00  0.00    +0.000 S 
ENDROOT
BRANCH   1   3
ATOM      2  N   UNL     1      -3.182  12.643  20.041  0.00  0.00    +0.000 N 
ATOM      3  C   UNL     1      -2.109  11.854  19.713  0.00  0.00    +0.000 A 
ATOM      4  N   UNL     1      -2.322  11.197  18.585  0.00  0.00    +0.000 NA
ATOM      5  C   UNL     1      -3.611  11.513  18.218  0.00  0.00    +0.000 A 
ATOM      6  C   UNL     1      -4.360  11.069  17.125  0.00  0.00    +0.000 A 
ATOM      7  C   UNL     1      -5.671  11.516  17.071  0.00  0.00    +0.000 A 
ATOM      8  N   UNL     1      -6.242  12.348  17.972  0.00  0.00    +0.000 NA
ATOM      9  C   UNL     1      -5.505  12.810  19.007  0.00  0.00    +0.000 A 
ATOM     10  C   UNL     1      -4.181  12.392  19.126  0.00  0.00    +0.000 A 
BRANCH   2  11
ATOM     11  C   UNL     1      -3.256  13.633  21.110  0.00  0.00    +0.000 C 
BRANCH  11  17
ATOM     12  C   UNL     1      -7.396  13.376  23.991  0.00  0.00    +0.000 C 
ATOM     13  C   UNL     1      -5.955  13.018  23.775  0.00  0.00    +0.000 A 
ATOM     14  C   UNL     1      -5.194  12.395  24.768  0.00  0.00    +0.000 A 
ATOM     15  C   UNL     1      -3.842  12.136  24.552  0.00  0.00    +0.000 A 
ATOM     16  C   UNL     1      -3.233  12.523  23.356  0.00  0.00    +0.000 A 
ATOM     17  C   UNL     1      -3.978  13.145  22.342  0.00  0.00    +0.000 A 
ATOM     18  C   UNL     1      -5.345  13.364  22.562  0.00  0.00    +0.000 A 
ENDBRANCH  11  17
ENDBRANCH   2  11
ENDBRANCH   1   3
BRANCH   1  19
ATOM     19  C   UNL     1       0.670  11.542  19.396  0.00  0.00    +0.000 C 
BRANCH  19  20
ATOM     20  C   UNL     1       1.173  10.115  19.249  0.00  0.00    +0.000 A 
ATOM     21  C   UNL     1       1.738   9.721  18.036  0.00  0.00    +0.000 A 
ATOM     22  C   UNL     1       2.262   8.425  17.873  0.00  0.00    +0.000 A 
ATOM     23  C   UNL     1       2.263   7.494  18.926  0.00  0.00    +0.000 A 
ATOM     24  C   UNL     1       1.714   7.886  20.144  0.00  0.00    +0.000 A 
ATOM     25  C   UNL     1       1.190   9.172  20.289  0.00  0.00    +0.000 A 
BRANCH  23  26
ATOM     26  C   UNL     1       2.849   6.142  18.672  0.00  0.00    +0.000 C 
ATOM     27  O   UNL     1       2.108   5.155  18.742  0.00  0.00    +0.000 OA
ATOM     28  N   UNL     1       4.199   6.022  18.364  0.00  0.00    +0.000 N 
ATOM     29  H   UNL     1       4.725   6.840  18.093  0.00  0.00    +0.000 HD
BRANCH  28  30
ATOM     30  C   UNL     1       4.777   4.709  18.054  0.00  0.00    +0.000 C 
ATOM     31  C   UNL     1       4.492   4.313  16.599  0.00  0.00    +0.000 C 
ATOM     32  C   UNL     1       5.426   4.998  15.603  0.00  0.00    +0.000 C 
ATOM     33  C   UNL     1       6.886   4.735  15.945  0.00  0.00    +0.000 C 
ATOM     34  C   UNL     1       7.211   5.219  17.354  0.00  0.00    +0.000 C 
ATOM     35  C   UNL     1       6.274   4.612  18.396  0.00  0.00    +0.000 C 
ENDBRANCH  28  30
ENDBRANCH  23  26
ENDBRANCH  19  20
ENDBRANCH   1  19
TORSDOF 7
ENDMDL
MODEL 6
REMARK VINA RESULT:      -8.6      2.411      3.104
REMARK  Name = 
REMARK  8 active torsions:
REMARK  status: ('A' for Active; 'I' for Inactive)
REMARK    1  A    between atoms: C_1  and  C_2
REMARK    2  A    between atoms: C_6  and  C_7
REMARK    3  A    between atoms: C_7  and  N_8
REMARK    4  A    between atoms: C_9  and  S_10
REMARK    5  A    between atoms: S_10  and  C_11
REMARK    6  A    between atoms: C_11  and  C_12
REMARK    7  A    between atoms: C_15  and  C_16
REMARK    8  A    between atoms: N_18  and  C_19
REMARK                            x       y       z     vdW  Elec       q    Type
REMARK                         _______ _______ _______ _____ _____    ______ ____
ROOT
ATOM      1  S   UNL     1       1.984   8.261  20.041  0.00  0.00    +0.000 S 
ENDROOT
BRANCH   1   3
ATOM      2  N   UNL     1       2.518   5.873  18.828  0.00  0.00    +0.000 N 
ATOM      3  C   UNL     1       1.982   6.530  19.905  0.00  0.00    +0.000 A 
ATOM      4  N   UNL     1       1.580   5.680  20.836  0.00  0.00    +0.000 NA
ATOM      5  C   UNL     1       1.791   4.429  20.302  0.00  0.00    +0.000 A 
ATOM      6  C   UNL     1       1.512   3.171  20.841  0.00  0.00    +0.000 A 
ATOM      7  C   UNL     1       1.775   2.088  20.016  0.00  0.00    +0.000 A 
ATOM      8  N   UNL     1       2.290   2.175  18.769  0.00  0.00    +0.000 NA
ATOM      9  C   UNL     1       2.598   3.390  18.262  0.00  0.00    +0.000 A 
ATOM     10  C   UNL     1       2.350   4.521  19.036  0.00  0.00    +0.000 A 
BRANCH   2  11
ATOM     11  C   UNL     1       3.215   6.464  17.690  0.00  0.00    +0.000 C 
BRANCH  11  17
ATOM     12  C   UNL     1       6.702   4.095  14.909  0.00  0.00    +0.000 C 
ATOM     13  C   UNL     1       6.325   4.776  16.191  0.00  0.00    +0.000 A 
ATOM     14  C   UNL     1       7.177   4.786  17.298  0.00  0.00    +0.000 A 
ATOM     15  C   UNL     1       6.765   5.375  18.493  0.00  0.00    +0.000 A 
ATOM     16  C   UNL     1       5.489   5.933  18.598  0.00  0.00    +0.000 A 
ATOM     17  C   UNL     1       4.617   5.941  17.498  0.00  0.00    +0.000 A 
ATOM     18  C   UNL     1       5.063   5.376  16.295  0.00  0.00    +0.000 A 
ENDBRANCH  11  17
ENDBRANCH   2  11
ENDBRANCH   1   3
BRANCH   1  19
ATOM     19  C   UNL     1       1.354   8.597  21.711  0.00  0.00    +0.000 C 
BRANCH  19  20
ATOM     20  C   UNL     1       0.288   9.669  21.865  0.00  0.00    +0.000 A 
ATOM     21  C   UNL     1      -0.419   9.748  23.066  0.00  0.00    +0.000 A 
ATOM     22  C   UNL     1      -1.379  10.757  23.271  0.00  0.00    +0.000 A 
ATOM     23  C   UNL     1      -1.641  11.733  22.295  0.00  0.00    +0.000 A 
ATOM     24  C   UNL     1      -0.928  11.668  21.100  0.00  0.00    +0.000 A 
ATOM     25  C   UNL     1       0.015  10.657  20.906  0.00  0.00    +0.000 A 
BRANCH  23  26
ATOM     26  C   UNL     1      -2.669  12.775  22.597  0.00  0.00    +0.000 C 
ATOM     27  O   UNL     1      -2.289  13.920  22.866  0.00  0.00    +0.000 OA
ATOM     28  N   UNL     1      -4.019  12.442  22.568  0.00  0.00    +0.000 N 
ATOM     29  H   UNL     1      -4.311  11.579  22.133  0.00  0.00    +0.000 HD
BRANCH  28  30
ATOM     30  C   UNL     1      -5.043  13.465  22.805  0.00  0.00    +0.000 C 
ATOM     31  C   UNL     1      -5.738  13.859  21.494  0.00  0.00    +0.000 C 
ATOM     32  C   UNL     1      -6.798  12.850  21.057  0.00  0.00    +0.000 C 
ATOM     33  C   UNL     1      -7.829  12.623  22.154  0.00  0.00    +0.000 C 
ATOM     34  C   UNL     1      -7.163  12.131  23.434  0.00  0.00    +0.000 C 
ATOM     35  C   UNL     1      -6.052  13.070  23.896  0.00  0.00    +0.000 C 
ENDBRANCH  28  30
ENDBRANCH  23  26
ENDBRANCH  19  20
ENDBRANCH   1  19
TORSDOF 7
ENDMDL
MODEL 7
REMARK VINA RESULT:      -8.5      1.752      3.863
REMARK  Name = 
REMARK  8 active torsions:
REMARK  status: ('A' for Active; 'I' for Inactive)
REMARK    1  A    between atoms: C_1  and  C_2
REMARK    2  A    between atoms: C_6  and  C_7
REMARK    3  A    between atoms: C_7  and  N_8
REMARK    4  A    between atoms: C_9  and  S_10
REMARK    5  A    between atoms: S_10  and  C_11
REMARK    6  A    between atoms: C_11  and  C_12
REMARK    7  A    between atoms: C_15  and  C_16
REMARK    8  A    between atoms: N_18  and  C_19
REMARK                            x       y       z     vdW  Elec       q    Type
REMARK                         _______ _______ _______ _____ _____    ______ ____
ROOT
ATOM      1  S   UNL     1       1.979   7.774  19.027  0.00  0.00    +0.000 S 
ENDROOT
BRANCH   1   3
ATOM      2  N   UNL     1       3.036   5.596  17.761  0.00  0.00    +0.000 N 
ATOM      3  C   UNL     1       3.151   6.928  18.064  0.00  0.00    +0.000 A 
ATOM      4  N   UNL     1       4.187   7.474  17.448  0.00  0.00    +0.000 NA
ATOM      5  C   UNL     1       4.807   6.436  16.790  0.00  0.00    +0.000 A 
ATOM      6  C   UNL     1       5.968   6.440  16.012  0.00  0.00    +0.000 A 
ATOM      7  C   UNL     1       6.383   5.204  15.540  0.00  0.00    +0.000 A 
ATOM      8  N   UNL     1       5.738   4.036  15.762  0.00  0.00    +0.000 NA
ATOM      9  C   UNL     1       4.592   4.037  16.480  0.00  0.00    +0.000 A 
ATOM     10  C   UNL     1       4.124   5.246  16.992  0.00  0.00    +0.000 A 
BRANCH   2  11
ATOM     11  C   UNL     1       1.934   4.704  18.109  0.00  0.00    +0.000 C 
BRANCH  11  17
ATOM     12  C   UNL     1       4.709   1.577  20.944  0.00  0.00    +0.000 C 
ATOM     13  C   UNL     1       3.464   2.397  20.775  0.00  0.00    +0.000 A 
ATOM     14  C   UNL     1       2.407   2.327  21.686  0.00  0.00    +0.000 A 
ATOM     15  C   UNL     1       1.241   3.057  21.461  0.00  0.00    +0.000 A 
ATOM     16  C   UNL     1       1.110   3.838  20.310  0.00  0.00    +0.000 A 
ATOM     17  C   UNL     1       2.160   3.928  19.383  0.00  0.00    +0.000 A 
ATOM     18  C   UNL     1       3.339   3.216  19.645  0.00  0.00    +0.000 A 
ENDBRANCH  11  17
ENDBRANCH   2  11
ENDBRANCH   1   3
BRANCH   1  19
ATOM     19  C   UNL     1       1.868   9.424  18.278  0.00  0.00    +0.000 C 
BRANCH  19  20
ATOM     20  C   UNL     1       0.487  10.037  18.113  0.00  0.00    +0.000 A 
ATOM     21  C   UNL     1      -0.471   9.350  17.365  0.00  0.00    +0.000 A 
ATOM     22  C   UNL     1      -1.777   9.855  17.229  0.00  0.00    +0.000 A 
ATOM     23  C   UNL     1      -2.174  11.047  17.860  0.00  0.00    +0.000 A 
ATOM     24  C   UNL     1      -1.228  11.730  18.620  0.00  0.00    +0.000 A 
ATOM     25  C   UNL     1       0.067  11.221  18.739  0.00  0.00    +0.000 A 
BRANCH  23  26
ATOM     26  C   UNL     1      -3.584  11.509  17.672  0.00  0.00    +0.000 C 
ATOM     27  O   UNL     1      -4.066  11.489  16.534  0.00  0.00    +0.000 OA
ATOM     28  N   UNL     1      -4.319  11.946  18.768  0.00  0.00    +0.000 N 
ATOM     29  H   UNL     1      -3.991  11.745  19.702  0.00  0.00    +0.000 HD
BRANCH  28  30
ATOM     30  C   UNL     1      -5.721  12.347  18.612  0.00  0.00    +0.000 C 
ATOM     31  C   UNL     1      -6.607  11.134  18.295  0.00  0.00    +0.000 C 
ATOM     32  C   UNL     1      -6.946  10.306  19.533  0.00  0.00    +0.000 C 
ATOM     33  C   UNL     1      -7.593  11.165  20.611  0.00  0.00    +0.000 C 
ATOM     34  C   UNL     1      -6.678  12.318  21.010  0.00  0.00    +0.000 C 
ATOM     35  C   UNL     1      -6.256  13.156  19.806  0.00  0.00    +0.000 C 
ENDBRANCH  28  30
ENDBRANCH  23  26
ENDBRANCH  19  20
ENDBRANCH   1  19
TORSDOF 7
ENDMDL
MODEL 8
REMARK VINA RESULT:      -8.5      2.037      2.695
REMARK  Name = 
REMARK  8 active torsions:
REMARK  status: ('A' for Active; 'I' for Inactive)
REMARK    1  A    between atoms: C_1  and  C_2
REMARK    2  A    between atoms: C_6  and  C_7
REMARK    3  A    between atoms: C_7  and  N_8
REMARK    4  A    between atoms: C_9  and  S_10
REMARK    5  A    between atoms: S_10  and  C_11
REMARK    6  A    between atoms: C_11  and  C_12
REMARK    7  A    between atoms: C_15  and  C_16
REMARK    8  A    between atoms: N_18  and  C_19
REMARK                            x       y       z     vdW  Elec       q    Type
REMARK                         _______ _______ _______ _____ _____    ______ ____
ROOT
ATOM      1  S   UNL     1       2.719   8.153  18.149  0.00  0.00    +0.000 S 
ENDROOT
BRANCH   1   3
ATOM      2  N   UNL     1       3.286   5.496  17.867  0.00  0.00    +0.000 N 
ATOM      3  C   UNL     1       2.525   6.459  18.477  0.00  0.00    +0.000 A 
ATOM      4  N   UNL     1       1.731   5.933  19.395  0.00  0.00    +0.000 NA
ATOM      5  C   UNL     1       1.930   4.574  19.314  0.00  0.00    +0.000 A 
ATOM      6  C   UNL     1       1.323   3.539  20.030  0.00  0.00    +0.000 A 
ATOM      7  C   UNL     1       1.688   2.254  19.661  0.00  0.00    +0.000 A 
ATOM      8  N   UNL     1       2.587   1.953  18.696  0.00  0.00    +0.000 NA
ATOM      9  C   UNL     1       3.205   2.955  18.031  0.00  0.00    +0.000 A 
ATOM     10  C   UNL     1       2.877   4.271  18.346  0.00  0.00    +0.000 A 
BRANCH   2  11
ATOM     11  C   UNL     1       4.388   5.703  16.932  0.00  0.00    +0.000 C 
BRANCH  11  17
ATOM     12  C   UNL     1       8.190   8.966  17.579  0.00  0.00    +0.000 C 
ATOM     13  C   UNL     1       7.550   7.652  17.919  0.00  0.00    +0.000 A 
ATOM     14  C   UNL     1       8.203   6.696  18.702  0.00  0.00    +0.000 A 
ATOM     15  C   UNL     1       7.602   5.462  18.945  0.00  0.00    +0.000 A 
ATOM     16  C   UNL     1       6.358   5.163  18.383  0.00  0.00    +0.000 A 
ATOM     17  C   UNL     1       5.681   6.109  17.598  0.00  0.00    +0.000 A 
ATOM     18  C   UNL     1       6.284   7.358  17.396  0.00  0.00    +0.000 A 
ENDBRANCH  11  17
ENDBRANCH   2  11
ENDBRANCH   1   3
BRANCH   1  19
ATOM     19  C   UNL     1       1.095   8.699  17.549  0.00  0.00    +0.000 C 
BRANCH  19  20
ATOM     20  C   UNL     1       0.358   9.755  18.357  0.00  0.00    +0.000 A 
ATOM     21  C   UNL     1       1.016  10.369  19.423  0.00  0.00    +0.000 A 
ATOM     22  C   UNL     1       0.390  11.387  20.166  0.00  0.00    +0.000 A 
ATOM     23  C   UNL     1      -0.901  11.842  19.847  0.00  0.00    +0.000 A 
ATOM     24  C   UNL     1      -1.558  11.245  18.775  0.00  0.00    +0.000 A 
ATOM     25  C   UNL     1      -0.928  10.229  18.052  0.00  0.00    +0.000 A 
BRANCH  23  26
ATOM     26  C   UNL     1      -1.490  12.936  20.681  0.00  0.00    +0.000 C 
ATOM     27  O   UNL     1      -1.094  14.093  20.503  0.00  0.00    +0.000 OA
ATOM     28  N   UNL     1      -2.461  12.633  21.629  0.00  0.00    +0.000 N 
ATOM     29  H   UNL     1      -2.924  11.737  21.601  0.00  0.00    +0.000 HD
BRANCH  28  30
ATOM     30  C   UNL     1      -3.091  13.701  22.414  0.00  0.00    +0.000 C 
ATOM     31  C   UNL     1      -4.506  13.998  21.901  0.00  0.00    +0.000 C 
ATOM     32  C   UNL     1      -5.540  12.983  22.386  0.00  0.00    +0.000 C 
ATOM     33  C   UNL     1      -5.540  12.879  23.905  0.00  0.00    +0.000 C 
ATOM     34  C   UNL     1      -4.163  12.483  24.424  0.00  0.00    +0.000 C 
ATOM     35  C   UNL     1      -3.072  13.429  23.928  0.00  0.00    +0.000 C 
ENDBRANCH  28  30
ENDBRANCH  23  26
ENDBRANCH  19  20
ENDBRANCH   1  19
TORSDOF 7
ENDMDL
MODEL 9
REMARK VINA RESULT:      -8.5      1.974      3.969
REMARK  Name = 
REMARK  8 active torsions:
REMARK  status: ('A' for Active; 'I' for Inactive)
REMARK    1  A    between atoms: C_1  and  C_2
REMARK    2  A    between atoms: C_6  and  C_7
REMARK    3  A    between atoms: C_7  and  N_8
REMARK    4  A    between atoms: C_9  and  S_10
REMARK    5  A    between atoms: S_10  and  C_11
REMARK    6  A    between atoms: C_11  and  C_12
REMARK    7  A    between atoms: C_15  and  C_16
REMARK    8  A    between atoms: N_18  and  C_19
REMARK                            x       y       z     vdW  Elec       q    Type
REMARK                         _______ _______ _______ _____ _____    ______ ____
ROOT
ATOM      1  S   UNL     1       2.414   7.747  18.881  0.00  0.00    +0.000 S 
ENDROOT
BRANCH   1   3
ATOM      2  N   UNL     1       3.313   5.508  17.599  0.00  0.00    +0.000 N 
ATOM      3  C   UNL     1       3.529   6.823  17.923  0.00  0.00    +0.000 A 
ATOM      4  N   UNL     1       4.613   7.293  17.327  0.00  0.00    +0.000 NA
ATOM      5  C   UNL     1       5.158   6.217  16.663  0.00  0.00    +0.000 A 
ATOM      6  C   UNL     1       6.326   6.139  15.900  0.00  0.00    +0.000 A 
ATOM      7  C   UNL     1       6.649   4.881  15.417  0.00  0.00    +0.000 A 
ATOM      8  N   UNL     1       5.911   3.765  15.614  0.00  0.00    +0.000 NA
ATOM      9  C   UNL     1       4.759   3.848  16.317  0.00  0.00    +0.000 A 
ATOM     10  C   UNL     1       4.381   5.082  16.840  0.00  0.00    +0.000 A 
BRANCH   2  11
ATOM     11  C   UNL     1       2.140   4.702  17.920  0.00  0.00    +0.000 C 
BRANCH  11  17
ATOM     12  C   UNL     1       4.651   1.615  21.031  0.00  0.00    +0.000 C 
ATOM     13  C   UNL     1       3.431   2.440  20.746  0.00  0.00    +0.000 A 
ATOM     14  C   UNL     1       2.305   2.399  21.572  0.00  0.00    +0.000 A 
ATOM     15  C   UNL     1       1.167   3.133  21.240  0.00  0.00    +0.000 A 
ATOM     16  C   UNL     1       1.136   3.890  20.067  0.00  0.00    +0.000 A 
ATOM     17  C   UNL     1       2.257   3.952  19.225  0.00  0.00    +0.000 A 
ATOM     18  C   UNL     1       3.404   3.236  19.593  0.00  0.00    +0.000 A 
ENDBRANCH  11  17
ENDBRANCH   2  11
ENDBRANCH   1   3
BRANCH   1  19
ATOM     19  C   UNL     1       1.615   8.876  17.705  0.00  0.00    +0.000 C 
BRANCH  19  20
ATOM     20  C   UNL     1       0.443   9.706  18.202  0.00  0.00    +0.000 A 
ATOM     21  C   UNL     1       0.604  10.478  19.353  0.00  0.00    +0.000 A 
ATOM     22  C   UNL     1      -0.438  11.301  19.820  0.00  0.00    +0.000 A 
ATOM     23  C   UNL     1      -1.661  11.398  19.135  0.00  0.00    +0.000 A 
ATOM     24  C   UNL     1      -1.823  10.642  17.978  0.00  0.00    +0.000 A 
ATOM     25  C   UNL     1      -0.784   9.823  17.531  0.00  0.00    +0.000 A 
BRANCH  23  26
ATOM     26  C   UNL     1      -2.712  12.304  19.694  0.00  0.00    +0.000 C 
ATOM     27  O   UNL     1      -2.387  13.121  20.563  0.00  0.00    +0.000 OA
ATOM     28  N   UNL     1      -4.019  12.211  19.230  0.00  0.00    +0.000 N 
ATOM     29  H   UNL     1      -4.213  11.706  18.378  0.00  0.00    +0.000 HD
BRANCH  28  30
ATOM     30  C   UNL     1      -5.050  13.130  19.725  0.00  0.00    +0.000 C 
ATOM     31  C   UNL     1      -6.118  13.387  18.652  0.00  0.00    +0.000 C 
ATOM     32  C   UNL     1      -7.133  12.251  18.541  0.00  0.00    +0.000 C 
ATOM     33  C   UNL     1      -7.793  11.967  19.884  0.00  0.00    +0.000 C 
ATOM     34  C   UNL     1      -6.750  11.610  20.937  0.00  0.00    +0.000 C 
ATOM     35  C   UNL     1      -5.671  12.682  21.059  0.00  0.00    +0.000 C 
ENDBRANCH  28  30
ENDBRANCH  23  26
ENDBRANCH  19  20
ENDBRANCH   1  19
TORSDOF 7
ENDMDL
