MODEL 1
REMARK VINA RESULT:      -7.6      0.000      0.000
REMARK  Name = 
REMARK  8 active torsions:
REMARK  status: ('A' for Active; 'I' for Inactive)
REMARK    1  A    between atoms: C_1  and  N_2
REMARK    2  A    between atoms: N_5  and  C_6
REMARK    3  A    between atoms: C_6  and  C_7
REMARK    4  A    between atoms: C_7  and  C_8
REMARK    5  A    between atoms: C_8  and  C_9
REMARK    6  A    between atoms: C_9  and  C_10
REMARK    7  A    between atoms: C_10  and  O_11
REMARK    8  A    between atoms: O_11  and  C_12
REMARK                            x       y       z     vdW  Elec       q    Type
REMARK                         _______ _______ _______ _____ _____    ______ ____
ROOT
ATOM      1  C   UNL     1       6.918   6.372  17.082  0.00  0.00    +0.000 C 
ENDROOT
BRANCH   1   2
ATOM      2  C   UNL     1       7.767   7.132  18.097  0.00  0.00    +0.000 C 
BRANCH   2   3
ATOM      3  C   UNL     1       7.907   8.615  17.728  0.00  0.00    +0.000 C 
BRANCH   3   4
ATOM      4  C   UNL     1       8.767   9.380  18.741  0.00  0.00    +0.000 C 
BRANCH   4   5
ATOM      5  C   UNL     1       9.251  10.730  18.210  0.00  0.00    +0.000 C 
BRANCH   5  10
ATOM      6  C   UNL     1      10.417  15.391  17.592  0.00  0.00    +0.000 C 
ATOM      7  N   UNL     1      10.754  14.162  18.300  0.00  0.00    +0.000 NA
ATOM      8  C   UNL     1      11.154  13.091  17.369  0.00  0.00    +0.000 C 
ATOM      9  C   UNL     1      11.452  11.752  18.096  0.00  0.00    +0.000 C 
ATOM     10  N   UNL     1      10.373  11.276  18.994  0.00  0.00    +0.000 NA
ATOM     11  C   UNL     1      10.006  12.403  19.885  0.00  0.00    +0.000 C 
ATOM     12  C   UNL     1       9.639  13.709  19.147  0.00  0.00    +0.000 C 
ENDBRANCH   5  10
ENDBRANCH   4   5
ENDBRANCH   3   4
ENDBRANCH   2   3
ENDBRANCH   1   2
BRANCH   1  13
ATOM     13  O   UNL     1       5.561   6.812  17.122  0.00  0.00    +0.000 OA
BRANCH  13  14
ATOM     14  C   UNL     1       4.661   5.847  17.503  0.00  0.00    +0.000 A 
ATOM     15  C   UNL     1       4.669   4.685  16.727  0.00  0.00    +0.000 A 
ATOM     16  C   UNL     1       3.778   3.641  16.997  0.00  0.00    +0.000 A 
ATOM     17  C   UNL     1       2.873   3.758  18.051  0.00  0.00    +0.000 A 
ATOM     18  O   UNL     1       2.005   2.716  18.265  0.00  0.00    +0.000 OA
ATOM     19  C   UNL     1       1.096   2.847  19.290  0.00  0.00    +0.000 A 
ATOM     20  C   UNL     1       0.987   3.888  20.117  0.00  0.00    +0.000 A 
ATOM     21  C   UNL     1       1.909   5.023  19.942  0.00  0.00    +0.000 A 
ATOM     22  O   UNL     1       1.861   5.999  20.677  0.00  0.00    +0.000 OA
ATOM     23  C   UNL     1       2.873   4.910  18.835  0.00  0.00    +0.000 A 
ATOM     24  C   UNL     1       3.763   5.952  18.569  0.00  0.00    +0.000 A 
ENDBRANCH  13  14
ENDBRANCH   1  13
TORSDOF 7
ENDMDL
MODEL 2
REMARK VINA RESULT:      -7.4      1.470      1.509
REMARK  Name = 
REMARK  8 active torsions:
REMARK  status: ('A' for Active; 'I' for Inactive)
REMARK    1  A    between atoms: C_1  and  N_2
REMARK    2  A    between atoms: N_5  and  C_6
REMARK    3  A    between atoms: C_6  and  C_7
REMARK    4  A    between atoms: C_7  and  C_8
REMARK    5  A    between atoms: C_8  and  C_9
REMARK    6  A    between atoms: C_9  and  C_10
REMARK    7  A    between atoms: C_10  and  O_11
REMARK    8  A    between atoms: O_11  and  C_12
REMARK                            x       y       z     vdW  Elec       q    Type
REMARK                         _______ _______ _______ _____ _____    ______ ____
ROOT
ATOM      1  C   UNL     1       7.329   5.979  17.782  0.00  0.00    +0.000 C 
ENDROOT
BRANCH   1   2
ATOM      2  C   UNL     1       8.129   7.019  18.561  0.00  0.00    +0.000 C 
BRANCH   2   3
ATOM      3  C   UNL     1       8.084   8.397  17.886  0.00  0.00    +0.000 C 
BRANCH   3   4
ATOM      4  C   UNL     1       8.726   9.483  18.757  0.00  0.00    +0.000 C 
BRANCH   4   5
ATOM      5  C   UNL     1       9.264  10.658  17.940  0.00  0.00    +0.000 C 
BRANCH   5  10
ATOM      6  C   UNL     1       9.287  15.379  19.026  0.00  0.00    +0.000 C 
ATOM      7  N   UNL     1      10.076  14.154  19.022  0.00  0.00    +0.000 NA
ATOM      8  C   UNL     1      10.258  13.630  17.655  0.00  0.00    +0.000 C 
ATOM      9  C   UNL     1      11.039  12.289  17.632  0.00  0.00    +0.000 C 
ATOM     10  N   UNL     1      10.493  11.233  18.518  0.00  0.00    +0.000 NA
ATOM     11  C   UNL     1      10.315  11.829  19.863  0.00  0.00    +0.000 C 
ATOM     12  C   UNL     1       9.472  13.124  19.883  0.00  0.00    +0.000 C 
ENDBRANCH   5  10
ENDBRANCH   4   5
ENDBRANCH   3   4
ENDBRANCH   2   3
ENDBRANCH   1   2
BRANCH   1  13
ATOM     13  O   UNL     1       7.021   4.854  18.603  0.00  0.00    +0.000 OA
BRANCH  13  14
ATOM     14  C   UNL     1       5.748   4.362  18.443  0.00  0.00    +0.000 A 
ATOM     15  C   UNL     1       5.240   4.438  17.143  0.00  0.00    +0.000 A 
ATOM     16  C   UNL     1       3.944   3.996  16.858  0.00  0.00    +0.000 A 
ATOM     17  C   UNL     1       3.150   3.474  17.878  0.00  0.00    +0.000 A 
ATOM     18  O   UNL     1       1.878   3.072  17.554  0.00  0.00    +0.000 OA
ATOM     19  C   UNL     1       1.088   2.582  18.569  0.00  0.00    +0.000 A 
ATOM     20  C   UNL     1       1.447   2.438  19.846  0.00  0.00    +0.000 A 
ATOM     21  C   UNL     1       2.809   2.836  20.241  0.00  0.00    +0.000 A 
ATOM     22  O   UNL     1       3.196   2.717  21.395  0.00  0.00    +0.000 OA
ATOM     23  C   UNL     1       3.659   3.385  19.172  0.00  0.00    +0.000 A 
ATOM     24  C   UNL     1       4.954   3.822  19.458  0.00  0.00    +0.000 A 
ENDBRANCH  13  14
ENDBRANCH   1  13
TORSDOF 7
ENDMDL
MODEL 3
REMARK VINA RESULT:      -7.4      1.552      1.844
REMARK  Name = 
REMARK  8 active torsions:
REMARK  status: ('A' for Active; 'I' for Inactive)
REMARK    1  A    between atoms: C_1  and  N_2
REMARK    2  A    between atoms: N_5  and  C_6
REMARK    3  A    between atoms: C_6  and  C_7
REMARK    4  A    between atoms: C_7  and  C_8
REMARK    5  A    between atoms: C_8  and  C_9
REMARK    6  A    between atoms: C_9  and  C_10
REMARK    7  A    between atoms: C_10  and  O_11
REMARK    8  A    between atoms: O_11  and  C_12
REMARK                            x       y       z     vdW  Elec       q    Type
REMARK                         _______ _______ _______ _____ _____    ______ ____
ROOT
ATOM      1  C   UNL     1       6.753   5.775  16.790  0.00  0.00    +0.000 C 
ENDROOT
BRANCH   1   2
ATOM      2  C   UNL     1       7.441   6.534  17.921  0.00  0.00    +0.000 C 
BRANCH   2   3
ATOM      3  C   UNL     1       7.709   7.998  17.546  0.00  0.00    +0.000 C 
BRANCH   3   4
ATOM      4  C   UNL     1       8.592   8.703  18.580  0.00  0.00    +0.000 C 
BRANCH   4   5
ATOM      5  C   UNL     1       8.676  10.214  18.359  0.00  0.00    +0.000 C 
BRANCH   5  10
ATOM      6  C   UNL     1       8.927  14.980  19.187  0.00  0.00    +0.000 C 
ATOM      7  N   UNL     1       9.679  13.732  19.177  0.00  0.00    +0.000 NA
ATOM      8  C   UNL     1       9.721  13.135  17.829  0.00  0.00    +0.000 C 
ATOM      9  C   UNL     1      10.459  11.769  17.806  0.00  0.00    +0.000 C 
ATOM     10  N   UNL     1       9.968  10.778  18.793  0.00  0.00    +0.000 NA
ATOM     11  C   UNL     1       9.930  11.446  20.115  0.00  0.00    +0.000 C 
ATOM     12  C   UNL     1       9.129  12.767  20.142  0.00  0.00    +0.000 C 
ENDBRANCH   5  10
ENDBRANCH   4   5
ENDBRANCH   3   4
ENDBRANCH   2   3
ENDBRANCH   1   2
BRANCH   1  13
ATOM     13  O   UNL     1       6.388   4.460  17.209  0.00  0.00    +0.000 OA
BRANCH  13  14
ATOM     14  C   UNL     1       5.174   4.382  17.847  0.00  0.00    +0.000 A 
ATOM     15  C   UNL     1       4.169   5.197  17.317  0.00  0.00    +0.000 A 
ATOM     16  C   UNL     1       2.897   5.228  17.898  0.00  0.00    +0.000 A 
ATOM     17  C   UNL     1       2.626   4.438  19.015  0.00  0.00    +0.000 A 
ATOM     18  O   UNL     1       1.369   4.517  19.562  0.00  0.00    +0.000 OA
ATOM     19  C   UNL     1       1.114   3.756  20.679  0.00  0.00    +0.000 A 
ATOM     20  C   UNL     1       1.968   2.926  21.279  0.00  0.00    +0.000 A 
ATOM     21  C   UNL     1       3.324   2.790  20.718  0.00  0.00    +0.000 A 
ATOM     22  O   UNL     1       4.146   2.036  21.220  0.00  0.00    +0.000 OA
ATOM     23  C   UNL     1       3.622   3.616  19.536  0.00  0.00    +0.000 A 
ATOM     24  C   UNL     1       4.892   3.580  18.956  0.00  0.00    +0.000 A 
ENDBRANCH  13  14
ENDBRANCH   1  13
TORSDOF 7
ENDMDL
MODEL 4
REMARK VINA RESULT:      -7.3      4.731      7.473
REMARK  Name = 
REMARK  8 active torsions:
REMARK  status: ('A' for Active; 'I' for Inactive)
REMARK    1  A    between atoms: C_1  and  N_2
REMARK    2  A    between atoms: N_5  and  C_6
REMARK    3  A    between atoms: C_6  and  C_7
REMARK    4  A    between atoms: C_7  and  C_8
REMARK    5  A    between atoms: C_8  and  C_9
REMARK    6  A    between atoms: C_9  and  C_10
REMARK    7  A    between atoms: C_10  and  O_11
REMARK    8  A    between atoms: O_11  and  C_12
REMARK                            x       y       z     vdW  Elec       q    Type
REMARK                         _______ _______ _______ _____ _____    ______ ____
ROOT
ATOM      1  C   UNL     1       2.816   2.626  20.749  0.00  0.00    +0.000 C 
ENDROOT
BRANCH   1   2
ATOM      2  C   UNL     1       1.331   2.545  20.406  0.00  0.00    +0.000 C 
BRANCH   2   3
ATOM      3  C   UNL     1       0.649   3.918  20.489  0.00  0.00    +0.000 C 
BRANCH   3   4
ATOM      4  C   UNL     1       1.666   5.054  20.637  0.00  0.00    +0.000 C 
BRANCH   4   5
ATOM      5  C   UNL     1       1.817   5.887  19.363  0.00  0.00    +0.000 C 
BRANCH   5  10
ATOM      6  C   UNL     1      -0.105  10.182  18.214  0.00  0.00    +0.000 C 
ATOM      7  N   UNL     1       1.080   9.506  18.727  0.00  0.00    +0.000 NA
ATOM      8  C   UNL     1       1.645   8.574  17.734  0.00  0.00    +0.000 C 
ATOM      9  C   UNL     1       2.869   7.792  18.283  0.00  0.00    +0.000 C 
ATOM     10  N   UNL     1       2.638   7.094  19.570  0.00  0.00    +0.000 NA
ATOM     11  C   UNL     1       2.052   8.078  20.511  0.00  0.00    +0.000 C 
ATOM     12  C   UNL     1       0.790   8.796  19.983  0.00  0.00    +0.000 C 
ENDBRANCH   5  10
ENDBRANCH   4   5
ENDBRANCH   3   4
ENDBRANCH   2   3
ENDBRANCH   1   2
BRANCH   1  13
ATOM     13  O   UNL     1       3.616   2.184  19.654  0.00  0.00    +0.000 OA
BRANCH  13  14
ATOM     14  C   UNL     1       4.264   3.190  18.980  0.00  0.00    +0.000 A 
ATOM     15  C   UNL     1       3.769   3.466  17.702  0.00  0.00    +0.000 A 
ATOM     16  C   UNL     1       4.364   4.450  16.905  0.00  0.00    +0.000 A 
ATOM     17  C   UNL     1       5.460   5.163  17.388  0.00  0.00    +0.000 A 
ATOM     18  O   UNL     1       6.023   6.104  16.561  0.00  0.00    +0.000 OA
ATOM     19  C   UNL     1       7.121   6.788  17.031  0.00  0.00    +0.000 A 
ATOM     20  C   UNL     1       7.687   6.639  18.230  0.00  0.00    +0.000 A 
ATOM     21  C   UNL     1       7.108   5.656  19.162  0.00  0.00    +0.000 A 
ATOM     22  O   UNL     1       7.579   5.485  20.278  0.00  0.00    +0.000 OA
ATOM     23  C   UNL     1       5.947   4.899  18.666  0.00  0.00    +0.000 A 
ATOM     24  C   UNL     1       5.353   3.920  19.465  0.00  0.00    +0.000 A 
ENDBRANCH  13  14
ENDBRANCH   1  13
TORSDOF 7
ENDMDL
MODEL 5
REMARK VINA RESULT:      -7.3      1.510      2.420
REMARK  Name = 
REMARK  8 active torsions:
REMARK  status: ('A' for Active; 'I' for Inactive)
REMARK    1  A    between atoms: C_1  and  N_2
REMARK    2  A    between atoms: N_5  and  C_6
REMARK    3  A    between atoms: C_6  and  C_7
REMARK    4  A    between atoms: C_7  and  C_8
REMARK    5  A    between atoms: C_8  and  C_9
REMARK    6  A    between atoms: C_9  and  C_10
REMARK    7  A    between atoms: C_10  and  O_11
REMARK    8  A    between atoms: O_11  and  C_12
REMARK                            x       y       z     vdW  Elec       q    Type
REMARK                         _______ _______ _______ _____ _____    ______ ____
ROOT
ATOM      1  C   UNL     1       7.971   8.156  17.926  0.00  0.00    +0.000 C 
ENDROOT
BRANCH   1   2
ATOM      2  C   UNL     1       8.448   9.605  17.959  0.00  0.00    +0.000 C 
BRANCH   2   3
ATOM      3  C   UNL     1       9.216   9.925  19.248  0.00  0.00    +0.000 C 
BRANCH   3   4
ATOM      4  C   UNL     1       9.536  11.419  19.370  0.00  0.00    +0.000 C 
BRANCH   4   5
ATOM      5  C   UNL     1      10.723  11.845  18.505  0.00  0.00    +0.000 C 
BRANCH   5  10
ATOM      6  C   UNL     1      12.259  16.433  18.727  0.00  0.00    +0.000 C 
ATOM      7  N   UNL     1      11.477  15.475  17.956  0.00  0.00    +0.000 NA
ATOM      8  C   UNL     1      10.334  14.959  18.732  0.00  0.00    +0.000 C 
ATOM      9  C   UNL     1       9.525  13.886  17.956  0.00  0.00    +0.000 C 
ATOM     10  N   UNL     1      10.331  12.763  17.420  0.00  0.00    +0.000 NA
ATOM     11  C   UNL     1      11.469  13.349  16.673  0.00  0.00    +0.000 C 
ATOM     12  C   UNL     1      12.312  14.360  17.481  0.00  0.00    +0.000 C 
ENDBRANCH   5  10
ENDBRANCH   4   5
ENDBRANCH   3   4
ENDBRANCH   2   3
ENDBRANCH   1   2
BRANCH   1  13
ATOM     13  O   UNL     1       7.018   7.957  16.883  0.00  0.00    +0.000 OA
BRANCH  13  14
ATOM     14  C   UNL     1       6.265   6.816  17.009  0.00  0.00    +0.000 A 
ATOM     15  C   UNL     1       6.913   5.631  16.650  0.00  0.00    +0.000 A 
ATOM     16  C   UNL     1       6.242   4.405  16.707  0.00  0.00    +0.000 A 
ATOM     17  C   UNL     1       4.914   4.362  17.127  0.00  0.00    +0.000 A 
ATOM     18  O   UNL     1       4.291   3.139  17.148  0.00  0.00    +0.000 OA
ATOM     19  C   UNL     1       2.972   3.104  17.538  0.00  0.00    +0.000 A 
ATOM     20  C   UNL     1       2.236   4.149  17.921  0.00  0.00    +0.000 A 
ATOM     21  C   UNL     1       2.864   5.481  17.936  0.00  0.00    +0.000 A 
ATOM     22  O   UNL     1       2.241   6.473  18.287  0.00  0.00    +0.000 OA
ATOM     23  C   UNL     1       4.269   5.540  17.498  0.00  0.00    +0.000 A 
ATOM     24  C   UNL     1       4.938   6.764  17.445  0.00  0.00    +0.000 A 
ENDBRANCH  13  14
ENDBRANCH   1  13
TORSDOF 7
ENDMDL
MODEL 6
REMARK VINA RESULT:      -7.2      1.204      2.124
REMARK  Name = 
REMARK  8 active torsions:
REMARK  status: ('A' for Active; 'I' for Inactive)
REMARK    1  A    between atoms: C_1  and  N_2
REMARK    2  A    between atoms: N_5  and  C_6
REMARK    3  A    between atoms: C_6  and  C_7
REMARK    4  A    between atoms: C_7  and  C_8
REMARK    5  A    between atoms: C_8  and  C_9
REMARK    6  A    between atoms: C_9  and  C_10
REMARK    7  A    between atoms: C_10  and  O_11
REMARK    8  A    between atoms: O_11  and  C_12
REMARK                            x       y       z     vdW  Elec       q    Type
REMARK                         _______ _______ _______ _____ _____    ______ ____
ROOT
ATOM      1  C   UNL     1       6.196   7.169  17.484  0.00  0.00    +0.000 C 
ENDROOT
BRANCH   1   2
ATOM      2  C   UNL     1       7.689   7.483  17.420  0.00  0.00    +0.000 C 
BRANCH   2   3
ATOM      3  C   UNL     1       7.971   8.969  17.677  0.00  0.00    +0.000 C 
BRANCH   3   4
ATOM      4  C   UNL     1       8.899   9.177  18.879  0.00  0.00    +0.000 C 
BRANCH   4   5
ATOM      5  C   UNL     1       9.212  10.651  19.140  0.00  0.00    +0.000 C 
BRANCH   5  10
ATOM      6  C   UNL     1      10.936  15.155  19.593  0.00  0.00    +0.000 C 
ATOM      7  N   UNL     1      10.600  14.098  18.648  0.00  0.00    +0.000 NA
ATOM      8  C   UNL     1       9.164  13.766  18.693  0.00  0.00    +0.000 C 
ATOM      9  C   UNL     1       8.795  12.595  17.743  0.00  0.00    +0.000 C 
ATOM     10  N   UNL     1       9.611  11.370  17.916  0.00  0.00    +0.000 NA
ATOM     11  C   UNL     1      11.037  11.776  17.883  0.00  0.00    +0.000 C 
ATOM     12  C   UNL     1      11.408  12.891  18.886  0.00  0.00    +0.000 C 
ENDBRANCH   5  10
ENDBRANCH   4   5
ENDBRANCH   3   4
ENDBRANCH   2   3
ENDBRANCH   1   2
BRANCH   1  13
ATOM     13  O   UNL     1       5.943   5.821  17.090  0.00  0.00    +0.000 OA
BRANCH  13  14
ATOM     14  C   UNL     1       4.755   5.307  17.550  0.00  0.00    +0.000 A 
ATOM     15  C   UNL     1       3.761   6.252  17.819  0.00  0.00    +0.000 A 
ATOM     16  C   UNL     1       2.517   5.854  18.319  0.00  0.00    +0.000 A 
ATOM     17  C   UNL     1       2.264   4.503  18.553  0.00  0.00    +0.000 A 
ATOM     18  O   UNL     1       1.035   4.164  19.064  0.00  0.00    +0.000 OA
ATOM     19  C   UNL     1       0.799   2.832  19.317  0.00  0.00    +0.000 A 
ATOM     20  C   UNL     1       1.646   1.826  19.094  0.00  0.00    +0.000 A 
ATOM     21  C   UNL     1       2.969   2.135  18.528  0.00  0.00    +0.000 A 
ATOM     22  O   UNL     1       3.783   1.252  18.294  0.00  0.00    +0.000 OA
ATOM     23  C   UNL     1       3.249   3.559  18.273  0.00  0.00    +0.000 A 
ATOM     24  C   UNL     1       4.490   3.952  17.770  0.00  0.00    +0.000 A 
ENDBRANCH  13  14
ENDBRANCH   1  13
TORSDOF 7
ENDMDL
MODEL 7
REMARK VINA RESULT:      -7.2      3.925      6.997
REMARK  Name = 
REMARK  8 active torsions:
REMARK  status: ('A' for Active; 'I' for Inactive)
REMARK    1  A    between atoms: C_1  and  N_2
REMARK    2  A    between atoms: N_5  and  C_6
REMARK    3  A    between atoms: C_6  and  C_7
REMARK    4  A    between atoms: C_7  and  C_8
REMARK    5  A    between atoms: C_8  and  C_9
REMARK    6  A    between atoms: C_9  and  C_10
REMARK    7  A    between atoms: C_10  and  O_11
REMARK    8  A    between atoms: O_11  and  C_12
REMARK                            x       y       z     vdW  Elec       q    Type
REMARK                         _______ _______ _______ _____ _____    ______ ____
ROOT
ATOM      1  C   UNL     1       1.269   4.403  20.373  0.00  0.00    +0.000 C 
ENDROOT
BRANCH   1   2
ATOM      2  C   UNL     1       1.429   3.544  19.121  0.00  0.00    +0.000 C 
BRANCH   2   3
ATOM      3  C   UNL     1       2.820   2.898  19.046  0.00  0.00    +0.000 C 
BRANCH   3   4
ATOM      4  C   UNL     1       3.549   3.256  17.747  0.00  0.00    +0.000 C 
BRANCH   4   5
ATOM      5  C   UNL     1       4.831   4.057  17.986  0.00  0.00    +0.000 C 
BRANCH   5  10
ATOM      6  C   UNL     1       7.494   8.086  17.623  0.00  0.00    +0.000 C 
ATOM      7  N   UNL     1       7.083   6.865  16.942  0.00  0.00    +0.000 NA
ATOM      8  C   UNL     1       5.624   6.829  16.727  0.00  0.00    +0.000 C 
ATOM      9  C   UNL     1       5.153   5.507  16.064  0.00  0.00    +0.000 C 
ATOM     10  N   UNL     1       5.602   4.271  16.748  0.00  0.00    +0.000 NA
ATOM     11  C   UNL     1       7.067   4.381  16.952  0.00  0.00    +0.000 C 
ATOM     12  C   UNL     1       7.516   5.667  17.680  0.00  0.00    +0.000 C 
ENDBRANCH   5  10
ENDBRANCH   4   5
ENDBRANCH   3   4
ENDBRANCH   2   3
ENDBRANCH   1   2
BRANCH   1  13
ATOM     13  O   UNL     1       2.346   5.331  20.494  0.00  0.00    +0.000 OA
BRANCH  13  14
ATOM     14  C   UNL     1       2.060   6.596  20.042  0.00  0.00    +0.000 A 
ATOM     15  C   UNL     1       2.484   6.874  18.739  0.00  0.00    +0.000 A 
ATOM     16  C   UNL     1       2.277   8.137  18.176  0.00  0.00    +0.000 A 
ATOM     17  C   UNL     1       1.642   9.131  18.919  0.00  0.00    +0.000 A 
ATOM     18  O   UNL     1       1.479  10.361  18.331  0.00  0.00    +0.000 OA
ATOM     19  C   UNL     1       0.875  11.347  19.077  0.00  0.00    +0.000 A 
ATOM     20  C   UNL     1       0.408  11.219  20.321  0.00  0.00    +0.000 A 
ATOM     21  C   UNL     1       0.540   9.913  20.988  0.00  0.00    +0.000 A 
ATOM     22  O   UNL     1       0.122   9.734  22.124  0.00  0.00    +0.000 OA
ATOM     23  C   UNL     1       1.206   8.853  20.213  0.00  0.00    +0.000 A 
ATOM     24  C   UNL     1       1.408   7.591  20.776  0.00  0.00    +0.000 A 
ENDBRANCH  13  14
ENDBRANCH   1  13
TORSDOF 7
ENDMDL
MODEL 8
REMARK VINA RESULT:      -7.1      1.514      1.947
REMARK  Name = 
REMARK  8 active torsions:
REMARK  status: ('A' for Active; 'I' for Inactive)
REMARK    1  A    between atoms: C_1  and  N_2
REMARK    2  A    between atoms: N_5  and  C_6
REMARK    3  A    between atoms: C_6  and  C_7
REMARK    4  A    between atoms: C_7  and  C_8
REMARK    5  A    between atoms: C_8  and  C_9
REMARK    6  A    between atoms: C_9  and  C_10
REMARK    7  A    between atoms: C_10  and  O_11
REMARK    8  A    between atoms: O_11  and  C_12
REMARK                            x       y       z     vdW  Elec       q    Type
REMARK                         _______ _______ _______ _____ _____    ______ ____
ROOT
ATOM      1  C   UNL     1       7.245   7.304  17.335  0.00  0.00    +0.000 C 
ENDROOT
BRANCH   1   2
ATOM      2  C   UNL     1       8.242   8.065  18.205  0.00  0.00    +0.000 C 
BRANCH   2   3
ATOM      3  C   UNL     1       8.148   9.582  17.989  0.00  0.00    +0.000 C 
BRANCH   3   4
ATOM      4  C   UNL     1       9.198  10.344  18.805  0.00  0.00    +0.000 C 
BRANCH   4   5
ATOM      5  C   UNL     1       9.495  11.734  18.240  0.00  0.00    +0.000 C 
BRANCH   5  10
ATOM      6  C   UNL     1      10.861  16.191  16.925  0.00  0.00    +0.000 C 
ATOM      7  N   UNL     1      10.527  15.332  18.054  0.00  0.00    +0.000 NA
ATOM      8  C   UNL     1      11.457  14.193  18.163  0.00  0.00    +0.000 C 
ATOM      9  C   UNL     1      11.080  13.226  19.318  0.00  0.00    +0.000 C 
ATOM     10  N   UNL     1       9.678  12.745  19.297  0.00  0.00    +0.000 NA
ATOM     11  C   UNL     1       8.802  13.934  19.165  0.00  0.00    +0.000 C 
ATOM     12  C   UNL     1       9.140  14.848  17.967  0.00  0.00    +0.000 C 
ENDBRANCH   5  10
ENDBRANCH   4   5
ENDBRANCH   3   4
ENDBRANCH   2   3
ENDBRANCH   1   2
BRANCH   1  13
ATOM     13  O   UNL     1       7.163   5.937  17.733  0.00  0.00    +0.000 OA
BRANCH  13  14
ATOM     14  C   UNL     1       5.895   5.509  18.043  0.00  0.00    +0.000 A 
ATOM     15  C   UNL     1       4.861   6.327  17.580  0.00  0.00    +0.000 A 
ATOM     16  C   UNL     1       3.526   6.013  17.856  0.00  0.00    +0.000 A 
ATOM     17  C   UNL     1       3.222   4.873  18.600  0.00  0.00    +0.000 A 
ATOM     18  O   UNL     1       1.899   4.618  18.863  0.00  0.00    +0.000 OA
ATOM     19  C   UNL     1       1.605   3.507  19.620  0.00  0.00    +0.000 A 
ATOM     20  C   UNL     1       2.486   2.633  20.111  0.00  0.00    +0.000 A 
ATOM     21  C   UNL     1       3.916   2.852  19.840  0.00  0.00    +0.000 A 
ATOM     22  O   UNL     1       4.768   2.078  20.257  0.00  0.00    +0.000 OA
ATOM     23  C   UNL     1       4.251   4.050  19.051  0.00  0.00    +0.000 A 
ATOM     24  C   UNL     1       5.584   4.359  18.774  0.00  0.00    +0.000 A 
ENDBRANCH  13  14
ENDBRANCH   1  13
TORSDOF 7
ENDMDL
MODEL 9
REMARK VINA RESULT:      -7.1      1.461      2.296
REMARK  Name = 
REMARK  8 active torsions:
REMARK  status: ('A' for Active; 'I' for Inactive)
REMARK    1  A    between atoms: C_1  and  N_2
REMARK    2  A    between atoms: N_5  and  C_6
REMARK    3  A    between atoms: C_6  and  C_7
REMARK    4  A    between atoms: C_7  and  C_8
REMARK    5  A    between atoms: C_8  and  C_9
REMARK    6  A    between atoms: C_9  and  C_10
REMARK    7  A    between atoms: C_10  and  O_11
REMARK    8  A    between atoms: O_11  and  C_12
REMARK                            x       y       z     vdW  Elec       q    Type
REMARK                         _______ _______ _______ _____ _____    ______ ____
ROOT
ATOM      1  C   UNL     1       7.629   7.236  17.658  0.00  0.00    +0.000 C 
ENDROOT
BRANCH   1   2
ATOM      2  C   UNL     1       7.899   8.734  17.546  0.00  0.00    +0.000 C 
BRANCH   2   3
ATOM      3  C   UNL     1       8.776   9.245  18.698  0.00  0.00    +0.000 C 
BRANCH   3   4
ATOM      4  C   UNL     1       8.928  10.769  18.672  0.00  0.00    +0.000 C 
BRANCH   4   5
ATOM      5  C   UNL     1      10.330  11.220  18.260  0.00  0.00    +0.000 C 
BRANCH   5  10
ATOM      6  C   UNL     1      11.850  15.474  20.008  0.00  0.00    +0.000 C 
ATOM      7  N   UNL     1      11.311  14.791  18.839  0.00  0.00    +0.000 NA
ATOM      8  C   UNL     1       9.974  14.229  19.108  0.00  0.00    +0.000 C 
ATOM      9  C   UNL     1       9.408  13.438  17.898  0.00  0.00    +0.000 C 
ATOM     10  N   UNL     1      10.308  12.389  17.362  0.00  0.00    +0.000 NA
ATOM     11  C   UNL     1      11.634  13.012  17.136  0.00  0.00    +0.000 C 
ATOM     12  C   UNL     1      12.221  13.733  18.370  0.00  0.00    +0.000 C 
ENDBRANCH   5  10
ENDBRANCH   4   5
ENDBRANCH   3   4
ENDBRANCH   2   3
ENDBRANCH   1   2
BRANCH   1  13
ATOM     13  O   UNL     1       6.556   6.847  16.802  0.00  0.00    +0.000 OA
BRANCH  13  14
ATOM     14  C   UNL     1       5.448   6.369  17.458  0.00  0.00    +0.000 A 
ATOM     15  C   UNL     1       4.307   7.172  17.363  0.00  0.00    +0.000 A 
ATOM     16  C   UNL     1       3.123   6.806  18.012  0.00  0.00    +0.000 A 
ATOM     17  C   UNL     1       3.079   5.631  18.761  0.00  0.00    +0.000 A 
ATOM     18  O   UNL     1       1.900   5.325  19.397  0.00  0.00    +0.000 OA
ATOM     19  C   UNL     1       1.868   4.178  20.156  0.00  0.00    +0.000 A 
ATOM     20  C   UNL     1       2.871   3.315  20.322  0.00  0.00    +0.000 A 
ATOM     21  C   UNL     1       4.150   3.588  19.644  0.00  0.00    +0.000 A 
ATOM     22  O   UNL     1       5.101   2.826  19.752  0.00  0.00    +0.000 OA
ATOM     23  C   UNL     1       4.210   4.824  18.846  0.00  0.00    +0.000 A 
ATOM     24  C   UNL     1       5.392   5.184  18.196  0.00  0.00    +0.000 A 
ENDBRANCH  13  14
ENDBRANCH   1  13
TORSDOF 7
ENDMDL
