MODEL 1
REMARK VINA RESULT:      -6.8      0.000      0.000
REMARK  Name = 
REMARK  3 active torsions:
REMARK  status: ('A' for Active; 'I' for Inactive)
REMARK    1  A    between atoms: N_5  and  C_6
REMARK    2  A    between atoms: C_9  and  C_10
REMARK    3  A    between atoms: C_10  and  O_11
REMARK                            x       y       z     vdW  Elec       q    Type
REMARK                         _______ _______ _______ _____ _____    ______ ____
ROOT
ATOM      1  N   UNL     1       7.504   5.221  14.112  0.00  0.00    +0.000 N 
ATOM      2  C   UNL     1       6.869   5.041  15.310  0.00  0.00    +0.000 A 
ATOM      3  C   UNL     1       5.402   5.089  15.363  0.00  0.00    +0.000 A 
ATOM      4  C   UNL     1       4.861   4.905  16.567  0.00  0.00    +0.000 A 
ATOM      5  N   UNL     1       5.640   4.669  17.681  0.00  0.00    +0.000 N 
ATOM      6  C   UNL     1       7.037   4.653  17.587  0.00  0.00    +0.000 A 
ATOM      7  O   UNL     1       7.745   4.486  18.578  0.00  0.00    +0.000 OA
ATOM      8  N   UNL     1       7.616   4.836  16.351  0.00  0.00    +0.000 NA
ATOM      9  H   UNL     1       7.017   4.922  13.276  0.00  0.00    +0.000 HD
ATOM     10  H   UNL     1       8.478   4.937  14.139  0.00  0.00    +0.000 HD
ENDROOT
BRANCH   5  11
ATOM     11  C   UNL     1       5.051   4.471  19.002  0.00  0.00    +0.000 C 
ATOM     12  C   UNL     1       4.077   5.566  19.325  0.00  0.00    +0.000 C 
ATOM     13  C   UNL     1       2.862   5.197  19.754  0.00  0.00    +0.000 C 
ATOM     14  C   UNL     1       2.600   3.724  19.878  0.00  0.00    +0.000 C 
ATOM     15  S   UNL     1       4.068   2.927  19.114  0.00  0.00    +0.000 S 
BRANCH  14  16
ATOM     16  C   UNL     1       1.306   3.267  19.186  0.00  0.00    +0.000 C 
BRANCH  16  17
ATOM     17  O   UNL     1       1.295   3.562  17.789  0.00  0.00    +0.000 OA
ATOM     18  H   UNL     1       0.652   2.949  17.394  0.00  0.00    +0.000 HD
ENDBRANCH  16  17
ENDBRANCH  14  16
ENDBRANCH   5  11
TORSDOF 3
ENDMDL
MODEL 2
REMARK VINA RESULT:      -6.5      2.384      2.829
REMARK  Name = 
REMARK  3 active torsions:
REMARK  status: ('A' for Active; 'I' for Inactive)
REMARK    1  A    between atoms: N_5  and  C_6
REMARK    2  A    between atoms: C_9  and  C_10
REMARK    3  A    between atoms: C_10  and  O_11
REMARK                            x       y       z     vdW  Elec       q    Type
REMARK                         _______ _______ _______ _____ _____    ______ ____
ROOT
ATOM      1  N   UNL     1       7.266   5.596  15.623  0.00  0.00    +0.000 N 
ATOM      2  C   UNL     1       6.056   5.483  16.249  0.00  0.00    +0.000 A 
ATOM      3  C   UNL     1       5.462   4.153  16.438  0.00  0.00    +0.000 A 
ATOM      4  C   UNL     1       4.281   4.129  17.055  0.00  0.00    +0.000 A 
ATOM      5  N   UNL     1       3.674   5.286  17.497  0.00  0.00    +0.000 N 
ATOM      6  C   UNL     1       4.266   6.535  17.276  0.00  0.00    +0.000 A 
ATOM      7  O   UNL     1       3.717   7.578  17.627  0.00  0.00    +0.000 OA
ATOM      8  N   UNL     1       5.489   6.581  16.645  0.00  0.00    +0.000 NA
ATOM      9  H   UNL     1       7.919   4.828  15.726  0.00  0.00    +0.000 HD
ATOM     10  H   UNL     1       7.691   6.509  15.754  0.00  0.00    +0.000 HD
ENDROOT
BRANCH   5  11
ATOM     11  C   UNL     1       2.378   5.264  18.169  0.00  0.00    +0.000 C 
ATOM     12  C   UNL     1       1.580   4.063  17.757  0.00  0.00    +0.000 C 
ATOM     13  C   UNL     1       1.054   3.312  18.734  0.00  0.00    +0.000 C 
ATOM     14  C   UNL     1       1.308   3.754  20.146  0.00  0.00    +0.000 C 
ATOM     15  S   UNL     1       2.529   5.117  19.991  0.00  0.00    +0.000 S 
BRANCH  14  16
ATOM     16  C   UNL     1       1.846   2.637  21.056  0.00  0.00    +0.000 C 
BRANCH  16  17
ATOM     17  O   UNL     1       2.374   3.136  22.285  0.00  0.00    +0.000 OA
ATOM     18  H   UNL     1       3.212   3.573  22.056  0.00  0.00    +0.000 HD
ENDBRANCH  16  17
ENDBRANCH  14  16
ENDBRANCH   5  11
TORSDOF 3
ENDMDL
MODEL 3
REMARK VINA RESULT:      -6.5      1.169      1.169
REMARK  Name = 
REMARK  3 active torsions:
REMARK  status: ('A' for Active; 'I' for Inactive)
REMARK    1  A    between atoms: N_5  and  C_6
REMARK    2  A    between atoms: C_9  and  C_10
REMARK    3  A    between atoms: C_10  and  O_11
REMARK                            x       y       z     vdW  Elec       q    Type
REMARK                         _______ _______ _______ _____ _____    ______ ____
ROOT
ATOM      1  N   UNL     1       7.718   5.256  13.949  0.00  0.00    +0.000 N 
ATOM      2  C   UNL     1       6.915   5.179  15.054  0.00  0.00    +0.000 A 
ATOM      3  C   UNL     1       5.681   4.383  14.995  0.00  0.00    +0.000 A 
ATOM      4  C   UNL     1       4.955   4.361  16.112  0.00  0.00    +0.000 A 
ATOM      5  N   UNL     1       5.355   5.033  17.248  0.00  0.00    +0.000 N 
ATOM      6  C   UNL     1       6.527   5.798  17.252  0.00  0.00    +0.000 A 
ATOM      7  O   UNL     1       6.875   6.437  18.243  0.00  0.00    +0.000 OA
ATOM      8  N   UNL     1       7.296   5.830  16.110  0.00  0.00    +0.000 NA
ATOM      9  H   UNL     1       7.732   4.458  13.326  0.00  0.00    +0.000 HD
ATOM     10  H   UNL     1       8.640   5.621  14.161  0.00  0.00    +0.000 HD
ENDROOT
BRANCH   5  11
ATOM     11  C   UNL     1       4.559   5.015  18.472  0.00  0.00    +0.000 C 
ATOM     12  C   UNL     1       3.182   5.557  18.225  0.00  0.00    +0.000 C 
ATOM     13  C   UNL     1       2.148   4.817  18.648  0.00  0.00    +0.000 C 
ATOM     14  C   UNL     1       2.471   3.523  19.336  0.00  0.00    +0.000 C 
ATOM     15  S   UNL     1       4.282   3.317  19.109  0.00  0.00    +0.000 S 
BRANCH  14  16
ATOM     16  C   UNL     1       1.707   2.315  18.770  0.00  0.00    +0.000 C 
BRANCH  16  17
ATOM     17  O   UNL     1       2.392   1.690  17.685  0.00  0.00    +0.000 OA
ATOM     18  H   UNL     1       3.234   2.168  17.593  0.00  0.00    +0.000 HD
ENDBRANCH  16  17
ENDBRANCH  14  16
ENDBRANCH   5  11
TORSDOF 3
ENDMDL
MODEL 4
REMARK VINA RESULT:      -6.3      2.193      2.541
REMARK  Name = 
REMARK  3 active torsions:
REMARK  status: ('A' for Active; 'I' for Inactive)
REMARK    1  A    between atoms: N_5  and  C_6
REMARK    2  A    between atoms: C_9  and  C_10
REMARK    3  A    between atoms: C_10  and  O_11
REMARK                            x       y       z     vdW  Elec       q    Type
REMARK                         _______ _______ _______ _____ _____    ______ ____
ROOT
ATOM      1  N   UNL     1       7.654   5.362  14.122  0.00  0.00    +0.000 N 
ATOM      2  C   UNL     1       6.612   5.190  14.990  0.00  0.00    +0.000 A 
ATOM      3  C   UNL     1       6.186   3.829  15.344  0.00  0.00    +0.000 A 
ATOM      4  C   UNL     1       5.163   3.747  16.195  0.00  0.00    +0.000 A 
ATOM      5  N   UNL     1       4.564   4.875  16.715  0.00  0.00    +0.000 N 
ATOM      6  C   UNL     1       4.989   6.153  16.333  0.00  0.00    +0.000 A 
ATOM      7  O   UNL     1       4.438   7.167  16.756  0.00  0.00    +0.000 OA
ATOM      8  N   UNL     1       6.048   6.260  15.459  0.00  0.00    +0.000 NA
ATOM      9  H   UNL     1       8.376   4.652  14.111  0.00  0.00    +0.000 HD
ATOM     10  H   UNL     1       8.017   6.310  14.130  0.00  0.00    +0.000 HD
ENDROOT
BRANCH   5  11
ATOM     11  C   UNL     1       3.441   4.789  17.644  0.00  0.00    +0.000 C 
ATOM     12  C   UNL     1       2.672   3.518  17.440  0.00  0.00    +0.000 C 
ATOM     13  C   UNL     1       2.420   2.772  18.525  0.00  0.00    +0.000 C 
ATOM     14  C   UNL     1       2.925   3.292  19.840  0.00  0.00    +0.000 C 
ATOM     15  S   UNL     1       3.977   4.731  19.397  0.00  0.00    +0.000 S 
BRANCH  14  16
ATOM     16  C   UNL     1       3.726   2.255  20.646  0.00  0.00    +0.000 C 
BRANCH  16  17
ATOM     17  O   UNL     1       5.004   1.980  20.072  0.00  0.00    +0.000 OA
ATOM     18  H   UNL     1       5.272   1.115  20.424  0.00  0.00    +0.000 HD
ENDBRANCH  16  17
ENDBRANCH  14  16
ENDBRANCH   5  11
TORSDOF 3
ENDMDL
MODEL 5
REMARK VINA RESULT:      -6.1      2.710      5.748
REMARK  Name = 
REMARK  3 active torsions:
REMARK  status: ('A' for Active; 'I' for Inactive)
REMARK    1  A    between atoms: N_5  and  C_6
REMARK    2  A    between atoms: C_9  and  C_10
REMARK    3  A    between atoms: C_10  and  O_11
REMARK                            x       y       z     vdW  Elec       q    Type
REMARK                         _______ _______ _______ _____ _____    ______ ____
ROOT
ATOM      1  N   UNL     1       1.307   2.477  22.080  0.00  0.00    +0.000 N 
ATOM      2  C   UNL     1       1.830   3.078  20.968  0.00  0.00    +0.000 A 
ATOM      3  C   UNL     1       2.543   4.354  21.106  0.00  0.00    +0.000 A 
ATOM      4  C   UNL     1       3.021   4.874  19.976  0.00  0.00    +0.000 A 
ATOM      5  N   UNL     1       2.863   4.236  18.764  0.00  0.00    +0.000 N 
ATOM      6  C   UNL     1       2.156   3.031  18.675  0.00  0.00    +0.000 A 
ATOM      7  O   UNL     1       1.971   2.472  17.596  0.00  0.00    +0.000 OA
ATOM      8  N   UNL     1       1.659   2.473  19.832  0.00  0.00    +0.000 NA
ATOM      9  H   UNL     1       1.784   2.627  22.960  0.00  0.00    +0.000 HD
ATOM     10  H   UNL     1       1.052   1.508  21.917  0.00  0.00    +0.000 HD
ENDROOT
BRANCH   5  11
ATOM     11  C   UNL     1       3.381   4.806  17.523  0.00  0.00    +0.000 C 
ATOM     12  C   UNL     1       3.733   6.253  17.703  0.00  0.00    +0.000 C 
ATOM     13  C   UNL     1       4.950   6.641  17.297  0.00  0.00    +0.000 C 
ATOM     14  C   UNL     1       5.836   5.590  16.693  0.00  0.00    +0.000 C 
ATOM     15  S   UNL     1       4.942   4.012  16.979  0.00  0.00    +0.000 S 
BRANCH  14  16
ATOM     16  C   UNL     1       7.244   5.542  17.308  0.00  0.00    +0.000 C 
BRANCH  16  17
ATOM     17  O   UNL     1       7.898   4.293  17.086  0.00  0.00    +0.000 OA
ATOM     18  H   UNL     1       7.723   4.063  16.158  0.00  0.00    +0.000 HD
ENDBRANCH  16  17
ENDBRANCH  14  16
ENDBRANCH   5  11
TORSDOF 3
ENDMDL
MODEL 6
REMARK VINA RESULT:      -6.0      2.871      5.479
REMARK  Name = 
REMARK  3 active torsions:
REMARK  status: ('A' for Active; 'I' for Inactive)
REMARK    1  A    between atoms: N_5  and  C_6
REMARK    2  A    between atoms: C_9  and  C_10
REMARK    3  A    between atoms: C_10  and  O_11
REMARK                            x       y       z     vdW  Elec       q    Type
REMARK                         _______ _______ _______ _____ _____    ______ ____
ROOT
ATOM      1  N   UNL     1       0.594   2.166  18.912  0.00  0.00    +0.000 N 
ATOM      2  C   UNL     1       1.719   2.904  18.670  0.00  0.00    +0.000 A 
ATOM      3  C   UNL     1       2.719   2.403  17.717  0.00  0.00    +0.000 A 
ATOM      4  C   UNL     1       3.787   3.180  17.539  0.00  0.00    +0.000 A 
ATOM      5  N   UNL     1       3.924   4.383  18.200  0.00  0.00    +0.000 N 
ATOM      6  C   UNL     1       2.956   4.811  19.116  0.00  0.00    +0.000 A 
ATOM      7  O   UNL     1       3.084   5.861  19.743  0.00  0.00    +0.000 OA
ATOM      8  N   UNL     1       1.842   4.026  19.311  0.00  0.00    +0.000 NA
ATOM      9  H   UNL     1       0.241   1.591  18.157  0.00  0.00    +0.000 HD
ATOM     10  H   UNL     1      -0.128   2.698  19.388  0.00  0.00    +0.000 HD
ENDROOT
BRANCH   5  11
ATOM     11  C   UNL     1       5.095   5.235  18.009  0.00  0.00    +0.000 C 
ATOM     12  C   UNL     1       6.361   4.442  18.135  0.00  0.00    +0.000 C 
ATOM     13  C   UNL     1       7.265   4.571  17.154  0.00  0.00    +0.000 C 
ATOM     14  C   UNL     1       6.923   5.507  16.031  0.00  0.00    +0.000 C 
ATOM     15  S   UNL     1       5.170   5.967  16.329  0.00  0.00    +0.000 S 
BRANCH  14  16
ATOM     16  C   UNL     1       7.096   4.885  14.635  0.00  0.00    +0.000 C 
BRANCH  16  17
ATOM     17  O   UNL     1       7.992   5.629  13.809  0.00  0.00    +0.000 OA
ATOM     18  H   UNL     1       8.597   6.085  14.419  0.00  0.00    +0.000 HD
ENDBRANCH  16  17
ENDBRANCH  14  16
ENDBRANCH   5  11
TORSDOF 3
ENDMDL
MODEL 7
REMARK VINA RESULT:      -6.0      2.285      3.016
REMARK  Name = 
REMARK  3 active torsions:
REMARK  status: ('A' for Active; 'I' for Inactive)
REMARK    1  A    between atoms: N_5  and  C_6
REMARK    2  A    between atoms: C_9  and  C_10
REMARK    3  A    between atoms: C_10  and  O_11
REMARK                            x       y       z     vdW  Elec       q    Type
REMARK                         _______ _______ _______ _____ _____    ______ ____
ROOT
ATOM      1  N   UNL     1       8.306   7.044  18.773  0.00  0.00    +0.000 N 
ATOM      2  C   UNL     1       7.179   6.361  18.405  0.00  0.00    +0.000 A 
ATOM      3  C   UNL     1       6.595   5.380  19.330  0.00  0.00    +0.000 A 
ATOM      4  C   UNL     1       5.500   4.757  18.896  0.00  0.00    +0.000 A 
ATOM      5  N   UNL     1       4.952   5.037  17.662  0.00  0.00    +0.000 N 
ATOM      6  C   UNL     1       5.555   5.963  16.803  0.00  0.00    +0.000 A 
ATOM      7  O   UNL     1       5.101   6.191  15.683  0.00  0.00    +0.000 OA
ATOM      8  N   UNL     1       6.684   6.622  17.235  0.00  0.00    +0.000 NA
ATOM      9  H   UNL     1       8.438   7.229  19.760  0.00  0.00    +0.000 HD
ATOM     10  H   UNL     1       8.486   7.848  18.182  0.00  0.00    +0.000 HD
ENDROOT
BRANCH   5  11
ATOM     11  C   UNL     1       3.755   4.352  17.182  0.00  0.00    +0.000 C 
ATOM     12  C   UNL     1       3.901   2.865  17.304  0.00  0.00    +0.000 C 
ATOM     13  C   UNL     1       2.906   2.199  17.909  0.00  0.00    +0.000 C 
ATOM     14  C   UNL     1       1.740   3.010  18.393  0.00  0.00    +0.000 C 
ATOM     15  S   UNL     1       2.265   4.756  18.172  0.00  0.00    +0.000 S 
BRANCH  14  16
ATOM     16  C   UNL     1       1.361   2.733  19.858  0.00  0.00    +0.000 C 
BRANCH  16  17
ATOM     17  O   UNL     1       0.451   3.699  20.383  0.00  0.00    +0.000 OA
ATOM     18  H   UNL     1      -0.387   3.226  20.522  0.00  0.00    +0.000 HD
ENDBRANCH  16  17
ENDBRANCH  14  16
ENDBRANCH   5  11
TORSDOF 3
ENDMDL
MODEL 8
REMARK VINA RESULT:      -5.9      2.927      5.601
REMARK  Name = 
REMARK  3 active torsions:
REMARK  status: ('A' for Active; 'I' for Inactive)
REMARK    1  A    between atoms: N_5  and  C_6
REMARK    2  A    between atoms: C_9  and  C_10
REMARK    3  A    between atoms: C_10  and  O_11
REMARK                            x       y       z     vdW  Elec       q    Type
REMARK                         _______ _______ _______ _____ _____    ______ ____
ROOT
ATOM      1  N   UNL     1       0.520   2.909  20.263  0.00  0.00    +0.000 N 
ATOM      2  C   UNL     1       1.629   3.606  19.868  0.00  0.00    +0.000 A 
ATOM      3  C   UNL     1       2.805   2.874  19.380  0.00  0.00    +0.000 A 
ATOM      4  C   UNL     1       3.843   3.625  19.015  0.00  0.00    +0.000 A 
ATOM      5  N   UNL     1       3.797   5.002  19.081  0.00  0.00    +0.000 N 
ATOM      6  C   UNL     1       2.662   5.658  19.574  0.00  0.00    +0.000 A 
ATOM      7  O   UNL     1       2.622   6.882  19.678  0.00  0.00    +0.000 OA
ATOM      8  N   UNL     1       1.576   4.900  19.950  0.00  0.00    +0.000 NA
ATOM      9  H   UNL     1       0.336   2.025  19.805  0.00  0.00    +0.000 HD
ATOM     10  H   UNL     1      -0.301   3.499  20.352  0.00  0.00    +0.000 HD
ENDROOT
BRANCH   5  11
ATOM     11  C   UNL     1       4.934   5.828  18.687  0.00  0.00    +0.000 C 
ATOM     12  C   UNL     1       6.231   5.141  18.999  0.00  0.00    +0.000 C 
ATOM     13  C   UNL     1       7.136   5.064  18.013  0.00  0.00    +0.000 C 
ATOM     14  C   UNL     1       6.765   5.684  16.697  0.00  0.00    +0.000 C 
ATOM     15  S   UNL     1       4.994   6.133  16.879  0.00  0.00    +0.000 S 
BRANCH  14  16
ATOM     16  C   UNL     1       6.973   4.749  15.494  0.00  0.00    +0.000 C 
BRANCH  16  17
ATOM     17  O   UNL     1       7.762   5.346  14.464  0.00  0.00    +0.000 OA
ATOM     18  H   UNL     1       7.537   6.292  14.473  0.00  0.00    +0.000 HD
ENDBRANCH  16  17
ENDBRANCH  14  16
ENDBRANCH   5  11
TORSDOF 3
ENDMDL
MODEL 9
REMARK VINA RESULT:      -5.9      2.855      5.399
REMARK  Name = 
REMARK  3 active torsions:
REMARK  status: ('A' for Active; 'I' for Inactive)
REMARK    1  A    between atoms: N_5  and  C_6
REMARK    2  A    between atoms: C_9  and  C_10
REMARK    3  A    between atoms: C_10  and  O_11
REMARK                            x       y       z     vdW  Elec       q    Type
REMARK                         _______ _______ _______ _____ _____    ______ ____
ROOT
ATOM      1  N   UNL     1       0.431   3.081  19.717  0.00  0.00    +0.000 N 
ATOM      2  C   UNL     1       1.706   3.313  19.281  0.00  0.00    +0.000 A 
ATOM      3  C   UNL     1       1.924   4.211  18.138  0.00  0.00    +0.000 A 
ATOM      4  C   UNL     1       3.194   4.384  17.775  0.00  0.00    +0.000 A 
ATOM      5  N   UNL     1       4.229   3.767  18.447  0.00  0.00    +0.000 N 
ATOM      6  C   UNL     1       3.973   2.902  19.517  0.00  0.00    +0.000 A 
ATOM      7  O   UNL     1       4.882   2.312  20.098  0.00  0.00    +0.000 OA
ATOM      8  N   UNL     1       2.667   2.714  19.912  0.00  0.00    +0.000 NA
ATOM      9  H   UNL     1      -0.247   3.824  19.599  0.00  0.00    +0.000 HD
ATOM     10  H   UNL     1       0.405   2.650  20.636  0.00  0.00    +0.000 HD
ENDROOT
BRANCH   5  11
ATOM     11  C   UNL     1       5.621   3.951  18.047  0.00  0.00    +0.000 C 
ATOM     12  C   UNL     1       5.721   4.298  16.592  0.00  0.00    +0.000 C 
ATOM     13  C   UNL     1       6.460   5.369  16.266  0.00  0.00    +0.000 C 
ATOM     14  C   UNL     1       7.122   6.107  17.393  0.00  0.00    +0.000 C 
ATOM     15  S   UNL     1       6.426   5.353  18.915  0.00  0.00    +0.000 S 
BRANCH  14  16
ATOM     16  C   UNL     1       6.871   7.624  17.368  0.00  0.00    +0.000 C 
BRANCH  16  17
ATOM     17  O   UNL     1       8.045   8.381  17.664  0.00  0.00    +0.000 OA
ATOM     18  H   UNL     1       7.744   9.143  18.187  0.00  0.00    +0.000 HD
ENDBRANCH  16  17
ENDBRANCH  14  16
ENDBRANCH   5  11
TORSDOF 3
ENDMDL
