MODEL 1
REMARK VINA RESULT:      -7.5      0.000      0.000
REMARK  Name = 
REMARK  8 active torsions:
REMARK  status: ('A' for Active; 'I' for Inactive)
REMARK    1  A    between atoms: C_1  and  C_2
REMARK    2  A    between atoms: C_5  and  C_6
REMARK    3  A    between atoms: C_9  and  C_10
REMARK    4  A    between atoms: C_10  and  C_11
REMARK    5  A    between atoms: C_11  and  C_12
REMARK    6  A    between atoms: N_15  and  C_16
REMARK    7  A    between atoms: N_15  and  C_17
REMARK    8  A    between atoms: N_21  and  C_22
REMARK                            x       y       z     vdW  Elec       q    Type
REMARK                         _______ _______ _______ _____ _____    ______ ____
ROOT
ATOM      1  C   UNL     1       1.513   8.894  17.822  0.00  0.00    +0.000 C 
ENDROOT
BRANCH   1  10
ATOM      2  C   UNL     1      -0.198   9.464  23.031  0.00  0.00    +0.000 C 
ATOM      3  C   UNL     1      -0.054  10.662  22.137  0.00  0.00    +0.000 A 
ATOM      4  N   UNL     1      -0.343  11.847  22.606  0.00  0.00    +0.000 NA
ATOM      5  C   UNL     1      -0.200  12.929  21.763  0.00  0.00    +0.000 A 
ATOM      6  C   UNL     1       0.209  12.856  20.479  0.00  0.00    +0.000 A 
ATOM      7  C   UNL     1       0.354  14.055  19.603  0.00  0.00    +0.000 C 
ATOM      8  N   UNL     1       0.520  11.591  19.967  0.00  0.00    +0.000 N 
ATOM      9  N   UNL     1       0.955  11.187  18.734  0.00  0.00    +0.000 NA
ATOM     10  C   UNL     1       1.064   9.856  18.885  0.00  0.00    +0.000 A 
ATOM     11  N   UNL     1       0.724   9.389  20.137  0.00  0.00    +0.000 NA
ATOM     12  C   UNL     1       0.392  10.488  20.778  0.00  0.00    +0.000 A 
ENDBRANCH   1  10
BRANCH   1  13
ATOM     13  C   UNL     1       2.980   8.454  17.862  0.00  0.00    +0.000 C 
BRANCH  13  14
ATOM     14  C   UNL     1       3.143   6.960  17.976  0.00  0.00    +0.000 A 
ATOM     15  N   UNL     1       2.453   6.106  18.715  0.00  0.00    +0.000 NA
ATOM     16  C   UNL     1       2.979   4.865  18.411  0.00  0.00    +0.000 A 
ATOM     17  N   UNL     1       2.460   3.709  18.904  0.00  0.00    +0.000 N 
ATOM     18  C   UNL     1       3.154   2.452  18.655  0.00  0.00    +0.000 C 
ATOM     19  N   UNL     1       3.997   4.935  17.548  0.00  0.00    +0.000 NA
ATOM     20  N   UNL     1       4.071   6.239  17.271  0.00  0.00    +0.000 N 
ATOM     21  C   UNL     1       5.019   6.681  16.282  0.00  0.00    +0.000 C 
BRANCH  17  22
ATOM     22  C   UNL     1       1.570   3.719  20.072  0.00  0.00    +0.000 C 
ATOM     23  C   UNL     1       1.592   2.668  21.144  0.00  0.00    +0.000 C 
ATOM     24  C   UNL     1       2.143   4.029  21.436  0.00  0.00    +0.000 C 
ENDBRANCH  17  22
ENDBRANCH  13  14
ENDBRANCH   1  13
TORSDOF 4
ENDMDL
MODEL 2
REMARK VINA RESULT:      -7.5      0.663      2.050
REMARK  Name = 
REMARK  8 active torsions:
REMARK  status: ('A' for Active; 'I' for Inactive)
REMARK    1  A    between atoms: C_1  and  C_2
REMARK    2  A    between atoms: C_5  and  C_6
REMARK    3  A    between atoms: C_9  and  C_10
REMARK    4  A    between atoms: C_10  and  C_11
REMARK    5  A    between atoms: C_11  and  C_12
REMARK    6  A    between atoms: N_15  and  C_16
REMARK    7  A    between atoms: N_15  and  C_17
REMARK    8  A    between atoms: N_21  and  C_22
REMARK                            x       y       z     vdW  Elec       q    Type
REMARK                         _______ _______ _______ _____ _____    ______ ____
ROOT
ATOM      1  C   UNL     1       1.608   8.773  17.708  0.00  0.00    +0.000 C 
ENDROOT
BRANCH   1  10
ATOM      2  C   UNL     1      -0.422  13.696  19.132  0.00  0.00    +0.000 C 
ATOM      3  C   UNL     1      -0.312  12.592  20.143  0.00  0.00    +0.000 A 
ATOM      4  N   UNL     1      -0.699  12.811  21.372  0.00  0.00    +0.000 NA
ATOM      5  C   UNL     1      -0.588  11.779  22.279  0.00  0.00    +0.000 A 
ATOM      6  C   UNL     1      -0.096  10.554  21.996  0.00  0.00    +0.000 A 
ATOM      7  C   UNL     1       0.003   9.463  23.009  0.00  0.00    +0.000 C 
ATOM      8  N   UNL     1       0.324  10.310  20.683  0.00  0.00    +0.000 N 
ATOM      9  N   UNL     1       0.854   9.199  20.086  0.00  0.00    +0.000 NA
ATOM     10  C   UNL     1       1.041   9.610  18.819  0.00  0.00    +0.000 A 
ATOM     11  N   UNL     1       0.662  10.913  18.576  0.00  0.00    +0.000 NA
ATOM     12  C   UNL     1       0.225  11.314  19.748  0.00  0.00    +0.000 A 
ENDBRANCH   1  10
BRANCH   1  13
ATOM     13  C   UNL     1       3.051   8.288  17.874  0.00  0.00    +0.000 C 
BRANCH  13  14
ATOM     14  C   UNL     1       3.155   6.789  18.007  0.00  0.00    +0.000 A 
ATOM     15  N   UNL     1       2.439   5.974  18.764  0.00  0.00    +0.000 NA
ATOM     16  C   UNL     1       2.913   4.709  18.472  0.00  0.00    +0.000 A 
ATOM     17  N   UNL     1       2.353   3.581  18.986  0.00  0.00    +0.000 N 
ATOM     18  C   UNL     1       2.994   2.294  18.747  0.00  0.00    +0.000 C 
ATOM     19  N   UNL     1       3.924   4.726  17.598  0.00  0.00    +0.000 NA
ATOM     20  N   UNL     1       4.046   6.023  17.303  0.00  0.00    +0.000 N 
ATOM     21  C   UNL     1       5.001   6.413  16.298  0.00  0.00    +0.000 C 
BRANCH  17  22
ATOM     22  C   UNL     1       1.476   3.642  20.162  0.00  0.00    +0.000 C 
ATOM     23  C   UNL     1       1.423   2.574  21.216  0.00  0.00    +0.000 C 
ATOM     24  C   UNL     1       2.084   3.881  21.526  0.00  0.00    +0.000 C 
ENDBRANCH  17  22
ENDBRANCH  13  14
ENDBRANCH   1  13
TORSDOF 4
ENDMDL
MODEL 3
REMARK VINA RESULT:      -7.4      3.005      7.776
REMARK  Name = 
REMARK  8 active torsions:
REMARK  status: ('A' for Active; 'I' for Inactive)
REMARK    1  A    between atoms: C_1  and  C_2
REMARK    2  A    between atoms: C_5  and  C_6
REMARK    3  A    between atoms: C_9  and  C_10
REMARK    4  A    between atoms: C_10  and  C_11
REMARK    5  A    between atoms: C_11  and  C_12
REMARK    6  A    between atoms: N_15  and  C_16
REMARK    7  A    between atoms: N_15  and  C_17
REMARK    8  A    between atoms: N_21  and  C_22
REMARK                            x       y       z     vdW  Elec       q    Type
REMARK                         _______ _______ _______ _____ _____    ______ ____
ROOT
ATOM      1  C   UNL     1       3.453   1.953  18.494  0.00  0.00    +0.000 C 
ENDROOT
BRANCH   1  10
ATOM      2  C   UNL     1       5.676   4.821  14.344  0.00  0.00    +0.000 C 
ATOM      3  C   UNL     1       6.146   5.027  15.755  0.00  0.00    +0.000 A 
ATOM      4  N   UNL     1       7.095   5.894  15.992  0.00  0.00    +0.000 NA
ATOM      5  C   UNL     1       7.506   6.063  17.297  0.00  0.00    +0.000 A 
ATOM      6  C   UNL     1       7.007   5.391  18.356  0.00  0.00    +0.000 A 
ATOM      7  C   UNL     1       7.479   5.609  19.754  0.00  0.00    +0.000 C 
ATOM      8  N   UNL     1       5.991   4.459  18.113  0.00  0.00    +0.000 N 
ATOM      9  N   UNL     1       5.289   3.635  18.949  0.00  0.00    +0.000 NA
ATOM     10  C   UNL     1       4.465   2.993  18.103  0.00  0.00    +0.000 A 
ATOM     11  N   UNL     1       4.602   3.358  16.780  0.00  0.00    +0.000 NA
ATOM     12  C   UNL     1       5.553   4.264  16.824  0.00  0.00    +0.000 A 
ENDBRANCH   1  10
BRANCH   1  13
ATOM     13  C   UNL     1       2.029   2.443  18.771  0.00  0.00    +0.000 C 
BRANCH  13  14
ATOM     14  C   UNL     1       1.990   3.828  19.366  0.00  0.00    +0.000 A 
ATOM     15  N   UNL     1       1.866   4.991  18.748  0.00  0.00    +0.000 NA
ATOM     16  C   UNL     1       1.841   5.932  19.760  0.00  0.00    +0.000 A 
ATOM     17  N   UNL     1       1.625   7.254  19.525  0.00  0.00    +0.000 N 
ATOM     18  C   UNL     1       1.755   8.203  20.623  0.00  0.00    +0.000 C 
ATOM     19  N   UNL     1       1.992   5.389  20.972  0.00  0.00    +0.000 NA
ATOM     20  N   UNL     1       2.060   4.081  20.711  0.00  0.00    +0.000 N 
ATOM     21  C   UNL     1       2.133   3.161  21.816  0.00  0.00    +0.000 C 
BRANCH  17  22
ATOM     22  C   UNL     1       1.786   7.818  18.179  0.00  0.00    +0.000 C 
ATOM     23  C   UNL     1       2.167   9.246  17.915  0.00  0.00    +0.000 C 
ATOM     24  C   UNL     1       3.172   8.161  17.682  0.00  0.00    +0.000 C 
ENDBRANCH  17  22
ENDBRANCH  13  14
ENDBRANCH   1  13
TORSDOF 4
ENDMDL
MODEL 4
REMARK VINA RESULT:      -7.2      2.742      8.057
REMARK  Name = 
REMARK  8 active torsions:
REMARK  status: ('A' for Active; 'I' for Inactive)
REMARK    1  A    between atoms: C_1  and  C_2
REMARK    2  A    between atoms: C_5  and  C_6
REMARK    3  A    between atoms: C_9  and  C_10
REMARK    4  A    between atoms: C_10  and  C_11
REMARK    5  A    between atoms: C_11  and  C_12
REMARK    6  A    between atoms: N_15  and  C_16
REMARK    7  A    between atoms: N_15  and  C_17
REMARK    8  A    between atoms: N_21  and  C_22
REMARK                            x       y       z     vdW  Elec       q    Type
REMARK                         _______ _______ _______ _____ _____    ______ ____
ROOT
ATOM      1  C   UNL     1       3.499   2.484  18.183  0.00  0.00    +0.000 C 
ENDROOT
BRANCH   1  10
ATOM      2  C   UNL     1       7.427   6.352  18.122  0.00  0.00    +0.000 C 
ATOM      3  C   UNL     1       7.021   5.653  16.856  0.00  0.00    +0.000 A 
ATOM      4  N   UNL     1       7.607   5.974  15.733  0.00  0.00    +0.000 NA
ATOM      5  C   UNL     1       7.215   5.315  14.588  0.00  0.00    +0.000 A 
ATOM      6  C   UNL     1       6.259   4.364  14.534  0.00  0.00    +0.000 A 
ATOM      7  C   UNL     1       5.869   3.673  13.271  0.00  0.00    +0.000 C 
ATOM      8  N   UNL     1       5.624   4.014  15.731  0.00  0.00    +0.000 N 
ATOM      9  N   UNL     1       4.638   3.107  16.010  0.00  0.00    +0.000 NA
ATOM     10  C   UNL     1       4.474   3.253  17.337  0.00  0.00    +0.000 A 
ATOM     11  N   UNL     1       5.294   4.198  17.917  0.00  0.00    +0.000 NA
ATOM     12  C   UNL     1       5.990   4.647  16.896  0.00  0.00    +0.000 A 
ENDBRANCH   1  10
BRANCH   1  13
ATOM     13  C   UNL     1       2.067   3.024  18.252  0.00  0.00    +0.000 C 
BRANCH  13  14
ATOM     14  C   UNL     1       1.940   4.242  19.131  0.00  0.00    +0.000 A 
ATOM     15  N   UNL     1       2.036   5.518  18.796  0.00  0.00    +0.000 NA
ATOM     16  C   UNL     1       1.794   6.213  19.965  0.00  0.00    +0.000 A 
ATOM     17  N   UNL     1       1.708   7.570  20.007  0.00  0.00    +0.000 N 
ATOM     18  C   UNL     1       1.594   8.238  21.296  0.00  0.00    +0.000 C 
ATOM     19  N   UNL     1       1.600   5.406  21.013  0.00  0.00    +0.000 NA
ATOM     20  N   UNL     1       1.671   4.187  20.473  0.00  0.00    +0.000 N 
ATOM     21  C   UNL     1       1.412   3.046  21.312  0.00  0.00    +0.000 C 
BRANCH  17  22
ATOM     22  C   UNL     1       2.239   8.393  18.913  0.00  0.00    +0.000 C 
ATOM     23  C   UNL     1       1.570   8.532  17.575  0.00  0.00    +0.000 C 
ATOM     24  C   UNL     1       1.528   9.676  18.541  0.00  0.00    +0.000 C 
ENDBRANCH  17  22
ENDBRANCH  13  14
ENDBRANCH   1  13
TORSDOF 4
ENDMDL
MODEL 5
REMARK VINA RESULT:      -7.1      1.963      2.451
REMARK  Name = 
REMARK  8 active torsions:
REMARK  status: ('A' for Active; 'I' for Inactive)
REMARK    1  A    between atoms: C_1  and  C_2
REMARK    2  A    between atoms: C_5  and  C_6
REMARK    3  A    between atoms: C_9  and  C_10
REMARK    4  A    between atoms: C_10  and  C_11
REMARK    5  A    between atoms: C_11  and  C_12
REMARK    6  A    between atoms: N_15  and  C_16
REMARK    7  A    between atoms: N_15  and  C_17
REMARK    8  A    between atoms: N_21  and  C_22
REMARK                            x       y       z     vdW  Elec       q    Type
REMARK                         _______ _______ _______ _____ _____    ______ ____
ROOT
ATOM      1  C   UNL     1       2.079   8.852  18.943  0.00  0.00    +0.000 C 
ENDROOT
BRANCH   1  10
ATOM      2  C   UNL     1      -1.485  12.395  21.208  0.00  0.00    +0.000 C 
ATOM      3  C   UNL     1      -1.766  11.779  19.868  0.00  0.00    +0.000 A 
ATOM      4  N   UNL     1      -2.870  12.088  19.242  0.00  0.00    +0.000 NA
ATOM      5  C   UNL     1      -3.101  11.508  18.012  0.00  0.00    +0.000 A 
ATOM      6  C   UNL     1      -2.273  10.631  17.406  0.00  0.00    +0.000 A 
ATOM      7  C   UNL     1      -2.561  10.029  16.071  0.00  0.00    +0.000 C 
ATOM      8  N   UNL     1      -1.088  10.292  18.069  0.00  0.00    +0.000 N 
ATOM      9  N   UNL     1      -0.060   9.455  17.731  0.00  0.00    +0.000 NA
ATOM     10  C   UNL     1       0.767   9.568  18.785  0.00  0.00    +0.000 A 
ATOM     11  N   UNL     1       0.327  10.424  19.772  0.00  0.00    +0.000 NA
ATOM     12  C   UNL     1      -0.821  10.853  19.297  0.00  0.00    +0.000 A 
ENDBRANCH   1  10
BRANCH   1  13
ATOM     13  C   UNL     1       2.634   8.143  17.703  0.00  0.00    +0.000 C 
BRANCH  13  14
ATOM     14  C   UNL     1       2.982   6.699  17.959  0.00  0.00    +0.000 A 
ATOM     15  N   UNL     1       2.356   5.820  18.724  0.00  0.00    +0.000 NA
ATOM     16  C   UNL     1       3.062   4.642  18.566  0.00  0.00    +0.000 A 
ATOM     17  N   UNL     1       2.663   3.468  19.124  0.00  0.00    +0.000 N 
ATOM     18  C   UNL     1       3.533   2.303  19.032  0.00  0.00    +0.000 C 
ATOM     19  N   UNL     1       4.125   4.783  17.767  0.00  0.00    +0.000 NA
ATOM     20  N   UNL     1       4.047   6.059  17.382  0.00  0.00    +0.000 N 
ATOM     21  C   UNL     1       5.001   6.547  16.421  0.00  0.00    +0.000 C 
BRANCH  17  22
ATOM     22  C   UNL     1       1.693   3.448  20.227  0.00  0.00    +0.000 C 
ATOM     23  C   UNL     1       1.683   2.405  21.307  0.00  0.00    +0.000 C 
ATOM     24  C   UNL     1       2.157   3.790  21.625  0.00  0.00    +0.000 C 
ENDBRANCH  17  22
ENDBRANCH  13  14
ENDBRANCH   1  13
TORSDOF 4
ENDMDL
MODEL 6
REMARK VINA RESULT:      -7.1      2.537      7.874
REMARK  Name = 
REMARK  8 active torsions:
REMARK  status: ('A' for Active; 'I' for Inactive)
REMARK    1  A    between atoms: C_1  and  C_2
REMARK    2  A    between atoms: C_5  and  C_6
REMARK    3  A    between atoms: C_9  and  C_10
REMARK    4  A    between atoms: C_10  and  C_11
REMARK    5  A    between atoms: C_11  and  C_12
REMARK    6  A    between atoms: N_15  and  C_16
REMARK    7  A    between atoms: N_15  and  C_17
REMARK    8  A    between atoms: N_21  and  C_22
REMARK                            x       y       z     vdW  Elec       q    Type
REMARK                         _______ _______ _______ _____ _____    ______ ____
ROOT
ATOM      1  C   UNL     1       2.125   8.485  17.875  0.00  0.00    +0.000 C 
ENDROOT
BRANCH   1  10
ATOM      2  C   UNL     1       2.111   4.179  21.316  0.00  0.00    +0.000 C 
ATOM      3  C   UNL     1       2.966   4.170  20.082  0.00  0.00    +0.000 A 
ATOM      4  N   UNL     1       3.713   3.127  19.831  0.00  0.00    +0.000 NA
ATOM      5  C   UNL     1       4.486   3.146  18.689  0.00  0.00    +0.000 A 
ATOM      6  C   UNL     1       4.539   4.169  17.810  0.00  0.00    +0.000 A 
ATOM      7  C   UNL     1       5.388   4.144  16.584  0.00  0.00    +0.000 C 
ATOM      8  N   UNL     1       3.743   5.290  18.071  0.00  0.00    +0.000 N 
ATOM      9  N   UNL     1       3.570   6.465  17.391  0.00  0.00    +0.000 NA
ATOM     10  C   UNL     1       2.681   7.118  18.159  0.00  0.00    +0.000 A 
ATOM     11  N   UNL     1       2.279   6.432  19.285  0.00  0.00    +0.000 NA
ATOM     12  C   UNL     1       2.955   5.308  19.198  0.00  0.00    +0.000 A 
ENDBRANCH   1  10
BRANCH   1  13
ATOM     13  C   UNL     1       1.841   9.382  19.084  0.00  0.00    +0.000 C 
BRANCH  13  14
ATOM     14  C   UNL     1       0.467  10.000  19.047  0.00  0.00    +0.000 A 
ATOM     15  N   UNL     1      -0.352  10.136  18.016  0.00  0.00    +0.000 NA
ATOM     16  C   UNL     1      -1.488  10.723  18.539  0.00  0.00    +0.000 A 
ATOM     17  N   UNL     1      -2.608  10.937  17.798  0.00  0.00    +0.000 N 
ATOM     18  C   UNL     1      -3.714  11.689  18.378  0.00  0.00    +0.000 C 
ATOM     19  N   UNL     1      -1.376  10.993  19.843  0.00  0.00    +0.000 NA
ATOM     20  N   UNL     1      -0.165  10.517  20.147  0.00  0.00    +0.000 N 
ATOM     21  C   UNL     1       0.265  10.554  21.520  0.00  0.00    +0.000 C 
BRANCH  17  22
ATOM     22  C   UNL     1      -2.559  10.917  16.331  0.00  0.00    +0.000 C 
ATOM     23  C   UNL     1      -2.813   9.688  15.506  0.00  0.00    +0.000 C 
ATOM     24  C   UNL     1      -3.845  10.772  15.549  0.00  0.00    +0.000 C 
ENDBRANCH  17  22
ENDBRANCH  13  14
ENDBRANCH   1  13
TORSDOF 4
ENDMDL
MODEL 7
REMARK VINA RESULT:      -7.1      2.068      8.140
REMARK  Name = 
REMARK  8 active torsions:
REMARK  status: ('A' for Active; 'I' for Inactive)
REMARK    1  A    between atoms: C_1  and  C_2
REMARK    2  A    between atoms: C_5  and  C_6
REMARK    3  A    between atoms: C_9  and  C_10
REMARK    4  A    between atoms: C_10  and  C_11
REMARK    5  A    between atoms: C_11  and  C_12
REMARK    6  A    between atoms: N_15  and  C_16
REMARK    7  A    between atoms: N_15  and  C_17
REMARK    8  A    between atoms: N_21  and  C_22
REMARK                            x       y       z     vdW  Elec       q    Type
REMARK                         _______ _______ _______ _____ _____    ______ ____
ROOT
ATOM      1  C   UNL     1       2.045   7.812  19.839  0.00  0.00    +0.000 C 
ENDROOT
BRANCH   1  10
ATOM      2  C   UNL     1       1.628   2.549  21.423  0.00  0.00    +0.000 C 
ATOM      3  C   UNL     1       2.378   2.915  20.175  0.00  0.00    +0.000 A 
ATOM      4  N   UNL     1       2.938   1.971  19.466  0.00  0.00    +0.000 NA
ATOM      5  C   UNL     1       3.619   2.337  18.324  0.00  0.00    +0.000 A 
ATOM      6  C   UNL     1       3.761   3.605  17.885  0.00  0.00    +0.000 A 
ATOM      7  C   UNL     1       4.505   3.955  16.639  0.00  0.00    +0.000 C 
ATOM      8  N   UNL     1       3.167   4.624  18.638  0.00  0.00    +0.000 N 
ATOM      9  N   UNL     1       3.126   5.980  18.466  0.00  0.00    +0.000 NA
ATOM     10  C   UNL     1       2.406   6.387  19.526  0.00  0.00    +0.000 A 
ATOM     11  N   UNL     1       1.988   5.372  20.361  0.00  0.00    +0.000 NA
ATOM     12  C   UNL     1       2.477   4.298  19.782  0.00  0.00    +0.000 A 
ENDBRANCH   1  10
BRANCH   1  13
ATOM     13  C   UNL     1       1.216   8.055  21.103  0.00  0.00    +0.000 C 
BRANCH  13  14
ATOM     14  C   UNL     1       0.283   9.233  20.976  0.00  0.00    +0.000 A 
ATOM     15  N   UNL     1      -0.237   9.762  19.880  0.00  0.00    +0.000 NA
ATOM     16  C   UNL     1      -1.052  10.784  20.330  0.00  0.00    +0.000 A 
ATOM     17  N   UNL     1      -1.843  11.510  19.496  0.00  0.00    +0.000 N 
ATOM     18  C   UNL     1      -2.565  12.662  20.022  0.00  0.00    +0.000 C 
ATOM     19  N   UNL     1      -1.012  10.927  21.659  0.00  0.00    +0.000 NA
ATOM     20  N   UNL     1      -0.197   9.943  22.045  0.00  0.00    +0.000 N 
ATOM     21  C   UNL     1       0.010   9.732  23.454  0.00  0.00    +0.000 C 
BRANCH  17  22
ATOM     22  C   UNL     1      -1.605  11.520  18.048  0.00  0.00    +0.000 C 
ATOM     23  C   UNL     1      -1.716  10.301  17.177  0.00  0.00    +0.000 C 
ATOM     24  C   UNL     1      -2.776  11.356  17.105  0.00  0.00    +0.000 C 
ENDBRANCH  17  22
ENDBRANCH  13  14
ENDBRANCH   1  13
TORSDOF 4
ENDMDL
MODEL 8
REMARK VINA RESULT:      -7.1      1.538      1.866
REMARK  Name = 
REMARK  8 active torsions:
REMARK  status: ('A' for Active; 'I' for Inactive)
REMARK    1  A    between atoms: C_1  and  C_2
REMARK    2  A    between atoms: C_5  and  C_6
REMARK    3  A    between atoms: C_9  and  C_10
REMARK    4  A    between atoms: C_10  and  C_11
REMARK    5  A    between atoms: C_11  and  C_12
REMARK    6  A    between atoms: N_15  and  C_16
REMARK    7  A    between atoms: N_15  and  C_17
REMARK    8  A    between atoms: N_21  and  C_22
REMARK                            x       y       z     vdW  Elec       q    Type
REMARK                         _______ _______ _______ _____ _____    ______ ____
ROOT
ATOM      1  C   UNL     1       2.871   7.597  17.187  0.00  0.00    +0.000 C 
ENDROOT
BRANCH   1  10
ATOM      2  C   UNL     1      -0.129   8.749  21.666  0.00  0.00    +0.000 C 
ATOM      3  C   UNL     1       0.356   9.848  20.767  0.00  0.00    +0.000 A 
ATOM      4  N   UNL     1       0.056  11.087  21.054  0.00  0.00    +0.000 NA
ATOM      5  C   UNL     1       0.517  12.076  20.211  0.00  0.00    +0.000 A 
ATOM      6  C   UNL     1       1.251  11.861  19.099  0.00  0.00    +0.000 A 
ATOM      7  C   UNL     1       1.732  12.964  18.216  0.00  0.00    +0.000 C 
ATOM      8  N   UNL     1       1.576  10.537  18.781  0.00  0.00    +0.000 N 
ATOM      9  N   UNL     1       2.291   9.996  17.748  0.00  0.00    +0.000 NA
ATOM     10  C   UNL     1       2.237   8.679  18.015  0.00  0.00    +0.000 A 
ATOM     11  N   UNL     1       1.531   8.351  19.153  0.00  0.00    +0.000 NA
ATOM     12  C   UNL     1       1.137   9.523  19.600  0.00  0.00    +0.000 A 
ENDBRANCH   1  10
BRANCH   1  13
ATOM     13  C   UNL     1       4.328   7.248  17.504  0.00  0.00    +0.000 C 
BRANCH  13  14
ATOM     14  C   UNL     1       4.475   5.924  18.211  0.00  0.00    +0.000 A 
ATOM     15  N   UNL     1       3.639   5.338  19.052  0.00  0.00    +0.000 NA
ATOM     16  C   UNL     1       4.235   4.131  19.364  0.00  0.00    +0.000 A 
ATOM     17  N   UNL     1       3.626   3.192  20.137  0.00  0.00    +0.000 N 
ATOM     18  C   UNL     1       4.372   2.007  20.540  0.00  0.00    +0.000 C 
ATOM     19  N   UNL     1       5.427   3.978  18.779  0.00  0.00    +0.000 NA
ATOM     20  N   UNL     1       5.550   5.090  18.049  0.00  0.00    +0.000 N 
ATOM     21  C   UNL     1       6.700   5.228  17.194  0.00  0.00    +0.000 C 
BRANCH  17  22
ATOM     22  C   UNL     1       2.486   3.543  20.994  0.00  0.00    +0.000 C 
ATOM     23  C   UNL     1       1.286   4.306  20.511  0.00  0.00    +0.000 C 
ATOM     24  C   UNL     1       1.163   2.839  20.788  0.00  0.00    +0.000 C 
ENDBRANCH  17  22
ENDBRANCH  13  14
ENDBRANCH   1  13
TORSDOF 4
ENDMDL
MODEL 9
REMARK VINA RESULT:      -7.1      2.695      8.101
REMARK  Name = 
REMARK  8 active torsions:
REMARK  status: ('A' for Active; 'I' for Inactive)
REMARK    1  A    between atoms: C_1  and  C_2
REMARK    2  A    between atoms: C_5  and  C_6
REMARK    3  A    between atoms: C_9  and  C_10
REMARK    4  A    between atoms: C_10  and  C_11
REMARK    5  A    between atoms: C_11  and  C_12
REMARK    6  A    between atoms: N_15  and  C_16
REMARK    7  A    between atoms: N_15  and  C_17
REMARK    8  A    between atoms: N_21  and  C_22
REMARK                            x       y       z     vdW  Elec       q    Type
REMARK                         _______ _______ _______ _____ _____    ______ ____
ROOT
ATOM      1  C   UNL     1       1.847   8.322  17.838  0.00  0.00    +0.000 C 
ENDROOT
BRANCH   1  10
ATOM      2  C   UNL     1       6.848   6.007  17.692  0.00  0.00    +0.000 C 
ATOM      3  C   UNL     1       5.691   5.289  18.323  0.00  0.00    +0.000 A 
ATOM      4  N   UNL     1       5.879   4.102  18.837  0.00  0.00    +0.000 NA
ATOM      5  C   UNL     1       4.799   3.467  19.411  0.00  0.00    +0.000 A 
ATOM      6  C   UNL     1       3.550   3.976  19.475  0.00  0.00    +0.000 A 
ATOM      7  C   UNL     1       2.409   3.254  20.111  0.00  0.00    +0.000 C 
ATOM      8  N   UNL     1       3.337   5.246  18.926  0.00  0.00    +0.000 N 
ATOM      9  N   UNL     1       2.216   6.024  18.834  0.00  0.00    +0.000 NA
ATOM     10  C   UNL     1       2.672   7.119  18.202  0.00  0.00    +0.000 A 
ATOM     11  N   UNL     1       4.014   7.084  17.885  0.00  0.00    +0.000 NA
ATOM     12  C   UNL     1       4.392   5.913  18.347  0.00  0.00    +0.000 A 
ENDBRANCH   1  10
BRANCH   1  13
ATOM     13  C   UNL     1       1.686   9.401  18.913  0.00  0.00    +0.000 C 
BRANCH  13  14
ATOM     14  C   UNL     1       0.317  10.033  18.909  0.00  0.00    +0.000 A 
ATOM     15  N   UNL     1      -0.515  10.201  17.894  0.00  0.00    +0.000 NA
ATOM     16  C   UNL     1      -1.638  10.786  18.446  0.00  0.00    +0.000 A 
ATOM     17  N   UNL     1      -2.767  11.027  17.726  0.00  0.00    +0.000 N 
ATOM     18  C   UNL     1      -3.857  11.775  18.339  0.00  0.00    +0.000 C 
ATOM     19  N   UNL     1      -1.505  11.023  19.755  0.00  0.00    +0.000 NA
ATOM     20  N   UNL     1      -0.295  10.530  20.030  0.00  0.00    +0.000 N 
ATOM     21  C   UNL     1       0.154  10.531  21.398  0.00  0.00    +0.000 C 
BRANCH  17  22
ATOM     22  C   UNL     1      -2.737  11.041  16.258  0.00  0.00    +0.000 C 
ATOM     23  C   UNL     1      -2.745   9.800  15.414  0.00  0.00    +0.000 C 
ATOM     24  C   UNL     1      -3.979  10.645  15.490  0.00  0.00    +0.000 C 
ENDBRANCH  17  22
ENDBRANCH  13  14
ENDBRANCH   1  13
TORSDOF 4
ENDMDL
