MODEL 1
REMARK VINA RESULT:      -8.5      0.000      0.000
REMARK  Name = 
REMARK  6 active torsions:
REMARK  status: ('A' for Active; 'I' for Inactive)
REMARK    1  A    between atoms: C_2  and  C_3
REMARK    2  A    between atoms: C_3  and  N_4
REMARK    3  A    between atoms: N_11  and  C_12
REMARK    4  A    between atoms: N_20  and  C_21
REMARK    5  A    between atoms: C_21  and  C_22
REMARK    6  A    between atoms: C_22  and  C_23
REMARK                            x       y       z     vdW  Elec       q    Type
REMARK                         _______ _______ _______ _____ _____    ______ ____
ROOT
ATOM      1  N   UNL     1       4.358   3.999  18.705  0.00  0.00    +0.000 N 
ATOM      2  C   UNL     1       4.044   3.440  17.471  0.00  0.00    +0.000 A 
ATOM      3  N   UNL     1       4.664   3.670  16.357  0.00  0.00    +0.000 NA
ATOM      4  C   UNL     1       5.714   4.523  16.489  0.00  0.00    +0.000 A 
ATOM      5  C   UNL     1       6.124   5.156  17.635  0.00  0.00    +0.000 A 
ATOM      6  N   UNL     1       7.252   5.876  17.408  0.00  0.00    +0.000 NA
ATOM      7  N   UNL     1       7.578   5.707  16.127  0.00  0.00    +0.000 NA
ATOM      8  N   UNL     1       6.640   4.908  15.531  0.00  0.00    +0.000 N 
ATOM      9  C   UNL     1       5.381   4.946  18.855  0.00  0.00    +0.000 A 
ATOM     10  O   UNL     1       5.591   5.543  19.909  0.00  0.00    +0.000 OA
ENDROOT
BRANCH   8  11
ATOM     11  C   UNL     1       6.711   4.557  14.155  0.00  0.00    +0.000 A 
ATOM     12  C   UNL     1       5.835   3.593  13.633  0.00  0.00    +0.000 A 
ATOM     13  C   UNL     1       5.868   3.288  12.268  0.00  0.00    +0.000 A 
ATOM     14  C   UNL     1       6.779   3.921  11.425  0.00  0.00    +0.000 A 
ATOM     15  C   UNL     1       7.671   4.854  11.944  0.00  0.00    +0.000 A 
ATOM     16  C   UNL     1       7.638   5.170  13.301  0.00  0.00    +0.000 A 
ENDBRANCH   8  11
BRANCH   1  17
ATOM     17  C   UNL     1       3.605   3.578  19.873  0.00  0.00    +0.000 C 
BRANCH  17  19
ATOM     18  O   UNL     1       1.225   3.949  19.835  0.00  0.00    +0.000 OA
ATOM     19  C   UNL     1       2.341   4.415  20.048  0.00  0.00    +0.000 C 
ATOM     20  N   UNL     1       2.550   5.699  20.506  0.00  0.00    +0.000 N 
ATOM     21  H   UNL     1       3.489   5.968  20.792  0.00  0.00    +0.000 HD
BRANCH  20  22
ATOM     22  C   UNL     1       1.433   6.571  20.836  0.00  0.00    +0.000 C 
BRANCH  22  23
ATOM     23  C   UNL     1       1.682   8.006  20.381  0.00  0.00    +0.000 C 
BRANCH  23  24
ATOM     24  C   UNL     1       0.796   9.012  21.071  0.00  0.00    +0.000 A 
ATOM     25  C   UNL     1       0.445   8.849  22.419  0.00  0.00    +0.000 A 
ATOM     26  C   UNL     1      -0.334   9.810  23.068  0.00  0.00    +0.000 A 
ATOM     27  C   UNL     1      -0.777  10.935  22.376  0.00  0.00    +0.000 A 
ATOM     28  C   UNL     1      -0.456  11.093  21.028  0.00  0.00    +0.000 A 
ATOM     29  C   UNL     1       0.323  10.135  20.378  0.00  0.00    +0.000 A 
ENDBRANCH  23  24
ENDBRANCH  22  23
ENDBRANCH  20  22
ENDBRANCH  17  19
ENDBRANCH   1  17
TORSDOF 6
ENDMDL
MODEL 2
REMARK VINA RESULT:      -8.2      1.787      1.988
REMARK  Name = 
REMARK  6 active torsions:
REMARK  status: ('A' for Active; 'I' for Inactive)
REMARK    1  A    between atoms: C_2  and  C_3
REMARK    2  A    between atoms: C_3  and  N_4
REMARK    3  A    between atoms: N_11  and  C_12
REMARK    4  A    between atoms: N_20  and  C_21
REMARK    5  A    between atoms: C_21  and  C_22
REMARK    6  A    between atoms: C_22  and  C_23
REMARK                            x       y       z     vdW  Elec       q    Type
REMARK                         _______ _______ _______ _____ _____    ______ ____
ROOT
ATOM      1  N   UNL     1       3.915   4.292  18.590  0.00  0.00    +0.000 N 
ATOM      2  C   UNL     1       3.561   4.261  17.246  0.00  0.00    +0.000 A 
ATOM      3  N   UNL     1       4.380   4.345  16.246  0.00  0.00    +0.000 NA
ATOM      4  C   UNL     1       5.683   4.447  16.622  0.00  0.00    +0.000 A 
ATOM      5  C   UNL     1       6.170   4.503  17.903  0.00  0.00    +0.000 A 
ATOM      6  N   UNL     1       7.528   4.530  17.899  0.00  0.00    +0.000 NA
ATOM      7  N   UNL     1       7.920   4.481  16.626  0.00  0.00    +0.000 NA
ATOM      8  N   UNL     1       6.815   4.459  15.820  0.00  0.00    +0.000 N 
ATOM      9  C   UNL     1       5.240   4.481  19.007  0.00  0.00    +0.000 A 
ATOM     10  O   UNL     1       5.556   4.637  20.185  0.00  0.00    +0.000 OA
ENDROOT
BRANCH   8  11
ATOM     11  C   UNL     1       6.914   4.420  14.402  0.00  0.00    +0.000 A 
ATOM     12  C   UNL     1       6.158   3.489  13.674  0.00  0.00    +0.000 A 
ATOM     13  C   UNL     1       6.214   3.488  12.275  0.00  0.00    +0.000 A 
ATOM     14  C   UNL     1       7.032   4.391  11.601  0.00  0.00    +0.000 A 
ATOM     15  C   UNL     1       7.809   5.294  12.320  0.00  0.00    +0.000 A 
ATOM     16  C   UNL     1       7.750   5.309  13.713  0.00  0.00    +0.000 A 
ENDBRANCH   8  11
BRANCH   1  17
ATOM     17  C   UNL     1       2.877   4.113  19.590  0.00  0.00    +0.000 C 
BRANCH  17  19
ATOM     18  O   UNL     1       1.439   5.548  20.884  0.00  0.00    +0.000 OA
ATOM     19  C   UNL     1       2.197   5.437  19.925  0.00  0.00    +0.000 C 
ATOM     20  N   UNL     1       2.537   6.492  19.104  0.00  0.00    +0.000 N 
ATOM     21  H   UNL     1       3.277   6.357  18.417  0.00  0.00    +0.000 HD
BRANCH  20  22
ATOM     22  C   UNL     1       2.063   7.841  19.377  0.00  0.00    +0.000 C 
BRANCH  22  23
ATOM     23  C   UNL     1       1.909   8.655  18.095  0.00  0.00    +0.000 C 
BRANCH  23  24
ATOM     24  C   UNL     1       0.973   9.828  18.245  0.00  0.00    +0.000 A 
ATOM     25  C   UNL     1      -0.385   9.704  17.919  0.00  0.00    +0.000 A 
ATOM     26  C   UNL     1      -1.259  10.777  18.108  0.00  0.00    +0.000 A 
ATOM     27  C   UNL     1      -0.783  11.985  18.612  0.00  0.00    +0.000 A 
ATOM     28  C   UNL     1       0.570  12.128  18.914  0.00  0.00    +0.000 A 
ATOM     29  C   UNL     1       1.445  11.056  18.727  0.00  0.00    +0.000 A 
ENDBRANCH  23  24
ENDBRANCH  22  23
ENDBRANCH  20  22
ENDBRANCH  17  19
ENDBRANCH   1  17
TORSDOF 6
ENDMDL
MODEL 3
REMARK VINA RESULT:      -8.1      1.007      1.775
REMARK  Name = 
REMARK  6 active torsions:
REMARK  status: ('A' for Active; 'I' for Inactive)
REMARK    1  A    between atoms: C_2  and  C_3
REMARK    2  A    between atoms: C_3  and  N_4
REMARK    3  A    between atoms: N_11  and  C_12
REMARK    4  A    between atoms: N_20  and  C_21
REMARK    5  A    between atoms: C_21  and  C_22
REMARK    6  A    between atoms: C_22  and  C_23
REMARK                            x       y       z     vdW  Elec       q    Type
REMARK                         _______ _______ _______ _____ _____    ______ ____
ROOT
ATOM      1  N   UNL     1       4.359   4.191  18.839  0.00  0.00    +0.000 N 
ATOM      2  C   UNL     1       3.722   3.885  17.642  0.00  0.00    +0.000 A 
ATOM      3  N   UNL     1       4.262   3.925  16.465  0.00  0.00    +0.000 NA
ATOM      4  C   UNL     1       5.574   4.281  16.485  0.00  0.00    +0.000 A 
ATOM      5  C   UNL     1       6.320   4.621  17.585  0.00  0.00    +0.000 A 
ATOM      6  N   UNL     1       7.612   4.849  17.235  0.00  0.00    +0.000 NA
ATOM      7  N   UNL     1       7.708   4.650  15.921  0.00  0.00    +0.000 NA
ATOM      8  N   UNL     1       6.472   4.330  15.429  0.00  0.00    +0.000 N 
ATOM      9  C   UNL     1       5.686   4.643  18.882  0.00  0.00    +0.000 A 
ATOM     10  O   UNL     1       6.226   5.037  19.914  0.00  0.00    +0.000 OA
ENDROOT
BRANCH   8  11
ATOM     11  C   UNL     1       6.253   4.072  14.048  0.00  0.00    +0.000 A 
ATOM     12  C   UNL     1       7.304   4.223  13.132  0.00  0.00    +0.000 A 
ATOM     13  C   UNL     1       7.102   3.916  11.781  0.00  0.00    +0.000 A 
ATOM     14  C   UNL     1       5.856   3.479  11.336  0.00  0.00    +0.000 A 
ATOM     15  C   UNL     1       4.802   3.358  12.236  0.00  0.00    +0.000 A 
ATOM     16  C   UNL     1       4.998   3.653  13.584  0.00  0.00    +0.000 A 
ENDBRANCH   8  11
BRANCH   1  17
ATOM     17  C   UNL     1       3.626   4.027  20.082  0.00  0.00    +0.000 C 
BRANCH  17  19
ATOM     18  O   UNL     1       1.316   4.655  20.347  0.00  0.00    +0.000 OA
ATOM     19  C   UNL     1       2.475   5.024  20.182  0.00  0.00    +0.000 C 
ATOM     20  N   UNL     1       2.846   6.351  20.123  0.00  0.00    +0.000 N 
ATOM     21  H   UNL     1       3.838   6.580  20.125  0.00  0.00    +0.000 HD
BRANCH  20  22
ATOM     22  C   UNL     1       1.874   7.413  20.328  0.00  0.00    +0.000 C 
BRANCH  22  23
ATOM     23  C   UNL     1       1.826   8.372  19.142  0.00  0.00    +0.000 C 
BRANCH  23  24
ATOM     24  C   UNL     1       1.052   9.634  19.428  0.00  0.00    +0.000 A 
ATOM     25  C   UNL     1       1.234  10.778  18.637  0.00  0.00    +0.000 A 
ATOM     26  C   UNL     1       0.478  11.928  18.873  0.00  0.00    +0.000 A 
ATOM     27  C   UNL     1      -0.457  11.951  19.905  0.00  0.00    +0.000 A 
ATOM     28  C   UNL     1      -0.627  10.829  20.714  0.00  0.00    +0.000 A 
ATOM     29  C   UNL     1       0.126   9.677  20.480  0.00  0.00    +0.000 A 
ENDBRANCH  23  24
ENDBRANCH  22  23
ENDBRANCH  20  22
ENDBRANCH  17  19
ENDBRANCH   1  17
TORSDOF 6
ENDMDL
MODEL 4
REMARK VINA RESULT:      -8.1      1.362      1.709
REMARK  Name = 
REMARK  6 active torsions:
REMARK  status: ('A' for Active; 'I' for Inactive)
REMARK    1  A    between atoms: C_2  and  C_3
REMARK    2  A    between atoms: C_3  and  N_4
REMARK    3  A    between atoms: N_11  and  C_12
REMARK    4  A    between atoms: N_20  and  C_21
REMARK    5  A    between atoms: C_21  and  C_22
REMARK    6  A    between atoms: C_22  and  C_23
REMARK                            x       y       z     vdW  Elec       q    Type
REMARK                         _______ _______ _______ _____ _____    ______ ____
ROOT
ATOM      1  N   UNL     1       4.220   5.450  18.624  0.00  0.00    +0.000 N 
ATOM      2  C   UNL     1       3.832   5.497  17.290  0.00  0.00    +0.000 A 
ATOM      3  N   UNL     1       4.602   5.280  16.271  0.00  0.00    +0.000 NA
ATOM      4  C   UNL     1       5.878   4.962  16.615  0.00  0.00    +0.000 A 
ATOM      5  C   UNL     1       6.398   4.895  17.883  0.00  0.00    +0.000 A 
ATOM      6  N   UNL     1       7.689   4.477  17.850  0.00  0.00    +0.000 NA
ATOM      7  N   UNL     1       8.004   4.265  16.572  0.00  0.00    +0.000 NA
ATOM      8  N   UNL     1       6.926   4.581  15.791  0.00  0.00    +0.000 N 
ATOM      9  C   UNL     1       5.547   5.209  19.006  0.00  0.00    +0.000 A 
ATOM     10  O   UNL     1       5.934   5.288  20.171  0.00  0.00    +0.000 OA
ENDROOT
BRANCH   8  11
ATOM     11  C   UNL     1       6.962   4.470  14.373  0.00  0.00    +0.000 A 
ATOM     12  C   UNL     1       6.163   3.515  13.726  0.00  0.00    +0.000 A 
ATOM     13  C   UNL     1       6.156   3.443  12.329  0.00  0.00    +0.000 A 
ATOM     14  C   UNL     1       6.955   4.300  11.575  0.00  0.00    +0.000 A 
ATOM     15  C   UNL     1       7.774   5.227  12.213  0.00  0.00    +0.000 A 
ATOM     16  C   UNL     1       7.777   5.311  13.605  0.00  0.00    +0.000 A 
ENDBRANCH   8  11
BRANCH   1  17
ATOM     17  C   UNL     1       3.212   5.649  19.651  0.00  0.00    +0.000 C 
BRANCH  17  19
ATOM     18  O   UNL     1       2.660   7.700  18.515  0.00  0.00    +0.000 OA
ATOM     19  C   UNL     1       2.575   7.032  19.541  0.00  0.00    +0.000 C 
ATOM     20  N   UNL     1       1.867   7.438  20.652  0.00  0.00    +0.000 N 
ATOM     21  H   UNL     1       1.725   6.772  21.410  0.00  0.00    +0.000 HD
BRANCH  20  22
ATOM     22  C   UNL     1       1.104   8.677  20.647  0.00  0.00    +0.000 C 
BRANCH  22  23
ATOM     23  C   UNL     1       0.449   8.943  21.999  0.00  0.00    +0.000 C 
BRANCH  23  24
ATOM     24  C   UNL     1      -0.445  10.158  21.999  0.00  0.00    +0.000 A 
ATOM     25  C   UNL     1      -1.085  10.574  23.175  0.00  0.00    +0.000 A 
ATOM     26  C   UNL     1      -1.870  11.729  23.182  0.00  0.00    +0.000 A 
ATOM     27  C   UNL     1      -2.032  12.471  22.015  0.00  0.00    +0.000 A 
ATOM     28  C   UNL     1      -1.422  12.052  20.834  0.00  0.00    +0.000 A 
ATOM     29  C   UNL     1      -0.636  10.899  20.824  0.00  0.00    +0.000 A 
ENDBRANCH  23  24
ENDBRANCH  22  23
ENDBRANCH  20  22
ENDBRANCH  17  19
ENDBRANCH   1  17
TORSDOF 6
ENDMDL
MODEL 5
REMARK VINA RESULT:      -8.0      4.420      6.883
REMARK  Name = 
REMARK  6 active torsions:
REMARK  status: ('A' for Active; 'I' for Inactive)
REMARK    1  A    between atoms: C_2  and  C_3
REMARK    2  A    between atoms: C_3  and  N_4
REMARK    3  A    between atoms: N_11  and  C_12
REMARK    4  A    between atoms: N_20  and  C_21
REMARK    5  A    between atoms: C_21  and  C_22
REMARK    6  A    between atoms: C_22  and  C_23
REMARK                            x       y       z     vdW  Elec       q    Type
REMARK                         _______ _______ _______ _____ _____    ______ ____
ROOT
ATOM      1  N   UNL     1       1.199  10.313  18.988  0.00  0.00    +0.000 N 
ATOM      2  C   UNL     1       1.897   9.682  17.965  0.00  0.00    +0.000 A 
ATOM      3  N   UNL     1       2.358   8.472  17.998  0.00  0.00    +0.000 NA
ATOM      4  C   UNL     1       2.076   7.818  19.156  0.00  0.00    +0.000 A 
ATOM      5  C   UNL     1       1.413   8.320  20.247  0.00  0.00    +0.000 A 
ATOM      6  N   UNL     1       1.249   7.359  21.192  0.00  0.00    +0.000 NA
ATOM      7  N   UNL     1       1.792   6.239  20.716  0.00  0.00    +0.000 NA
ATOM      8  N   UNL     1       2.332   6.495  19.486  0.00  0.00    +0.000 N 
ATOM      9  C   UNL     1       0.967   9.693  20.224  0.00  0.00    +0.000 A 
ATOM     10  O   UNL     1       0.464  10.277  21.182  0.00  0.00    +0.000 OA
ENDROOT
BRANCH   8  11
ATOM     11  C   UNL     1       2.997   5.491  18.729  0.00  0.00    +0.000 A 
ATOM     12  C   UNL     1       2.250   4.551  18.004  0.00  0.00    +0.000 A 
ATOM     13  C   UNL     1       2.905   3.598  17.216  0.00  0.00    +0.000 A 
ATOM     14  C   UNL     1       4.297   3.564  17.161  0.00  0.00    +0.000 A 
ATOM     15  C   UNL     1       5.042   4.474  17.904  0.00  0.00    +0.000 A 
ATOM     16  C   UNL     1       4.397   5.433  18.683  0.00  0.00    +0.000 A 
ENDBRANCH   8  11
BRANCH   1  17
ATOM     17  C   UNL     1       0.688  11.654  18.761  0.00  0.00    +0.000 C 
BRANCH  17  19
ATOM     18  O   UNL     1      -1.603  12.393  18.812  0.00  0.00    +0.000 OA
ATOM     19  C   UNL     1      -0.776  11.623  18.333  0.00  0.00    +0.000 C 
ATOM     20  N   UNL     1      -1.076  10.708  17.346  0.00  0.00    +0.000 N 
ATOM     21  H   UNL     1      -0.312  10.203  16.901  0.00  0.00    +0.000 HD
BRANCH  20  22
ATOM     22  C   UNL     1      -2.404  10.650  16.752  0.00  0.00    +0.000 C 
BRANCH  22  23
ATOM     23  C   UNL     1      -3.420  10.022  17.700  0.00  0.00    +0.000 C 
BRANCH  23  24
ATOM     24  C   UNL     1      -4.719  10.783  17.771  0.00  0.00    +0.000 A 
ATOM     25  C   UNL     1      -5.745  10.369  18.632  0.00  0.00    +0.000 A 
ATOM     26  C   UNL     1      -6.926  11.107  18.732  0.00  0.00    +0.000 A 
ATOM     27  C   UNL     1      -7.099  12.258  17.967  0.00  0.00    +0.000 A 
ATOM     28  C   UNL     1      -6.096  12.664  17.087  0.00  0.00    +0.000 A 
ATOM     29  C   UNL     1      -4.914  11.929  16.986  0.00  0.00    +0.000 A 
ENDBRANCH  23  24
ENDBRANCH  22  23
ENDBRANCH  20  22
ENDBRANCH  17  19
ENDBRANCH   1  17
TORSDOF 6
ENDMDL
MODEL 6
REMARK VINA RESULT:      -8.0      1.077      1.936
REMARK  Name = 
REMARK  6 active torsions:
REMARK  status: ('A' for Active; 'I' for Inactive)
REMARK    1  A    between atoms: C_2  and  C_3
REMARK    2  A    between atoms: C_3  and  N_4
REMARK    3  A    between atoms: N_11  and  C_12
REMARK    4  A    between atoms: N_20  and  C_21
REMARK    5  A    between atoms: C_21  and  C_22
REMARK    6  A    between atoms: C_22  and  C_23
REMARK                            x       y       z     vdW  Elec       q    Type
REMARK                         _______ _______ _______ _____ _____    ______ ____
ROOT
ATOM      1  N   UNL     1       4.321   3.706  18.753  0.00  0.00    +0.000 N 
ATOM      2  C   UNL     1       3.852   3.440  17.472  0.00  0.00    +0.000 A 
ATOM      3  N   UNL     1       4.492   3.669  16.369  0.00  0.00    +0.000 NA
ATOM      4  C   UNL     1       5.732   4.192  16.563  0.00  0.00    +0.000 A 
ATOM      5  C   UNL     1       6.313   4.515  17.763  0.00  0.00    +0.000 A 
ATOM      6  N   UNL     1       7.587   4.945  17.578  0.00  0.00    +0.000 NA
ATOM      7  N   UNL     1       7.836   4.894  16.270  0.00  0.00    +0.000 NA
ATOM      8  N   UNL     1       6.712   4.465  15.620  0.00  0.00    +0.000 N 
ATOM      9  C   UNL     1       5.560   4.322  18.980  0.00  0.00    +0.000 A 
ATOM     10  O   UNL     1       5.937   4.678  20.095  0.00  0.00    +0.000 OA
ENDROOT
BRANCH   8  11
ATOM     11  C   UNL     1       6.665   4.320  14.206  0.00  0.00    +0.000 A 
ATOM     12  C   UNL     1       7.550   5.049  13.398  0.00  0.00    +0.000 A 
ATOM     13  C   UNL     1       7.541   4.865  12.011  0.00  0.00    +0.000 A 
ATOM     14  C   UNL     1       6.643   3.976  11.423  0.00  0.00    +0.000 A 
ATOM     15  C   UNL     1       5.742   3.275  12.217  0.00  0.00    +0.000 A 
ATOM     16  C   UNL     1       5.752   3.445  13.601  0.00  0.00    +0.000 A 
ENDBRANCH   8  11
BRANCH   1  17
ATOM     17  C   UNL     1       3.503   3.322  19.890  0.00  0.00    +0.000 C 
BRANCH  17  19
ATOM     18  O   UNL     1       1.155   3.730  19.538  0.00  0.00    +0.000 OA
ATOM     19  C   UNL     1       2.226   4.156  19.960  0.00  0.00    +0.000 C 
ATOM     20  N   UNL     1       2.365   5.384  20.572  0.00  0.00    +0.000 N 
ATOM     21  H   UNL     1       3.252   5.608  21.020  0.00  0.00    +0.000 HD
BRANCH  20  22
ATOM     22  C   UNL     1       1.211   6.235  20.820  0.00  0.00    +0.000 C 
BRANCH  22  23
ATOM     23  C   UNL     1       1.627   7.652  21.205  0.00  0.00    +0.000 C 
BRANCH  23  24
ATOM     24  C   UNL     1       1.487   8.641  20.076  0.00  0.00    +0.000 A 
ATOM     25  C   UNL     1       0.848   9.872  20.279  0.00  0.00    +0.000 A 
ATOM     26  C   UNL     1       0.767  10.806  19.244  0.00  0.00    +0.000 A 
ATOM     27  C   UNL     1       1.312  10.516  17.996  0.00  0.00    +0.000 A 
ATOM     28  C   UNL     1       1.926   9.284  17.775  0.00  0.00    +0.000 A 
ATOM     29  C   UNL     1       2.009   8.349  18.808  0.00  0.00    +0.000 A 
ENDBRANCH  23  24
ENDBRANCH  22  23
ENDBRANCH  20  22
ENDBRANCH  17  19
ENDBRANCH   1  17
TORSDOF 6
ENDMDL
MODEL 7
REMARK VINA RESULT:      -7.9      2.811      4.695
REMARK  Name = 
REMARK  6 active torsions:
REMARK  status: ('A' for Active; 'I' for Inactive)
REMARK    1  A    between atoms: C_2  and  C_3
REMARK    2  A    between atoms: C_3  and  N_4
REMARK    3  A    between atoms: N_11  and  C_12
REMARK    4  A    between atoms: N_20  and  C_21
REMARK    5  A    between atoms: C_21  and  C_22
REMARK    6  A    between atoms: C_22  and  C_23
REMARK                            x       y       z     vdW  Elec       q    Type
REMARK                         _______ _______ _______ _____ _____    ______ ____
ROOT
ATOM      1  N   UNL     1       5.589   5.453  17.505  0.00  0.00    +0.000 N 
ATOM      2  C   UNL     1       4.739   4.584  16.832  0.00  0.00    +0.000 A 
ATOM      3  N   UNL     1       4.878   4.187  15.606  0.00  0.00    +0.000 NA
ATOM      4  C   UNL     1       5.987   4.687  14.999  0.00  0.00    +0.000 A 
ATOM      5  C   UNL     1       6.898   5.561  15.535  0.00  0.00    +0.000 A 
ATOM      6  N   UNL     1       7.916   5.787  14.665  0.00  0.00    +0.000 NA
ATOM      7  N   UNL     1       7.673   5.059  13.576  0.00  0.00    +0.000 NA
ATOM      8  N   UNL     1       6.486   4.398  13.737  0.00  0.00    +0.000 N 
ATOM      9  C   UNL     1       6.692   6.052  16.878  0.00  0.00    +0.000 A 
ATOM     10  O   UNL     1       7.380   6.917  17.416  0.00  0.00    +0.000 OA
ENDROOT
BRANCH   8  11
ATOM     11  C   UNL     1       5.951   3.547  12.731  0.00  0.00    +0.000 A 
ATOM     12  C   UNL     1       4.658   3.774  12.238  0.00  0.00    +0.000 A 
ATOM     13  C   UNL     1       4.154   2.970  11.209  0.00  0.00    +0.000 A 
ATOM     14  C   UNL     1       4.920   1.932  10.685  0.00  0.00    +0.000 A 
ATOM     15  C   UNL     1       6.191   1.683  11.193  0.00  0.00    +0.000 A 
ATOM     16  C   UNL     1       6.704   2.486  12.211  0.00  0.00    +0.000 A 
ENDBRANCH   8  11
BRANCH   1  17
ATOM     17  C   UNL     1       5.328   5.742  18.904  0.00  0.00    +0.000 C 
BRANCH  17  19
ATOM     18  O   UNL     1       3.197   6.698  18.317  0.00  0.00    +0.000 OA
ATOM     19  C   UNL     1       3.855   6.064  19.137  0.00  0.00    +0.000 C 
ATOM     20  N   UNL     1       3.322   5.551  20.301  0.00  0.00    +0.000 N 
ATOM     21  H   UNL     1       3.892   4.920  20.861  0.00  0.00    +0.000 HD
BRANCH  20  22
ATOM     22  C   UNL     1       1.902   5.673  20.596  0.00  0.00    +0.000 C 
BRANCH  22  23
ATOM     23  C   UNL     1       1.182   4.333  20.474  0.00  0.00    +0.000 C 
BRANCH  23  24
ATOM     24  C   UNL     1       1.949   3.317  19.667  0.00  0.00    +0.000 A 
ATOM     25  C   UNL     1       1.613   3.066  18.329  0.00  0.00    +0.000 A 
ATOM     26  C   UNL     1       2.358   2.162  17.570  0.00  0.00    +0.000 A 
ATOM     27  C   UNL     1       3.438   1.492  18.141  0.00  0.00    +0.000 A 
ATOM     28  C   UNL     1       3.764   1.714  19.478  0.00  0.00    +0.000 A 
ATOM     29  C   UNL     1       3.022   2.618  20.239  0.00  0.00    +0.000 A 
ENDBRANCH  23  24
ENDBRANCH  22  23
ENDBRANCH  20  22
ENDBRANCH  17  19
ENDBRANCH   1  17
TORSDOF 6
ENDMDL
MODEL 8
REMARK VINA RESULT:      -7.9      2.975      4.450
REMARK  Name = 
REMARK  6 active torsions:
REMARK  status: ('A' for Active; 'I' for Inactive)
REMARK    1  A    between atoms: C_2  and  C_3
REMARK    2  A    between atoms: C_3  and  N_4
REMARK    3  A    between atoms: N_11  and  C_12
REMARK    4  A    between atoms: N_20  and  C_21
REMARK    5  A    between atoms: C_21  and  C_22
REMARK    6  A    between atoms: C_22  and  C_23
REMARK                            x       y       z     vdW  Elec       q    Type
REMARK                         _______ _______ _______ _____ _____    ______ ____
ROOT
ATOM      1  N   UNL     1       6.471   4.992  17.251  0.00  0.00    +0.000 N 
ATOM      2  C   UNL     1       5.727   3.959  16.694  0.00  0.00    +0.000 A 
ATOM      3  N   UNL     1       5.708   3.630  15.441  0.00  0.00    +0.000 NA
ATOM      4  C   UNL     1       6.529   4.391  14.671  0.00  0.00    +0.000 A 
ATOM      5  C   UNL     1       7.305   5.445  15.083  0.00  0.00    +0.000 A 
ATOM      6  N   UNL     1       8.051   5.923  14.054  0.00  0.00    +0.000 NA
ATOM      7  N   UNL     1       7.771   5.179  12.984  0.00  0.00    +0.000 NA
ATOM      8  N   UNL     1       6.822   4.253  13.322  0.00  0.00    +0.000 N 
ATOM      9  C   UNL     1       7.261   5.847  16.469  0.00  0.00    +0.000 A 
ATOM     10  O   UNL     1       7.826   6.840  16.924  0.00  0.00    +0.000 OA
ENDROOT
BRANCH   8  11
ATOM     11  C   UNL     1       6.308   3.319  12.380  0.00  0.00    +0.000 A 
ATOM     12  C   UNL     1       7.157   2.356  11.816  0.00  0.00    +0.000 A 
ATOM     13  C   UNL     1       6.639   1.402  10.932  0.00  0.00    +0.000 A 
ATOM     14  C   UNL     1       5.288   1.416  10.592  0.00  0.00    +0.000 A 
ATOM     15  C   UNL     1       4.449   2.390  11.124  0.00  0.00    +0.000 A 
ATOM     16  C   UNL     1       4.956   3.336  12.013  0.00  0.00    +0.000 A 
ENDBRANCH   8  11
BRANCH   1  17
ATOM     17  C   UNL     1       6.433   5.183  18.690  0.00  0.00    +0.000 C 
BRANCH  17  19
ATOM     18  O   UNL     1       4.575   4.862  20.189  0.00  0.00    +0.000 OA
ATOM     19  C   UNL     1       5.006   5.414  19.181  0.00  0.00    +0.000 C 
ATOM     20  N   UNL     1       4.273   6.316  18.439  0.00  0.00    +0.000 N 
ATOM     21  H   UNL     1       4.743   6.837  17.701  0.00  0.00    +0.000 HD
BRANCH  20  22
ATOM     22  C   UNL     1       2.942   6.728  18.857  0.00  0.00    +0.000 C 
BRANCH  22  23
ATOM     23  C   UNL     1       1.853   5.974  18.101  0.00  0.00    +0.000 C 
BRANCH  23  24
ATOM     24  C   UNL     1       1.664   4.558  18.584  0.00  0.00    +0.000 A 
ATOM     25  C   UNL     1       1.926   3.473  17.735  0.00  0.00    +0.000 A 
ATOM     26  C   UNL     1       1.800   2.163  18.203  0.00  0.00    +0.000 A 
ATOM     27  C   UNL     1       1.400   1.925  19.516  0.00  0.00    +0.000 A 
ATOM     28  C   UNL     1       1.111   2.996  20.360  0.00  0.00    +0.000 A 
ATOM     29  C   UNL     1       1.238   4.306  19.895  0.00  0.00    +0.000 A 
ENDBRANCH  23  24
ENDBRANCH  22  23
ENDBRANCH  20  22
ENDBRANCH  17  19
ENDBRANCH   1  17
TORSDOF 6
ENDMDL
MODEL 9
REMARK VINA RESULT:      -7.9      1.295      2.003
REMARK  Name = 
REMARK  6 active torsions:
REMARK  status: ('A' for Active; 'I' for Inactive)
REMARK    1  A    between atoms: C_2  and  C_3
REMARK    2  A    between atoms: C_3  and  N_4
REMARK    3  A    between atoms: N_11  and  C_12
REMARK    4  A    between atoms: N_20  and  C_21
REMARK    5  A    between atoms: C_21  and  C_22
REMARK    6  A    between atoms: C_22  and  C_23
REMARK                            x       y       z     vdW  Elec       q    Type
REMARK                         _______ _______ _______ _____ _____    ______ ____
ROOT
ATOM      1  N   UNL     1       3.816   5.225  18.569  0.00  0.00    +0.000 N 
ATOM      2  C   UNL     1       3.481   5.220  17.220  0.00  0.00    +0.000 A 
ATOM      3  N   UNL     1       4.308   5.064  16.235  0.00  0.00    +0.000 NA
ATOM      4  C   UNL     1       5.593   4.871  16.635  0.00  0.00    +0.000 A 
ATOM      5  C   UNL     1       6.065   4.866  17.923  0.00  0.00    +0.000 A 
ATOM      6  N   UNL     1       7.389   4.570  17.948  0.00  0.00    +0.000 NA
ATOM      7  N   UNL     1       7.774   4.374  16.687  0.00  0.00    +0.000 NA
ATOM      8  N   UNL     1       6.705   4.580  15.859  0.00  0.00    +0.000 N 
ATOM      9  C   UNL     1       5.143   5.112  19.007  0.00  0.00    +0.000 A 
ATOM     10  O   UNL     1       5.472   5.240  20.185  0.00  0.00    +0.000 OA
ENDROOT
BRANCH   8  11
ATOM     11  C   UNL     1       6.809   4.456  14.446  0.00  0.00    +0.000 A 
ATOM     12  C   UNL     1       7.663   5.309  13.730  0.00  0.00    +0.000 A 
ATOM     13  C   UNL     1       7.807   5.150  12.347  0.00  0.00    +0.000 A 
ATOM     14  C   UNL     1       7.091   4.164  11.672  0.00  0.00    +0.000 A 
ATOM     15  C   UNL     1       6.218   3.338  12.372  0.00  0.00    +0.000 A 
ATOM     16  C   UNL     1       6.078   3.483  13.752  0.00  0.00    +0.000 A 
ENDBRANCH   8  11
BRANCH   1  17
ATOM     17  C   UNL     1       2.753   5.340  19.551  0.00  0.00    +0.000 C 
BRANCH  17  19
ATOM     18  O   UNL     1       2.530   7.666  18.966  0.00  0.00    +0.000 OA
ATOM     19  C   UNL     1       2.413   6.802  19.830  0.00  0.00    +0.000 C 
ATOM     20  N   UNL     1       1.926   7.057  21.095  0.00  0.00    +0.000 N 
ATOM     21  H   UNL     1       1.726   6.269  21.708  0.00  0.00    +0.000 HD
BRANCH  20  22
ATOM     22  C   UNL     1       1.445   8.380  21.463  0.00  0.00    +0.000 C 
BRANCH  22  23
ATOM     23  C   UNL     1      -0.074   8.479  21.360  0.00  0.00    +0.000 C 
BRANCH  23  24
ATOM     24  C   UNL     1      -0.596   9.877  21.576  0.00  0.00    +0.000 A 
ATOM     25  C   UNL     1      -0.878  10.710  20.485  0.00  0.00    +0.000 A 
ATOM     26  C   UNL     1      -1.410  11.985  20.688  0.00  0.00    +0.000 A 
ATOM     27  C   UNL     1      -1.655  12.443  21.980  0.00  0.00    +0.000 A 
ATOM     28  C   UNL     1      -1.353  11.633  23.074  0.00  0.00    +0.000 A 
ATOM     29  C   UNL     1      -0.822  10.358  22.873  0.00  0.00    +0.000 A 
ENDBRANCH  23  24
ENDBRANCH  22  23
ENDBRANCH  20  22
ENDBRANCH  17  19
ENDBRANCH   1  17
TORSDOF 6
ENDMDL
