MODEL 1
REMARK VINA RESULT:      -8.2      0.000      0.000
REMARK  Name = 
REMARK  10 active torsions:
REMARK  status: ('A' for Active; 'I' for Inactive)
REMARK    1  A    between atoms: C_1  and  C_2
REMARK    2  A    between atoms: C_4  and  C_5
REMARK    3  A    between atoms: C_7  and  C_8
REMARK    4  A    between atoms: C_8  and  O_9
REMARK    5  A    between atoms: O_9  and  C_10
REMARK    6  A    between atoms: C_13  and  N_14
REMARK    7  A    between atoms: N_14  and  C_15
REMARK    8  A    between atoms: C_15  and  C_16
REMARK    9  A    between atoms: C_16  and  N_17
REMARK   10  A    between atoms: C_18  and  C_20
REMARK                            x       y       z     vdW  Elec       q    Type
REMARK                         _______ _______ _______ _____ _____    ______ ____
ROOT
ATOM      1  C   UNL     1       2.007   7.481  20.027  0.00  0.00    +0.000 A 
ATOM      2  C   UNL     1       2.291   7.596  18.658  0.00  0.00    +0.000 A 
ATOM      3  C   UNL     1       2.758   6.494  17.941  0.00  0.00    +0.000 A 
ATOM      4  C   UNL     1       2.943   5.243  18.566  0.00  0.00    +0.000 A 
ATOM      5  C   UNL     1       2.628   5.125  19.933  0.00  0.00    +0.000 A 
ATOM      6  C   UNL     1       2.175   6.238  20.655  0.00  0.00    +0.000 A 
ENDROOT
BRANCH   4   7
ATOM      7  N   UNL     1       3.512   4.153  17.822  0.00  0.00    +0.000 N 
ATOM      8  C   UNL     1       4.809   4.225  17.329  0.00  0.00    +0.000 C 
ATOM      9  O   UNL     1       5.187   3.333  16.577  0.00  0.00    +0.000 OA
BRANCH   8  10
ATOM     10  C   UNL     1       5.823   5.304  17.662  0.00  0.00    +0.000 A 
ATOM     11  C   UNL     1       6.671   5.214  18.795  0.00  0.00    +0.000 A 
ATOM     12  C   UNL     1       7.598   6.212  19.094  0.00  0.00    +0.000 A 
ATOM     13  C   UNL     1       7.727   7.320  18.265  0.00  0.00    +0.000 A 
ATOM     14 CL   UNL     1       8.893   8.573  18.648  0.00  0.00    +0.000 Cl
ATOM     15  C   UNL     1       6.934   7.426  17.125  0.00  0.00    +0.000 A 
ATOM     16  C   UNL     1       5.995   6.437  16.811  0.00  0.00    +0.000 A 
ATOM     17 CL   UNL     1       5.041   6.710  15.351  0.00  0.00    +0.000 Cl
ENDBRANCH   8  10
BRANCH   7  18
ATOM     18  C   UNL     1       2.732   2.956  17.457  0.00  0.00    +0.000 C 
BRANCH  18  19
ATOM     19  C   UNL     1       2.704   1.790  18.459  0.00  0.00    +0.000 C 
BRANCH  19  20
ATOM     20  N   UNL     1       3.881   0.946  18.248  0.00  0.00    +0.000 NA
ATOM     21  H   UNL     1       3.961   0.254  19.028  0.00  0.00    +0.000 HD
ATOM     22  H   UNL     1       4.738   1.543  18.259  0.00  0.00    +0.000 HD
ENDBRANCH  19  20
ENDBRANCH  18  19
ENDBRANCH   7  18
ENDBRANCH   4   7
BRANCH   1  23
ATOM     23  O   UNL     1       1.595   8.537  20.773  0.00  0.00    +0.000 OA
BRANCH  23  24
ATOM     24  C   UNL     1       0.419   8.629  21.502  0.00  0.00    +0.000 C 
BRANCH  24  31
ATOM     25  C   UNL     1      -1.602  12.917  23.220  0.00  0.00    +0.000 C 
ATOM     26  C   UNL     1      -1.267  12.012  22.068  0.00  0.00    +0.000 A 
ATOM     27  C   UNL     1      -1.556  12.401  20.750  0.00  0.00    +0.000 A 
ATOM     28  C   UNL     1      -1.218  11.565  19.676  0.00  0.00    +0.000 A 
ATOM     29  C   UNL     1      -1.516  11.953  18.260  0.00  0.00    +0.000 C 
ATOM     30  C   UNL     1      -0.580  10.347  19.920  0.00  0.00    +0.000 A 
ATOM     31  C   UNL     1      -0.283   9.938  21.230  0.00  0.00    +0.000 A 
ATOM     32  C   UNL     1      -0.644  10.775  22.304  0.00  0.00    +0.000 A 
ENDBRANCH  24  31
ENDBRANCH  23  24
ENDBRANCH   1  23
TORSDOF 8
ENDMDL
MODEL 2
REMARK VINA RESULT:      -8.1      4.307      7.616
REMARK  Name = 
REMARK  10 active torsions:
REMARK  status: ('A' for Active; 'I' for Inactive)
REMARK    1  A    between atoms: C_1  and  C_2
REMARK    2  A    between atoms: C_4  and  C_5
REMARK    3  A    between atoms: C_7  and  C_8
REMARK    4  A    between atoms: C_8  and  O_9
REMARK    5  A    between atoms: O_9  and  C_10
REMARK    6  A    between atoms: C_13  and  N_14
REMARK    7  A    between atoms: N_14  and  C_15
REMARK    8  A    between atoms: C_15  and  C_16
REMARK    9  A    between atoms: C_16  and  N_17
REMARK   10  A    between atoms: C_18  and  C_20
REMARK                            x       y       z     vdW  Elec       q    Type
REMARK                         _______ _______ _______ _____ _____    ______ ____
ROOT
ATOM      1  C   UNL     1       8.226   8.127  18.532  0.00  0.00    +0.000 A 
ATOM      2  C   UNL     1       7.325   8.386  17.488  0.00  0.00    +0.000 A 
ATOM      3  C   UNL     1       6.581   7.348  16.926  0.00  0.00    +0.000 A 
ATOM      4  C   UNL     1       6.707   6.025  17.396  0.00  0.00    +0.000 A 
ATOM      5  C   UNL     1       7.591   5.774  18.463  0.00  0.00    +0.000 A 
ATOM      6  C   UNL     1       8.348   6.816  19.016  0.00  0.00    +0.000 A 
ENDROOT
BRANCH   4   7
ATOM      7  N   UNL     1       5.997   4.964  16.735  0.00  0.00    +0.000 N 
ATOM      8  C   UNL     1       4.705   4.624  17.117  0.00  0.00    +0.000 C 
ATOM      9  O   UNL     1       4.207   3.618  16.621  0.00  0.00    +0.000 OA
BRANCH   8  10
ATOM     10  C   UNL     1       3.832   5.407  18.079  0.00  0.00    +0.000 A 
ATOM     11  C   UNL     1       3.274   6.665  17.735  0.00  0.00    +0.000 A 
ATOM     12  C   UNL     1       2.475   7.378  18.627  0.00  0.00    +0.000 A 
ATOM     13  C   UNL     1       2.186   6.855  19.882  0.00  0.00    +0.000 A 
ATOM     14 CL   UNL     1       1.182   7.759  21.001  0.00  0.00    +0.000 Cl
ATOM     15  C   UNL     1       2.689   5.608  20.243  0.00  0.00    +0.000 A 
ATOM     16  C   UNL     1       3.497   4.878  19.362  0.00  0.00    +0.000 A 
ATOM     17 CL   UNL     1       4.085   3.324  19.957  0.00  0.00    +0.000 Cl
ENDBRANCH   8  10
BRANCH   7  18
ATOM     18  C   UNL     1       6.623   4.123  15.699  0.00  0.00    +0.000 C 
BRANCH  18  19
ATOM     19  C   UNL     1       6.598   4.637  14.250  0.00  0.00    +0.000 C 
BRANCH  19  20
ATOM     20  N   UNL     1       7.796   5.439  14.003  0.00  0.00    +0.000 NA
ATOM     21  H   UNL     1       7.530   6.447  13.908  0.00  0.00    +0.000 HD
ATOM     22  H   UNL     1       8.232   5.136  13.103  0.00  0.00    +0.000 HD
ENDBRANCH  19  20
ENDBRANCH  18  19
ENDBRANCH   7  18
ENDBRANCH   4   7
BRANCH   1  23
ATOM     23  O   UNL     1       9.003   9.097  19.077  0.00  0.00    +0.000 OA
BRANCH  23  24
ATOM     24  C   UNL     1       9.445  10.254  18.453  0.00  0.00    +0.000 C 
BRANCH  24  31
ATOM     25  C   UNL     1      11.768  14.556  19.682  0.00  0.00    +0.000 C 
ATOM     26  C   UNL     1      10.857  13.422  20.057  0.00  0.00    +0.000 A 
ATOM     27  C   UNL     1      10.231  13.398  21.315  0.00  0.00    +0.000 A 
ATOM     28  C   UNL     1       9.360  12.351  21.651  0.00  0.00    +0.000 A 
ATOM     29  C   UNL     1       8.680  12.299  22.985  0.00  0.00    +0.000 C 
ATOM     30  C   UNL     1       9.108  11.336  20.725  0.00  0.00    +0.000 A 
ATOM     31  C   UNL     1       9.724  11.340  19.464  0.00  0.00    +0.000 A 
ATOM     32  C   UNL     1      10.611  12.384  19.142  0.00  0.00    +0.000 A 
ENDBRANCH  24  31
ENDBRANCH  23  24
ENDBRANCH   1  23
TORSDOF 8
ENDMDL
MODEL 3
REMARK VINA RESULT:      -8.1      0.108      1.578
REMARK  Name = 
REMARK  10 active torsions:
REMARK  status: ('A' for Active; 'I' for Inactive)
REMARK    1  A    between atoms: C_1  and  C_2
REMARK    2  A    between atoms: C_4  and  C_5
REMARK    3  A    between atoms: C_7  and  C_8
REMARK    4  A    between atoms: C_8  and  O_9
REMARK    5  A    between atoms: O_9  and  C_10
REMARK    6  A    between atoms: C_13  and  N_14
REMARK    7  A    between atoms: N_14  and  C_15
REMARK    8  A    between atoms: C_15  and  C_16
REMARK    9  A    between atoms: C_16  and  N_17
REMARK   10  A    between atoms: C_18  and  C_20
REMARK                            x       y       z     vdW  Elec       q    Type
REMARK                         _______ _______ _______ _____ _____    ______ ____
ROOT
ATOM      1  C   UNL     1       1.993   7.531  19.941  0.00  0.00    +0.000 A 
ATOM      2  C   UNL     1       2.282   7.620  18.571  0.00  0.00    +0.000 A 
ATOM      3  C   UNL     1       2.749   6.505  17.876  0.00  0.00    +0.000 A 
ATOM      4  C   UNL     1       2.930   5.266  18.525  0.00  0.00    +0.000 A 
ATOM      5  C   UNL     1       2.611   5.173  19.893  0.00  0.00    +0.000 A 
ATOM      6  C   UNL     1       2.157   6.300  20.592  0.00  0.00    +0.000 A 
ENDROOT
BRANCH   4   7
ATOM      7  N   UNL     1       3.500   4.161  17.803  0.00  0.00    +0.000 N 
ATOM      8  C   UNL     1       4.803   4.217  17.325  0.00  0.00    +0.000 C 
ATOM      9  O   UNL     1       5.183   3.311  16.590  0.00  0.00    +0.000 OA
BRANCH   8  10
ATOM     10  C   UNL     1       5.821   5.293  17.655  0.00  0.00    +0.000 A 
ATOM     11  C   UNL     1       6.666   5.204  18.791  0.00  0.00    +0.000 A 
ATOM     12  C   UNL     1       7.597   6.200  19.088  0.00  0.00    +0.000 A 
ATOM     13  C   UNL     1       7.733   7.303  18.253  0.00  0.00    +0.000 A 
ATOM     14 CL   UNL     1       8.904   8.552  18.633  0.00  0.00    +0.000 Cl
ATOM     15  C   UNL     1       6.944   7.407  17.111  0.00  0.00    +0.000 A 
ATOM     16  C   UNL     1       6.001   6.420  16.799  0.00  0.00    +0.000 A 
ATOM     17 CL   UNL     1       5.052   6.690  15.335  0.00  0.00    +0.000 Cl
ENDBRANCH   8  10
BRANCH   7  18
ATOM     18  C   UNL     1       2.715   2.965  17.445  0.00  0.00    +0.000 C 
BRANCH  18  19
ATOM     19  C   UNL     1       2.646   1.823  18.472  0.00  0.00    +0.000 C 
BRANCH  19  20
ATOM     20  N   UNL     1       3.836   0.981  18.337  0.00  0.00    +0.000 NA
ATOM     21  H   UNL     1       3.734   0.130  18.936  0.00  0.00    +0.000 HD
ATOM     22  H   UNL     1       4.672   1.512  18.673  0.00  0.00    +0.000 HD
ENDBRANCH  19  20
ENDBRANCH  18  19
ENDBRANCH   7  18
ENDBRANCH   4   7
BRANCH   1  23
ATOM     23  O   UNL     1       1.581   8.602  20.667  0.00  0.00    +0.000 OA
BRANCH  23  24
ATOM     24  C   UNL     1       0.446   8.678  21.460  0.00  0.00    +0.000 C 
BRANCH  24  31
ATOM     25  C   UNL     1      -1.508  12.040  18.251  0.00  0.00    +0.000 C 
ATOM     26  C   UNL     1      -1.234  11.602  19.662  0.00  0.00    +0.000 A 
ATOM     27  C   UNL     1      -1.703  12.362  20.747  0.00  0.00    +0.000 A 
ATOM     28  C   UNL     1      -1.467  11.936  22.062  0.00  0.00    +0.000 A 
ATOM     29  C   UNL     1      -1.954  12.726  23.238  0.00  0.00    +0.000 C 
ATOM     30  C   UNL     1      -0.773  10.746  22.291  0.00  0.00    +0.000 A 
ATOM     31  C   UNL     1      -0.293   9.973  21.221  0.00  0.00    +0.000 A 
ATOM     32  C   UNL     1      -0.518  10.418  19.904  0.00  0.00    +0.000 A 
ENDBRANCH  24  31
ENDBRANCH  23  24
ENDBRANCH   1  23
TORSDOF 8
ENDMDL
MODEL 4
REMARK VINA RESULT:      -8.1      1.127      1.254
REMARK  Name = 
REMARK  10 active torsions:
REMARK  status: ('A' for Active; 'I' for Inactive)
REMARK    1  A    between atoms: C_1  and  C_2
REMARK    2  A    between atoms: C_4  and  C_5
REMARK    3  A    between atoms: C_7  and  C_8
REMARK    4  A    between atoms: C_8  and  O_9
REMARK    5  A    between atoms: O_9  and  C_10
REMARK    6  A    between atoms: C_13  and  N_14
REMARK    7  A    between atoms: N_14  and  C_15
REMARK    8  A    between atoms: C_15  and  C_16
REMARK    9  A    between atoms: C_16  and  N_17
REMARK   10  A    between atoms: C_18  and  C_20
REMARK                            x       y       z     vdW  Elec       q    Type
REMARK                         _______ _______ _______ _____ _____    ______ ____
ROOT
ATOM      1  C   UNL     1       1.986   7.441  20.108  0.00  0.00    +0.000 A 
ATOM      2  C   UNL     1       2.346   7.607  18.762  0.00  0.00    +0.000 A 
ATOM      3  C   UNL     1       2.791   6.517  18.013  0.00  0.00    +0.000 A 
ATOM      4  C   UNL     1       2.879   5.230  18.582  0.00  0.00    +0.000 A 
ATOM      5  C   UNL     1       2.489   5.062  19.924  0.00  0.00    +0.000 A 
ATOM      6  C   UNL     1       2.057   6.162  20.679  0.00  0.00    +0.000 A 
ENDROOT
BRANCH   4   7
ATOM      7  N   UNL     1       3.429   4.148  17.811  0.00  0.00    +0.000 N 
ATOM      8  C   UNL     1       4.722   4.214  17.309  0.00  0.00    +0.000 C 
ATOM      9  O   UNL     1       5.083   3.333  16.537  0.00  0.00    +0.000 OA
BRANCH   8  10
ATOM     10  C   UNL     1       5.752   5.274  17.655  0.00  0.00    +0.000 A 
ATOM     11  C   UNL     1       6.589   5.165  18.794  0.00  0.00    +0.000 A 
ATOM     12  C   UNL     1       7.531   6.145  19.105  0.00  0.00    +0.000 A 
ATOM     13  C   UNL     1       7.686   7.254  18.281  0.00  0.00    +0.000 A 
ATOM     14 CL   UNL     1       8.871   8.485  18.680  0.00  0.00    +0.000 Cl
ATOM     15  C   UNL     1       6.905   7.379  17.136  0.00  0.00    +0.000 A 
ATOM     16  C   UNL     1       5.951   6.406  16.810  0.00  0.00    +0.000 A 
ATOM     17 CL   UNL     1       5.014   6.702  15.343  0.00  0.00    +0.000 Cl
ENDBRANCH   8  10
BRANCH   7  18
ATOM     18  C   UNL     1       2.631   2.968  17.430  0.00  0.00    +0.000 C 
BRANCH  18  19
ATOM     19  C   UNL     1       2.594   1.784  18.410  0.00  0.00    +0.000 C 
BRANCH  19  20
ATOM     20  N   UNL     1       3.815   0.992  18.254  0.00  0.00    +0.000 NA
ATOM     21  H   UNL     1       3.952   0.388  19.097  0.00  0.00    +0.000 HD
ATOM     22  H   UNL     1       4.635   1.636  18.183  0.00  0.00    +0.000 HD
ENDBRANCH  19  20
ENDBRANCH  18  19
ENDBRANCH   7  18
ENDBRANCH   4   7
BRANCH   1  23
ATOM     23  O   UNL     1       1.591   8.480  20.887  0.00  0.00    +0.000 OA
BRANCH  23  24
ATOM     24  C   UNL     1       0.294   8.937  21.065  0.00  0.00    +0.000 C 
BRANCH  24  31
ATOM     25  C   UNL     1       1.375  13.721  19.898  0.00  0.00    +0.000 C 
ATOM     26  C   UNL     1       0.556  12.483  19.665  0.00  0.00    +0.000 A 
ATOM     27  C   UNL     1      -0.407  12.449  18.642  0.00  0.00    +0.000 A 
ATOM     28  C   UNL     1      -1.151  11.283  18.411  0.00  0.00    +0.000 A 
ATOM     29  C   UNL     1      -2.185  11.218  17.330  0.00  0.00    +0.000 C 
ATOM     30  C   UNL     1      -0.923  10.149  19.195  0.00  0.00    +0.000 A 
ATOM     31  C   UNL     1       0.033  10.163  20.223  0.00  0.00    +0.000 A 
ATOM     32  C   UNL     1       0.762  11.343  20.461  0.00  0.00    +0.000 A 
ENDBRANCH  24  31
ENDBRANCH  23  24
ENDBRANCH   1  23
TORSDOF 8
ENDMDL
MODEL 5
REMARK VINA RESULT:      -8.1      4.000      7.494
REMARK  Name = 
REMARK  10 active torsions:
REMARK  status: ('A' for Active; 'I' for Inactive)
REMARK    1  A    between atoms: C_1  and  C_2
REMARK    2  A    between atoms: C_4  and  C_5
REMARK    3  A    between atoms: C_7  and  C_8
REMARK    4  A    between atoms: C_8  and  O_9
REMARK    5  A    between atoms: O_9  and  C_10
REMARK    6  A    between atoms: C_13  and  N_14
REMARK    7  A    between atoms: N_14  and  C_15
REMARK    8  A    between atoms: C_15  and  C_16
REMARK    9  A    between atoms: C_16  and  N_17
REMARK   10  A    between atoms: C_18  and  C_20
REMARK                            x       y       z     vdW  Elec       q    Type
REMARK                         _______ _______ _______ _____ _____    ______ ____
ROOT
ATOM      1  C   UNL     1       7.869   7.569  18.277  0.00  0.00    +0.000 A 
ATOM      2  C   UNL     1       7.862   6.283  18.838  0.00  0.00    +0.000 A 
ATOM      3  C   UNL     1       7.085   5.272  18.271  0.00  0.00    +0.000 A 
ATOM      4  C   UNL     1       6.303   5.513  17.122  0.00  0.00    +0.000 A 
ATOM      5  C   UNL     1       6.336   6.797  16.546  0.00  0.00    +0.000 A 
ATOM      6  C   UNL     1       7.105   7.815  17.127  0.00  0.00    +0.000 A 
ENDROOT
BRANCH   4   7
ATOM      7  N   UNL     1       5.444   4.477  16.617  0.00  0.00    +0.000 N 
ATOM      8  C   UNL     1       4.181   4.270  17.159  0.00  0.00    +0.000 C 
ATOM      9  O   UNL     1       3.555   3.281  16.792  0.00  0.00    +0.000 OA
BRANCH   8  10
ATOM     10  C   UNL     1       3.485   5.181  18.153  0.00  0.00    +0.000 A 
ATOM     11  C   UNL     1       3.090   6.500  17.815  0.00  0.00    +0.000 A 
ATOM     12  C   UNL     1       2.454   7.331  18.736  0.00  0.00    +0.000 A 
ATOM     13  C   UNL     1       2.168   6.869  20.016  0.00  0.00    +0.000 A 
ATOM     14 CL   UNL     1       1.369   7.920  21.171  0.00  0.00    +0.000 Cl
ATOM     15  C   UNL     1       2.511   5.568  20.373  0.00  0.00    +0.000 A 
ATOM     16  C   UNL     1       3.155   4.721  19.463  0.00  0.00    +0.000 A 
ATOM     17 CL   UNL     1       3.553   3.107  20.056  0.00  0.00    +0.000 Cl
ENDBRANCH   8  10
BRANCH   7  18
ATOM     18  C   UNL     1       5.883   3.525  15.581  0.00  0.00    +0.000 C 
BRANCH  18  19
ATOM     19  C   UNL     1       5.863   4.001  14.119  0.00  0.00    +0.000 C 
BRANCH  19  20
ATOM     20  N   UNL     1       7.088   4.751  13.841  0.00  0.00    +0.000 NA
ATOM     21  H   UNL     1       6.885   5.777  13.865  0.00  0.00    +0.000 HD
ATOM     22  H   UNL     1       7.425   4.514  12.880  0.00  0.00    +0.000 HD
ENDBRANCH  19  20
ENDBRANCH  18  19
ENDBRANCH   7  18
ENDBRANCH   4   7
BRANCH   1  23
ATOM     23  O   UNL     1       8.573   8.594  18.822  0.00  0.00    +0.000 OA
BRANCH  23  24
ATOM     24  C   UNL     1       9.001   9.743  18.175  0.00  0.00    +0.000 C 
BRANCH  24  31
ATOM     25  C   UNL     1       8.729  11.939  22.705  0.00  0.00    +0.000 C 
ATOM     26  C   UNL     1       9.385  11.823  21.358  0.00  0.00    +0.000 A 
ATOM     27  C   UNL     1      10.503  12.611  21.040  0.00  0.00    +0.000 A 
ATOM     28  C   UNL     1      11.128  12.481  19.791  0.00  0.00    +0.000 A 
ATOM     29  C   UNL     1      12.320  13.310  19.424  0.00  0.00    +0.000 C 
ATOM     30  C   UNL     1      10.641  11.554  18.866  0.00  0.00    +0.000 A 
ATOM     31  C   UNL     1       9.524  10.757  19.163  0.00  0.00    +0.000 A 
ATOM     32  C   UNL     1       8.891  10.908  20.412  0.00  0.00    +0.000 A 
ENDBRANCH  24  31
ENDBRANCH  23  24
ENDBRANCH   1  23
TORSDOF 8
ENDMDL
MODEL 6
REMARK VINA RESULT:      -8.0      1.053      2.015
REMARK  Name = 
REMARK  10 active torsions:
REMARK  status: ('A' for Active; 'I' for Inactive)
REMARK    1  A    between atoms: C_1  and  C_2
REMARK    2  A    between atoms: C_4  and  C_5
REMARK    3  A    between atoms: C_7  and  C_8
REMARK    4  A    between atoms: C_8  and  O_9
REMARK    5  A    between atoms: O_9  and  C_10
REMARK    6  A    between atoms: C_13  and  N_14
REMARK    7  A    between atoms: N_14  and  C_15
REMARK    8  A    between atoms: C_15  and  C_16
REMARK    9  A    between atoms: C_16  and  N_17
REMARK   10  A    between atoms: C_18  and  C_20
REMARK                            x       y       z     vdW  Elec       q    Type
REMARK                         _______ _______ _______ _____ _____    ______ ____
ROOT
ATOM      1  C   UNL     1       1.875   7.659  19.596  0.00  0.00    +0.000 A 
ATOM      2  C   UNL     1       2.134   7.616  18.217  0.00  0.00    +0.000 A 
ATOM      3  C   UNL     1       2.649   6.459  17.633  0.00  0.00    +0.000 A 
ATOM      4  C   UNL     1       2.909   5.308  18.405  0.00  0.00    +0.000 A 
ATOM      5  C   UNL     1       2.621   5.345  19.782  0.00  0.00    +0.000 A 
ATOM      6  C   UNL     1       2.118   6.514  20.369  0.00  0.00    +0.000 A 
ENDROOT
BRANCH   4   7
ATOM      7  N   UNL     1       3.526   4.164  17.790  0.00  0.00    +0.000 N 
ATOM      8  C   UNL     1       4.852   4.202  17.379  0.00  0.00    +0.000 C 
ATOM      9  O   UNL     1       5.279   3.254  16.728  0.00  0.00    +0.000 OA
BRANCH   8  10
ATOM     10  C   UNL     1       5.843   5.309  17.690  0.00  0.00    +0.000 A 
ATOM     11  C   UNL     1       6.661   5.282  18.848  0.00  0.00    +0.000 A 
ATOM     12  C   UNL     1       7.566   6.305  19.127  0.00  0.00    +0.000 A 
ATOM     13  C   UNL     1       7.704   7.377  18.252  0.00  0.00    +0.000 A 
ATOM     14 CL   UNL     1       8.843   8.662  18.609  0.00  0.00    +0.000 Cl
ATOM     15  C   UNL     1       6.941   7.421  17.088  0.00  0.00    +0.000 A 
ATOM     16  C   UNL     1       6.023   6.405  16.794  0.00  0.00    +0.000 A 
ATOM     17 CL   UNL     1       5.106   6.599  15.299  0.00  0.00    +0.000 Cl
ENDBRANCH   8  10
BRANCH   7  18
ATOM     18  C   UNL     1       2.771   2.938  17.472  0.00  0.00    +0.000 C 
BRANCH  18  19
ATOM     19  C   UNL     1       2.740   1.824  18.532  0.00  0.00    +0.000 C 
BRANCH  19  20
ATOM     20  N   UNL     1       3.888   0.938  18.333  0.00  0.00    +0.000 NA
ATOM     21  H   UNL     1       3.554  -0.040  18.177  0.00  0.00    +0.000 HD
ATOM     22  H   UNL     1       4.477   0.942  19.196  0.00  0.00    +0.000 HD
ENDBRANCH  19  20
ENDBRANCH  18  19
ENDBRANCH   7  18
ENDBRANCH   4   7
BRANCH   1  23
ATOM     23  O   UNL     1       1.418   8.778  20.214  0.00  0.00    +0.000 OA
BRANCH  23  24
ATOM     24  C   UNL     1       1.462  10.073  19.722  0.00  0.00    +0.000 C 
BRANCH  24  31
ATOM     25  C   UNL     1      -2.433   9.894  16.525  0.00  0.00    +0.000 C 
ATOM     26  C   UNL     1      -1.798  10.459  17.764  0.00  0.00    +0.000 A 
ATOM     27  C   UNL     1      -2.496  11.376  18.567  0.00  0.00    +0.000 A 
ATOM     28  C   UNL     1      -1.910  11.881  19.736  0.00  0.00    +0.000 A 
ATOM     29  C   UNL     1      -2.630  12.862  20.610  0.00  0.00    +0.000 C 
ATOM     30  C   UNL     1      -0.631  11.459  20.108  0.00  0.00    +0.000 A 
ATOM     31  C   UNL     1       0.085  10.545  19.319  0.00  0.00    +0.000 A 
ATOM     32  C   UNL     1      -0.504  10.057  18.137  0.00  0.00    +0.000 A 
ENDBRANCH  24  31
ENDBRANCH  23  24
ENDBRANCH   1  23
TORSDOF 8
ENDMDL
MODEL 7
REMARK VINA RESULT:      -8.0      0.751      1.160
REMARK  Name = 
REMARK  10 active torsions:
REMARK  status: ('A' for Active; 'I' for Inactive)
REMARK    1  A    between atoms: C_1  and  C_2
REMARK    2  A    between atoms: C_4  and  C_5
REMARK    3  A    between atoms: C_7  and  C_8
REMARK    4  A    between atoms: C_8  and  O_9
REMARK    5  A    between atoms: O_9  and  C_10
REMARK    6  A    between atoms: C_13  and  N_14
REMARK    7  A    between atoms: N_14  and  C_15
REMARK    8  A    between atoms: C_15  and  C_16
REMARK    9  A    between atoms: C_16  and  N_17
REMARK   10  A    between atoms: C_18  and  C_20
REMARK                            x       y       z     vdW  Elec       q    Type
REMARK                         _______ _______ _______ _____ _____    ______ ____
ROOT
ATOM      1  C   UNL     1       1.903   6.623  20.325  0.00  0.00    +0.000 A 
ATOM      2  C   UNL     1       2.400   5.403  20.809  0.00  0.00    +0.000 A 
ATOM      3  C   UNL     1       3.094   4.540  19.961  0.00  0.00    +0.000 A 
ATOM      4  C   UNL     1       3.322   4.873  18.610  0.00  0.00    +0.000 A 
ATOM      5  C   UNL     1       2.847   6.111  18.136  0.00  0.00    +0.000 A 
ATOM      6  C   UNL     1       2.137   6.970  18.986  0.00  0.00    +0.000 A 
ENDROOT
BRANCH   4   7
ATOM      7  N   UNL     1       3.959   3.922  17.740  0.00  0.00    +0.000 N 
ATOM      8  C   UNL     1       5.203   4.186  17.182  0.00  0.00    +0.000 C 
ATOM      9  O   UNL     1       5.627   3.409  16.333  0.00  0.00    +0.000 OA
BRANCH   8  10
ATOM     10  C   UNL     1       6.110   5.346  17.551  0.00  0.00    +0.000 A 
ATOM     11  C   UNL     1       7.034   5.265  18.623  0.00  0.00    +0.000 A 
ATOM     12  C   UNL     1       7.861   6.338  18.956  0.00  0.00    +0.000 A 
ATOM     13  C   UNL     1       7.812   7.516  18.220  0.00  0.00    +0.000 A 
ATOM     14 CL   UNL     1       8.853   8.862  18.646  0.00  0.00    +0.000 Cl
ATOM     15  C   UNL     1       6.940   7.620  17.140  0.00  0.00    +0.000 A 
ATOM     16  C   UNL     1       6.099   6.555  16.793  0.00  0.00    +0.000 A 
ATOM     17 CL   UNL     1       5.027   6.831  15.418  0.00  0.00    +0.000 Cl
ENDBRANCH   8  10
BRANCH   7  18
ATOM     18  C   UNL     1       3.295   2.676  17.316  0.00  0.00    +0.000 C 
BRANCH  18  19
ATOM     19  C   UNL     1       3.102   1.574  18.371  0.00  0.00    +0.000 C 
BRANCH  19  20
ATOM     20  N   UNL     1       1.681   1.471  18.705  0.00  0.00    +0.000 NA
ATOM     21  H   UNL     1       1.116   1.425  17.825  0.00  0.00    +0.000 HD
ATOM     22  H   UNL     1       1.388   2.326  19.230  0.00  0.00    +0.000 HD
ENDBRANCH  19  20
ENDBRANCH  18  19
ENDBRANCH   7  18
ENDBRANCH   4   7
BRANCH   1  23
ATOM     23  O   UNL     1       1.184   7.473  21.101  0.00  0.00    +0.000 OA
BRANCH  23  24
ATOM     24  C   UNL     1       1.559   8.745  21.507  0.00  0.00    +0.000 C 
BRANCH  24  31
ATOM     25  C   UNL     1      -1.589  12.392  22.993  0.00  0.00    +0.000 C 
ATOM     26  C   UNL     1      -1.042  11.518  21.900  0.00  0.00    +0.000 A 
ATOM     27  C   UNL     1      -1.484  11.672  20.576  0.00  0.00    +0.000 A 
ATOM     28  C   UNL     1      -0.951  10.872  19.555  0.00  0.00    +0.000 A 
ATOM     29  C   UNL     1      -1.406  11.013  18.135  0.00  0.00    +0.000 C 
ATOM     30  C   UNL     1       0.031   9.926  19.857  0.00  0.00    +0.000 A 
ATOM     31  C   UNL     1       0.486   9.755  21.174  0.00  0.00    +0.000 A 
ATOM     32  C   UNL     1      -0.067  10.549  22.196  0.00  0.00    +0.000 A 
ENDBRANCH  24  31
ENDBRANCH  23  24
ENDBRANCH   1  23
TORSDOF 8
ENDMDL
MODEL 8
REMARK VINA RESULT:      -7.9      4.031      8.741
REMARK  Name = 
REMARK  10 active torsions:
REMARK  status: ('A' for Active; 'I' for Inactive)
REMARK    1  A    between atoms: C_1  and  C_2
REMARK    2  A    between atoms: C_4  and  C_5
REMARK    3  A    between atoms: C_7  and  C_8
REMARK    4  A    between atoms: C_8  and  O_9
REMARK    5  A    between atoms: O_9  and  C_10
REMARK    6  A    between atoms: C_13  and  N_14
REMARK    7  A    between atoms: N_14  and  C_15
REMARK    8  A    between atoms: C_15  and  C_16
REMARK    9  A    between atoms: C_16  and  N_17
REMARK   10  A    between atoms: C_18  and  C_20
REMARK                            x       y       z     vdW  Elec       q    Type
REMARK                         _______ _______ _______ _____ _____    ______ ____
ROOT
ATOM      1  C   UNL     1       2.221   7.785  19.327  0.00  0.00    +0.000 A 
ATOM      2  C   UNL     1       2.060   8.326  18.043  0.00  0.00    +0.000 A 
ATOM      3  C   UNL     1       1.117   9.328  17.814  0.00  0.00    +0.000 A 
ATOM      4  C   UNL     1       0.315   9.826  18.862  0.00  0.00    +0.000 A 
ATOM      5  C   UNL     1       0.499   9.300  20.155  0.00  0.00    +0.000 A 
ATOM      6  C   UNL     1       1.438   8.283  20.379  0.00  0.00    +0.000 A 
ENDROOT
BRANCH   4   7
ATOM      7  N   UNL     1      -0.712  10.791  18.575  0.00  0.00    +0.000 N 
ATOM      8  C   UNL     1      -0.505  12.144  18.813  0.00  0.00    +0.000 C 
ATOM      9  O   UNL     1      -1.463  12.900  18.692  0.00  0.00    +0.000 OA
BRANCH   8  10
ATOM     10  C   UNL     1       0.820  12.785  19.186  0.00  0.00    +0.000 A 
ATOM     11  C   UNL     1       1.790  13.125  18.209  0.00  0.00    +0.000 A 
ATOM     12  C   UNL     1       3.006  13.711  18.562  0.00  0.00    +0.000 A 
ATOM     13  C   UNL     1       3.286  13.999  19.893  0.00  0.00    +0.000 A 
ATOM     14 CL   UNL     1       4.817  14.733  20.329  0.00  0.00    +0.000 Cl
ATOM     15  C   UNL     1       2.343  13.709  20.875  0.00  0.00    +0.000 A 
ATOM     16  C   UNL     1       1.118  13.116  20.541  0.00  0.00    +0.000 A 
ATOM     17 CL   UNL     1       0.027  12.782  21.887  0.00  0.00    +0.000 Cl
ENDBRANCH   8  10
BRANCH   7  18
ATOM     18  C   UNL     1      -2.056  10.398  18.115  0.00  0.00    +0.000 C 
BRANCH  18  19
ATOM     19  C   UNL     1      -2.256  10.168  16.608  0.00  0.00    +0.000 C 
BRANCH  19  20
ATOM     20  N   UNL     1      -2.518  11.452  15.956  0.00  0.00    +0.000 NA
ATOM     21  H   UNL     1      -1.615  11.879  15.645  0.00  0.00    +0.000 HD
ATOM     22  H   UNL     1      -2.961  12.102  16.644  0.00  0.00    +0.000 HD
ENDBRANCH  19  20
ENDBRANCH  18  19
ENDBRANCH   7  18
ENDBRANCH   4   7
BRANCH   1  23
ATOM     23  O   UNL     1       3.094   6.778  19.586  0.00  0.00    +0.000 OA
BRANCH  23  24
ATOM     24  C   UNL     1       3.131   5.535  18.973  0.00  0.00    +0.000 C 
BRANCH  24  31
ATOM     25  C   UNL     1       5.930   3.947  15.092  0.00  0.00    +0.000 C 
ATOM     26  C   UNL     1       5.842   4.494  16.489  0.00  0.00    +0.000 A 
ATOM     27  C   UNL     1       7.009   4.804  17.207  0.00  0.00    +0.000 A 
ATOM     28  C   UNL     1       6.922   5.340  18.500  0.00  0.00    +0.000 A 
ATOM     29  C   UNL     1       8.149   5.677  19.290  0.00  0.00    +0.000 C 
ATOM     30  C   UNL     1       5.668   5.575  19.070  0.00  0.00    +0.000 A 
ATOM     31  C   UNL     1       4.489   5.270  18.370  0.00  0.00    +0.000 A 
ATOM     32  C   UNL     1       4.586   4.716  17.080  0.00  0.00    +0.000 A 
ENDBRANCH  24  31
ENDBRANCH  23  24
ENDBRANCH   1  23
TORSDOF 8
ENDMDL
MODEL 9
REMARK VINA RESULT:      -7.9      4.053      8.660
REMARK  Name = 
REMARK  10 active torsions:
REMARK  status: ('A' for Active; 'I' for Inactive)
REMARK    1  A    between atoms: C_1  and  C_2
REMARK    2  A    between atoms: C_4  and  C_5
REMARK    3  A    between atoms: C_7  and  C_8
REMARK    4  A    between atoms: C_8  and  O_9
REMARK    5  A    between atoms: O_9  and  C_10
REMARK    6  A    between atoms: C_13  and  N_14
REMARK    7  A    between atoms: N_14  and  C_15
REMARK    8  A    between atoms: C_15  and  C_16
REMARK    9  A    between atoms: C_16  and  N_17
REMARK   10  A    between atoms: C_18  and  C_20
REMARK                            x       y       z     vdW  Elec       q    Type
REMARK                         _______ _______ _______ _____ _____    ______ ____
ROOT
ATOM      1  C   UNL     1       2.230   7.819  19.207  0.00  0.00    +0.000 A 
ATOM      2  C   UNL     1       2.021   8.384  17.939  0.00  0.00    +0.000 A 
ATOM      3  C   UNL     1       1.070   9.388  17.763  0.00  0.00    +0.000 A 
ATOM      4  C   UNL     1       0.308   9.867  18.849  0.00  0.00    +0.000 A 
ATOM      5  C   UNL     1       0.541   9.319  20.125  0.00  0.00    +0.000 A 
ATOM      6  C   UNL     1       1.487   8.298  20.295  0.00  0.00    +0.000 A 
ENDROOT
BRANCH   4   7
ATOM      7  N   UNL     1      -0.729  10.837  18.619  0.00  0.00    +0.000 N 
ATOM      8  C   UNL     1      -0.515  12.185  18.878  0.00  0.00    +0.000 C 
ATOM      9  O   UNL     1      -1.478  12.942  18.806  0.00  0.00    +0.000 OA
BRANCH   8  10
ATOM     10  C   UNL     1       0.821  12.819  19.219  0.00  0.00    +0.000 A 
ATOM     11  C   UNL     1       1.796  13.096  18.227  0.00  0.00    +0.000 A 
ATOM     12  C   UNL     1       3.022  13.677  18.550  0.00  0.00    +0.000 A 
ATOM     13  C   UNL     1       3.308  14.023  19.866  0.00  0.00    +0.000 A 
ATOM     14 CL   UNL     1       4.853  14.751  20.266  0.00  0.00    +0.000 Cl
ATOM     15  C   UNL     1       2.362  13.796  20.861  0.00  0.00    +0.000 A 
ATOM     16  C   UNL     1       1.127  13.210  20.557  0.00  0.00    +0.000 A 
ATOM     17 CL   UNL     1       0.032  12.959  21.918  0.00  0.00    +0.000 Cl
ENDBRANCH   8  10
BRANCH   7  18
ATOM     18  C   UNL     1      -2.087  10.452  18.196  0.00  0.00    +0.000 C 
BRANCH  18  19
ATOM     19  C   UNL     1      -2.333  10.231  16.695  0.00  0.00    +0.000 C 
BRANCH  19  20
ATOM     20  N   UNL     1      -2.432  11.529  16.027  0.00  0.00    +0.000 NA
ATOM     21  H   UNL     1      -1.899  11.503  15.127  0.00  0.00    +0.000 HD
ATOM     22  H   UNL     1      -2.000  12.261  16.635  0.00  0.00    +0.000 HD
ENDBRANCH  19  20
ENDBRANCH  18  19
ENDBRANCH   7  18
ENDBRANCH   4   7
BRANCH   1  23
ATOM     23  O   UNL     1       3.112   6.809  19.414  0.00  0.00    +0.000 OA
BRANCH  23  24
ATOM     24  C   UNL     1       3.148   5.590  18.753  0.00  0.00    +0.000 C 
BRANCH  24  31
ATOM     25  C   UNL     1       8.164   5.689  19.246  0.00  0.00    +0.000 C 
ATOM     26  C   UNL     1       6.949   5.385  18.416  0.00  0.00    +0.000 A 
ATOM     27  C   UNL     1       7.083   4.819  17.137  0.00  0.00    +0.000 A 
ATOM     28  C   UNL     1       5.945   4.513  16.377  0.00  0.00    +0.000 A 
ATOM     29  C   UNL     1       6.058   3.910  15.010  0.00  0.00    +0.000 C 
ATOM     30  C   UNL     1       4.674   4.763  16.900  0.00  0.00    +0.000 A 
ATOM     31  C   UNL     1       4.518   5.330  18.175  0.00  0.00    +0.000 A 
ATOM     32  C   UNL     1       5.666   5.652  18.924  0.00  0.00    +0.000 A 
ENDBRANCH  24  31
ENDBRANCH  23  24
ENDBRANCH   1  23
TORSDOF 8
ENDMDL
