MODEL 1
REMARK VINA RESULT:      -5.3      0.000      0.000
REMARK  Name = 
REMARK  0 active torsions:
REMARK  status: ('A' for Active; 'I' for Inactive)
REMARK                            x       y       z     vdW  Elec       q    Type
REMARK                         _______ _______ _______ _____ _____    ______ ____
ROOT
ATOM      1  O   UNL     1       5.455   6.992  15.471  0.00  0.00    +0.000 OA
ATOM      2  C   UNL     1       5.456   6.291  16.476  0.00  0.00    +0.000 C 
ATOM      3  C   UNL     1       4.371   5.317  16.668  0.00  0.00    +0.000 C 
ATOM      4  C   UNL     1       4.369   4.453  17.685  0.00  0.00    +0.000 C 
ATOM      5 BR   UNL     1       2.973   3.229  17.905  0.00  0.00    +0.000 Br
ATOM      6  C   UNL     1       5.486   4.435  18.672  0.00  0.00    +0.000 C 
ATOM      7  O   UNL     1       5.558   3.571  19.540  0.00  0.00    +0.000 OA
ATOM      8  C   UNL     1       6.506   5.516  18.553  0.00  0.00    +0.000 C 
ATOM      9 CL   UNL     1       7.692   5.573  19.818  0.00  0.00    +0.000 Cl
ATOM     10  C   UNL     1       6.495   6.379  17.533  0.00  0.00    +0.000 C 
ATOM     11 CL   UNL     1       7.655   7.651  17.350  0.00  0.00    +0.000 Cl
ENDROOT
TORSDOF 0
ENDMDL
MODEL 2
REMARK VINA RESULT:      -5.3      3.465      4.267
REMARK  Name = 
REMARK  0 active torsions:
REMARK  status: ('A' for Active; 'I' for Inactive)
REMARK                            x       y       z     vdW  Elec       q    Type
REMARK                         _______ _______ _______ _____ _____    ______ ____
ROOT
ATOM      1  O   UNL     1       1.203   4.246  17.462  0.00  0.00    +0.000 OA
ATOM      2  C   UNL     1       2.359   4.171  17.861  0.00  0.00    +0.000 C 
ATOM      3  C   UNL     1       3.344   5.154  17.384  0.00  0.00    +0.000 C 
ATOM      4  C   UNL     1       4.590   5.192  17.859  0.00  0.00    +0.000 C 
ATOM      5 BR   UNL     1       5.821   6.451  17.229  0.00  0.00    +0.000 Br
ATOM      6  C   UNL     1       5.035   4.235  18.912  0.00  0.00    +0.000 C 
ATOM      7  O   UNL     1       6.136   4.335  19.443  0.00  0.00    +0.000 OA
ATOM      8  C   UNL     1       4.078   3.155  19.287  0.00  0.00    +0.000 C 
ATOM      9 CL   UNL     1       4.687   1.957  20.384  0.00  0.00    +0.000 Cl
ATOM     10  C   UNL     1       2.833   3.123  18.801  0.00  0.00    +0.000 C 
ATOM     11 CL   UNL     1       1.686   1.892  19.204  0.00  0.00    +0.000 Cl
ENDROOT
TORSDOF 0
ENDMDL
MODEL 3
REMARK VINA RESULT:      -5.1      3.357      3.764
REMARK  Name = 
REMARK  0 active torsions:
REMARK  status: ('A' for Active; 'I' for Inactive)
REMARK                            x       y       z     vdW  Elec       q    Type
REMARK                         _______ _______ _______ _____ _____    ______ ____
ROOT
ATOM      1  O   UNL     1       2.350   7.461  19.442  0.00  0.00    +0.000 OA
ATOM      2  C   UNL     1       2.614   6.270  19.322  0.00  0.00    +0.000 C 
ATOM      3  C   UNL     1       2.073   5.316  20.303  0.00  0.00    +0.000 C 
ATOM      4  C   UNL     1       2.236   3.998  20.169  0.00  0.00    +0.000 C 
ATOM      5 BR   UNL     1       1.540   2.811  21.435  0.00  0.00    +0.000 Br
ATOM      6  C   UNL     1       2.972   3.435  19.002  0.00  0.00    +0.000 C 
ATOM      7  O   UNL     1       3.025   2.225  18.803  0.00  0.00    +0.000 OA
ATOM      8  C   UNL     1       3.637   4.410  18.091  0.00  0.00    +0.000 C 
ATOM      9 CL   UNL     1       4.629   3.721  16.846  0.00  0.00    +0.000 Cl
ATOM     10  C   UNL     1       3.472   5.728  18.237  0.00  0.00    +0.000 C 
ATOM     11 CL   UNL     1       4.222   6.901  17.209  0.00  0.00    +0.000 Cl
ENDROOT
TORSDOF 0
ENDMDL
MODEL 4
REMARK VINA RESULT:      -5.1      3.573      4.788
REMARK  Name = 
REMARK  0 active torsions:
REMARK  status: ('A' for Active; 'I' for Inactive)
REMARK                            x       y       z     vdW  Elec       q    Type
REMARK                         _______ _______ _______ _____ _____    ______ ____
ROOT
ATOM      1  O   UNL     1       1.633   2.060  18.533  0.00  0.00    +0.000 OA
ATOM      2  C   UNL     1       2.257   3.102  18.374  0.00  0.00    +0.000 C 
ATOM      3  C   UNL     1       3.339   3.141  17.377  0.00  0.00    +0.000 C 
ATOM      4  C   UNL     1       3.986   4.270  17.081  0.00  0.00    +0.000 C 
ATOM      5 BR   UNL     1       5.360   4.287  15.813  0.00  0.00    +0.000 Br
ATOM      6  C   UNL     1       3.626   5.553  17.749  0.00  0.00    +0.000 C 
ATOM      7  O   UNL     1       4.127   6.618  17.402  0.00  0.00    +0.000 OA
ATOM      8  C   UNL     1       2.630   5.479  18.856  0.00  0.00    +0.000 C 
ATOM      9 CL   UNL     1       2.363   6.954  19.729  0.00  0.00    +0.000 Cl
ATOM     10  C   UNL     1       1.992   4.341  19.148  0.00  0.00    +0.000 C 
ATOM     11 CL   UNL     1       0.829   4.202  20.422  0.00  0.00    +0.000 Cl
ENDROOT
TORSDOF 0
ENDMDL
MODEL 5
REMARK VINA RESULT:      -5.1      3.804      4.517
REMARK  Name = 
REMARK  0 active torsions:
REMARK  status: ('A' for Active; 'I' for Inactive)
REMARK                            x       y       z     vdW  Elec       q    Type
REMARK                         _______ _______ _______ _____ _____    ______ ____
ROOT
ATOM      1  O   UNL     1       0.907   4.226  17.116  0.00  0.00    +0.000 OA
ATOM      2  C   UNL     1       1.963   3.968  17.681  0.00  0.00    +0.000 C 
ATOM      3  C   UNL     1       3.231   4.246  16.988  0.00  0.00    +0.000 C 
ATOM      4  C   UNL     1       4.413   4.086  17.587  0.00  0.00    +0.000 C 
ATOM      5 BR   UNL     1       6.007   4.444  16.678  0.00  0.00    +0.000 Br
ATOM      6  C   UNL     1       4.494   3.623  19.001  0.00  0.00    +0.000 C 
ATOM      7  O   UNL     1       5.564   3.587  19.601  0.00  0.00    +0.000 OA
ATOM      8  C   UNL     1       3.217   3.208  19.648  0.00  0.00    +0.000 C 
ATOM      9 CL   UNL     1       3.366   2.511  21.229  0.00  0.00    +0.000 Cl
ATOM     10  C   UNL     1       2.039   3.368  19.037  0.00  0.00    +0.000 C 
ATOM     11 CL   UNL     1       0.530   2.902  19.744  0.00  0.00    +0.000 Cl
ENDROOT
TORSDOF 0
ENDMDL
MODEL 6
REMARK VINA RESULT:      -5.1      3.690      4.778
REMARK  Name = 
REMARK  0 active torsions:
REMARK  status: ('A' for Active; 'I' for Inactive)
REMARK                            x       y       z     vdW  Elec       q    Type
REMARK                         _______ _______ _______ _____ _____    ______ ____
ROOT
ATOM      1  O   UNL     1       3.332   1.632  17.920  0.00  0.00    +0.000 OA
ATOM      2  C   UNL     1       3.353   2.843  18.106  0.00  0.00    +0.000 C 
ATOM      3  C   UNL     1       4.158   3.689  17.212  0.00  0.00    +0.000 C 
ATOM      4  C   UNL     1       4.141   5.021  17.296  0.00  0.00    +0.000 C 
ATOM      5 BR   UNL     1       5.179   6.070  16.148  0.00  0.00    +0.000 Br
ATOM      6  C   UNL     1       3.286   5.711  18.304  0.00  0.00    +0.000 C 
ATOM      7  O   UNL     1       3.168   6.932  18.313  0.00  0.00    +0.000 OA
ATOM      8  C   UNL     1       2.585   4.847  19.296  0.00  0.00    +0.000 C 
ATOM      9 CL   UNL     1       1.743   5.684  20.560  0.00  0.00    +0.000 Cl
ATOM     10  C   UNL     1       2.614   3.514  19.206  0.00  0.00    +0.000 C 
ATOM     11 CL   UNL     1       1.818   2.467  20.332  0.00  0.00    +0.000 Cl
ENDROOT
TORSDOF 0
ENDMDL
MODEL 7
REMARK VINA RESULT:      -5.1      2.513      3.428
REMARK  Name = 
REMARK  0 active torsions:
REMARK  status: ('A' for Active; 'I' for Inactive)
REMARK                            x       y       z     vdW  Elec       q    Type
REMARK                         _______ _______ _______ _____ _____    ______ ____
ROOT
ATOM      1  O   UNL     1       3.297   4.026  17.599  0.00  0.00    +0.000 OA
ATOM      2  C   UNL     1       4.375   4.366  17.127  0.00  0.00    +0.000 C 
ATOM      3  C   UNL     1       4.715   3.956  15.755  0.00  0.00    +0.000 C 
ATOM      4  C   UNL     1       5.825   4.380  15.146  0.00  0.00    +0.000 C 
ATOM      5 BR   UNL     1       6.232   3.838  13.404  0.00  0.00    +0.000 Br
ATOM      6  C   UNL     1       6.768   5.305  15.837  0.00  0.00    +0.000 C 
ATOM      7  O   UNL     1       7.726   5.796  15.250  0.00  0.00    +0.000 OA
ATOM      8  C   UNL     1       6.491   5.601  17.272  0.00  0.00    +0.000 C 
ATOM      9 CL   UNL     1       7.698   6.535  18.095  0.00  0.00    +0.000 Cl
ATOM     10  C   UNL     1       5.378   5.166  17.873  0.00  0.00    +0.000 C 
ATOM     11 CL   UNL     1       5.011   5.482  19.535  0.00  0.00    +0.000 Cl
ENDROOT
TORSDOF 0
ENDMDL
MODEL 8
REMARK VINA RESULT:      -5.0      3.965      4.778
REMARK  Name = 
REMARK  0 active torsions:
REMARK  status: ('A' for Active; 'I' for Inactive)
REMARK                            x       y       z     vdW  Elec       q    Type
REMARK                         _______ _______ _______ _____ _____    ______ ____
ROOT
ATOM      1  O   UNL     1       1.945   6.635  20.270  0.00  0.00    +0.000 OA
ATOM      2  C   UNL     1       2.410   5.923  19.388  0.00  0.00    +0.000 C 
ATOM      3  C   UNL     1       3.353   6.507  18.423  0.00  0.00    +0.000 C 
ATOM      4  C   UNL     1       3.975   5.764  17.505  0.00  0.00    +0.000 C 
ATOM      5 BR   UNL     1       5.166   6.536  16.288  0.00  0.00    +0.000 Br
ATOM      6  C   UNL     1       3.742   4.293  17.429  0.00  0.00    +0.000 C 
ATOM      7  O   UNL     1       4.394   3.581  16.672  0.00  0.00    +0.000 OA
ATOM      8  C   UNL     1       2.681   3.733  18.314  0.00  0.00    +0.000 C 
ATOM      9 CL   UNL     1       2.312   2.055  18.078  0.00  0.00    +0.000 Cl
ATOM     10  C   UNL     1       2.061   4.488  19.226  0.00  0.00    +0.000 C 
ATOM     11 CL   UNL     1       0.823   3.887  20.276  0.00  0.00    +0.000 Cl
ENDROOT
TORSDOF 0
ENDMDL
MODEL 9
REMARK VINA RESULT:      -5.0      3.783      5.055
REMARK  Name = 
REMARK  0 active torsions:
REMARK  status: ('A' for Active; 'I' for Inactive)
REMARK                            x       y       z     vdW  Elec       q    Type
REMARK                         _______ _______ _______ _____ _____    ______ ____
ROOT
ATOM      1  O   UNL     1       4.864   1.866  20.056  0.00  0.00    +0.000 OA
ATOM      2  C   UNL     1       4.312   2.904  19.711  0.00  0.00    +0.000 C 
ATOM      3  C   UNL     1       4.908   3.705  18.630  0.00  0.00    +0.000 C 
ATOM      4  C   UNL     1       4.302   4.787  18.137  0.00  0.00    +0.000 C 
ATOM      5 BR   UNL     1       5.087   5.788  16.766  0.00  0.00    +0.000 Br
ATOM      6  C   UNL     1       2.977   5.225  18.662  0.00  0.00    +0.000 C 
ATOM      7  O   UNL     1       2.355   6.144  18.139  0.00  0.00    +0.000 OA
ATOM      8  C   UNL     1       2.448   4.495  19.849  0.00  0.00    +0.000 C 
ATOM      9 CL   UNL     1       0.995   5.138  20.542  0.00  0.00    +0.000 Cl
ATOM     10  C   UNL     1       3.066   3.415  20.338  0.00  0.00    +0.000 C 
ATOM     11 CL   UNL     1       2.494   2.533  21.712  0.00  0.00    +0.000 Cl
ENDROOT
TORSDOF 0
ENDMDL
