MODEL 1
REMARK VINA RESULT:      -8.1      0.000      0.000
REMARK  Name = 
REMARK  9 active torsions:
REMARK  status: ('A' for Active; 'I' for Inactive)
REMARK    1  A    between atoms: C_1  and  C_2
REMARK    2  A    between atoms: C_2  and  O_3
REMARK    3  A    between atoms: O_3  and  C_4
REMARK    4  A    between atoms: C_7  and  C_8
REMARK    5  A    between atoms: C_8  and  N_9
REMARK    6  A    between atoms: N_12  and  S_13
REMARK    7  A    between atoms: S_13  and  C_16
REMARK    8  A    between atoms: C_19  and  O_20
REMARK    9  A    between atoms: O_20  and  C_21
REMARK                            x       y       z     vdW  Elec       q    Type
REMARK                         _______ _______ _______ _____ _____    ______ ____
ROOT
ATOM      1  N   UNL     1       8.282   9.168  17.840  0.00  0.00    +0.000 N 
ATOM      2  C   UNL     1       8.004   7.834  17.882  0.00  0.00    +0.000 C 
ATOM      3  O   UNL     1       8.323   7.107  18.806  0.00  0.00    +0.000 OA
ATOM      4  N   UNL     1       7.278   7.390  16.789  0.00  0.00    +0.000 N 
ATOM      5  H   UNL     1       8.074   9.702  17.012  0.00  0.00    +0.000 HD
ATOM      6  H   UNL     1       6.913   8.022  16.088  0.00  0.00    +0.000 HD
ENDROOT
BRANCH   4   7
ATOM      7  S   UNL     1       6.716   5.830  16.627  0.00  0.00    +0.000 S 
ATOM      8  O   UNL     1       6.239   5.727  15.262  0.00  0.00    +0.000 OA
ATOM      9  O   UNL     1       7.725   4.923  17.126  0.00  0.00    +0.000 OA
BRANCH   7  10
ATOM     10  C   UNL     1       5.287   5.762  17.681  0.00  0.00    +0.000 A 
ATOM     11  C   UNL     1       5.196   4.772  18.661  0.00  0.00    +0.000 A 
ATOM     12  C   UNL     1       4.048   4.700  19.453  0.00  0.00    +0.000 A 
ATOM     13  C   UNL     1       3.011   5.625  19.293  0.00  0.00    +0.000 A 
ATOM     14  C   UNL     1       3.114   6.618  18.316  0.00  0.00    +0.000 A 
ATOM     15  C   UNL     1       4.256   6.692  17.512  0.00  0.00    +0.000 A 
BRANCH  13  16
ATOM     16  O   UNL     1       1.932   5.437  20.114  0.00  0.00    +0.000 OA
ATOM     17  C   UNL     1       2.100   4.460  21.136  0.00  0.00    +0.000 C 
ENDBRANCH  13  16
ENDBRANCH   7  10
ENDBRANCH   4   7
BRANCH   1  18
ATOM     18  C   UNL     1       8.962   9.818  18.937  0.00  0.00    +0.000 C 
BRANCH  18  22
ATOM     19  C   UNL     1      11.052  13.377  17.650  0.00  0.00    +0.000 A 
ATOM     20  C   UNL     1      11.728  12.371  18.341  0.00  0.00    +0.000 A 
ATOM     21  C   UNL     1      11.055  11.223  18.769  0.00  0.00    +0.000 A 
ATOM     22  C   UNL     1       9.688  11.069  18.516  0.00  0.00    +0.000 A 
ATOM     23  C   UNL     1       9.006  12.104  17.858  0.00  0.00    +0.000 A 
ATOM     24  C   UNL     1       9.682  13.254  17.431  0.00  0.00    +0.000 A 
BRANCH  19  25
ATOM     25  O   UNL     1      11.830  14.429  17.252  0.00  0.00    +0.000 OA
BRANCH  25  27
ATOM     26  C   UNL     1      11.826  16.787  17.592  0.00  0.00    +0.000 C 
ATOM     27  C   UNL     1      11.140  15.626  16.892  0.00  0.00    +0.000 C 
ENDBRANCH  25  27
ENDBRANCH  19  25
ENDBRANCH  18  22
ENDBRANCH   1  18
TORSDOF 7
ENDMDL
MODEL 2
REMARK VINA RESULT:      -8.0      0.650      1.039
REMARK  Name = 
REMARK  9 active torsions:
REMARK  status: ('A' for Active; 'I' for Inactive)
REMARK    1  A    between atoms: C_1  and  C_2
REMARK    2  A    between atoms: C_2  and  O_3
REMARK    3  A    between atoms: O_3  and  C_4
REMARK    4  A    between atoms: C_7  and  C_8
REMARK    5  A    between atoms: C_8  and  N_9
REMARK    6  A    between atoms: N_12  and  S_13
REMARK    7  A    between atoms: S_13  and  C_16
REMARK    8  A    between atoms: C_19  and  O_20
REMARK    9  A    between atoms: O_20  and  C_21
REMARK                            x       y       z     vdW  Elec       q    Type
REMARK                         _______ _______ _______ _____ _____    ______ ____
ROOT
ATOM      1  N   UNL     1       8.390   9.109  18.120  0.00  0.00    +0.000 N 
ATOM      2  C   UNL     1       8.029   7.795  18.093  0.00  0.00    +0.000 C 
ATOM      3  O   UNL     1       8.210   7.027  19.021  0.00  0.00    +0.000 OA
ATOM      4  N   UNL     1       7.391   7.426  16.921  0.00  0.00    +0.000 N 
ATOM      5  H   UNL     1       8.298   9.676  17.293  0.00  0.00    +0.000 HD
ATOM      6  H   UNL     1       7.137   8.097  16.208  0.00  0.00    +0.000 HD
ENDROOT
BRANCH   4   7
ATOM      7  S   UNL     1       6.755   5.908  16.656  0.00  0.00    +0.000 S 
ATOM      8  O   UNL     1       6.266   5.923  15.291  0.00  0.00    +0.000 OA
ATOM      9  O   UNL     1       7.723   4.922  17.082  0.00  0.00    +0.000 OA
BRANCH   7  10
ATOM     10  C   UNL     1       5.330   5.835  17.715  0.00  0.00    +0.000 A 
ATOM     11  C   UNL     1       5.289   4.905  18.756  0.00  0.00    +0.000 A 
ATOM     12  C   UNL     1       4.146   4.824  19.553  0.00  0.00    +0.000 A 
ATOM     13  C   UNL     1       3.062   5.683  19.337  0.00  0.00    +0.000 A 
ATOM     14  C   UNL     1       3.115   6.615  18.299  0.00  0.00    +0.000 A 
ATOM     15  C   UNL     1       4.252   6.697  17.489  0.00  0.00    +0.000 A 
BRANCH  13  16
ATOM     16  O   UNL     1       1.994   5.492  20.170  0.00  0.00    +0.000 OA
ATOM     17  C   UNL     1       2.054   4.330  20.991  0.00  0.00    +0.000 C 
ENDBRANCH  13  16
ENDBRANCH   7  10
ENDBRANCH   4   7
BRANCH   1  18
ATOM     18  C   UNL     1       8.995   9.688  19.298  0.00  0.00    +0.000 C 
BRANCH  18  22
ATOM     19  C   UNL     1      11.585  13.032  18.406  0.00  0.00    +0.000 A 
ATOM     20  C   UNL     1      10.891  12.384  17.385  0.00  0.00    +0.000 A 
ATOM     21  C   UNL     1      10.060  11.295  17.665  0.00  0.00    +0.000 A 
ATOM     22  C   UNL     1       9.918  10.834  18.979  0.00  0.00    +0.000 A 
ATOM     23  C   UNL     1      10.653  11.465  19.995  0.00  0.00    +0.000 A 
ATOM     24  C   UNL     1      11.486  12.554  19.711  0.00  0.00    +0.000 A 
BRANCH  19  25
ATOM     25  O   UNL     1      12.333  14.106  18.008  0.00  0.00    +0.000 OA
BRANCH  25  27
ATOM     26  C   UNL     1      11.293  15.985  16.977  0.00  0.00    +0.000 C 
ATOM     27  C   UNL     1      11.788  15.395  18.287  0.00  0.00    +0.000 C 
ENDBRANCH  25  27
ENDBRANCH  19  25
ENDBRANCH  18  22
ENDBRANCH   1  18
TORSDOF 7
ENDMDL
MODEL 3
REMARK VINA RESULT:      -8.0      0.779      1.253
REMARK  Name = 
REMARK  9 active torsions:
REMARK  status: ('A' for Active; 'I' for Inactive)
REMARK    1  A    between atoms: C_1  and  C_2
REMARK    2  A    between atoms: C_2  and  O_3
REMARK    3  A    between atoms: O_3  and  C_4
REMARK    4  A    between atoms: C_7  and  C_8
REMARK    5  A    between atoms: C_8  and  N_9
REMARK    6  A    between atoms: N_12  and  S_13
REMARK    7  A    between atoms: S_13  and  C_16
REMARK    8  A    between atoms: C_19  and  O_20
REMARK    9  A    between atoms: O_20  and  C_21
REMARK                            x       y       z     vdW  Elec       q    Type
REMARK                         _______ _______ _______ _____ _____    ______ ____
ROOT
ATOM      1  N   UNL     1       8.396   9.005  18.070  0.00  0.00    +0.000 N 
ATOM      2  C   UNL     1       8.007   7.701  18.004  0.00  0.00    +0.000 C 
ATOM      3  O   UNL     1       8.191   6.896  18.900  0.00  0.00    +0.000 OA
ATOM      4  N   UNL     1       7.337   7.386  16.834  0.00  0.00    +0.000 N 
ATOM      5  H   UNL     1       8.299   9.603  17.265  0.00  0.00    +0.000 HD
ATOM      6  H   UNL     1       7.083   8.087  16.150  0.00  0.00    +0.000 HD
ENDROOT
BRANCH   4   7
ATOM      7  S   UNL     1       6.664   5.892  16.529  0.00  0.00    +0.000 S 
ATOM      8  O   UNL     1       6.152   5.963  15.174  0.00  0.00    +0.000 OA
ATOM      9  O   UNL     1       7.618   4.872  16.905  0.00  0.00    +0.000 OA
BRANCH   7  10
ATOM     10  C   UNL     1       5.257   5.812  17.611  0.00  0.00    +0.000 A 
ATOM     11  C   UNL     1       4.199   6.707  17.438  0.00  0.00    +0.000 A 
ATOM     12  C   UNL     1       3.120   6.666  18.324  0.00  0.00    +0.000 A 
ATOM     13  C   UNL     1       3.077   5.720  19.354  0.00  0.00    +0.000 A 
ATOM     14  C   UNL     1       4.136   4.823  19.514  0.00  0.00    +0.000 A 
ATOM     15  C   UNL     1       5.225   4.864  18.639  0.00  0.00    +0.000 A 
BRANCH  13  16
ATOM     16  O   UNL     1       1.978   5.794  20.166  0.00  0.00    +0.000 OA
ATOM     17  C   UNL     1       1.546   4.559  20.728  0.00  0.00    +0.000 C 
ENDBRANCH  13  16
ENDBRANCH   7  10
ENDBRANCH   4   7
BRANCH   1  18
ATOM     18  C   UNL     1       9.037   9.529  19.254  0.00  0.00    +0.000 C 
BRANCH  18  22
ATOM     19  C   UNL     1      10.544  13.544  18.706  0.00  0.00    +0.000 A 
ATOM     20  C   UNL     1      10.574  12.943  19.965  0.00  0.00    +0.000 A 
ATOM     21  C   UNL     1      10.078  11.650  20.150  0.00  0.00    +0.000 A 
ATOM     22  C   UNL     1       9.537  10.939  19.074  0.00  0.00    +0.000 A 
ATOM     23  C   UNL     1       9.472  11.566  17.820  0.00  0.00    +0.000 A 
ATOM     24  C   UNL     1       9.968  12.863  17.637  0.00  0.00    +0.000 A 
BRANCH  19  25
ATOM     25  O   UNL     1      11.094  14.795  18.648  0.00  0.00    +0.000 OA
BRANCH  25  27
ATOM     26  C   UNL     1      11.002  16.415  16.904  0.00  0.00    +0.000 C 
ATOM     27  C   UNL     1      11.700  15.163  17.409  0.00  0.00    +0.000 C 
ENDBRANCH  25  27
ENDBRANCH  19  25
ENDBRANCH  18  22
ENDBRANCH   1  18
TORSDOF 7
ENDMDL
MODEL 4
REMARK VINA RESULT:      -7.8      0.882      1.502
REMARK  Name = 
REMARK  9 active torsions:
REMARK  status: ('A' for Active; 'I' for Inactive)
REMARK    1  A    between atoms: C_1  and  C_2
REMARK    2  A    between atoms: C_2  and  O_3
REMARK    3  A    between atoms: O_3  and  C_4
REMARK    4  A    between atoms: C_7  and  C_8
REMARK    5  A    between atoms: C_8  and  N_9
REMARK    6  A    between atoms: N_12  and  S_13
REMARK    7  A    between atoms: S_13  and  C_16
REMARK    8  A    between atoms: C_19  and  O_20
REMARK    9  A    between atoms: O_20  and  C_21
REMARK                            x       y       z     vdW  Elec       q    Type
REMARK                         _______ _______ _______ _____ _____    ______ ____
ROOT
ATOM      1  N   UNL     1       8.380   9.142  18.110  0.00  0.00    +0.000 N 
ATOM      2  C   UNL     1       7.995   7.837  18.014  0.00  0.00    +0.000 C 
ATOM      3  O   UNL     1       8.206   7.007  18.880  0.00  0.00    +0.000 OA
ATOM      4  N   UNL     1       7.296   7.555  16.853  0.00  0.00    +0.000 N 
ATOM      5  H   UNL     1       8.258   9.763  17.326  0.00  0.00    +0.000 HD
ATOM      6  H   UNL     1       7.020   8.275  16.198  0.00  0.00    +0.000 HD
ENDROOT
BRANCH   4   7
ATOM      7  S   UNL     1       6.622   6.068  16.520  0.00  0.00    +0.000 S 
ATOM      8  O   UNL     1       6.095   6.170  15.173  0.00  0.00    +0.000 OA
ATOM      9  O   UNL     1       7.581   5.041  16.861  0.00  0.00    +0.000 OA
BRANCH   7  10
ATOM     10  C   UNL     1       5.226   5.959  17.614  0.00  0.00    +0.000 A 
ATOM     11  C   UNL     1       4.124   6.792  17.415  0.00  0.00    +0.000 A 
ATOM     12  C   UNL     1       3.053   6.731  18.309  0.00  0.00    +0.000 A 
ATOM     13  C   UNL     1       3.063   5.826  19.376  0.00  0.00    +0.000 A 
ATOM     14  C   UNL     1       4.167   4.991  19.563  0.00  0.00    +0.000 A 
ATOM     15  C   UNL     1       5.248   5.052  18.679  0.00  0.00    +0.000 A 
BRANCH  13  16
ATOM     16  O   UNL     1       1.967   5.877  20.192  0.00  0.00    +0.000 OA
ATOM     17  C   UNL     1       1.472   4.617  20.635  0.00  0.00    +0.000 C 
ENDBRANCH  13  16
ENDBRANCH   7  10
ENDBRANCH   4   7
BRANCH   1  18
ATOM     18  C   UNL     1       9.049   9.633  19.292  0.00  0.00    +0.000 C 
BRANCH  18  22
ATOM     19  C   UNL     1      11.125  13.364  18.616  0.00  0.00    +0.000 A 
ATOM     20  C   UNL     1      10.650  12.614  17.540  0.00  0.00    +0.000 A 
ATOM     21  C   UNL     1       9.987  11.401  17.751  0.00  0.00    +0.000 A 
ATOM     22  C   UNL     1       9.797  10.917  19.050  0.00  0.00    +0.000 A 
ATOM     23  C   UNL     1      10.315  11.656  20.125  0.00  0.00    +0.000 A 
ATOM     24  C   UNL     1      10.979  12.870  19.910  0.00  0.00    +0.000 A 
BRANCH  19  25
ATOM     25  O   UNL     1      11.719  14.549  18.279  0.00  0.00    +0.000 OA
BRANCH  25  27
ATOM     26  C   UNL     1      11.731  16.770  19.138  0.00  0.00    +0.000 C 
ATOM     27  C   UNL     1      12.204  15.344  19.360  0.00  0.00    +0.000 C 
ENDBRANCH  25  27
ENDBRANCH  19  25
ENDBRANCH  18  22
ENDBRANCH   1  18
TORSDOF 7
ENDMDL
MODEL 5
REMARK VINA RESULT:      -7.8      0.952      1.026
REMARK  Name = 
REMARK  9 active torsions:
REMARK  status: ('A' for Active; 'I' for Inactive)
REMARK    1  A    between atoms: C_1  and  C_2
REMARK    2  A    between atoms: C_2  and  O_3
REMARK    3  A    between atoms: O_3  and  C_4
REMARK    4  A    between atoms: C_7  and  C_8
REMARK    5  A    between atoms: C_8  and  N_9
REMARK    6  A    between atoms: N_12  and  S_13
REMARK    7  A    between atoms: S_13  and  C_16
REMARK    8  A    between atoms: C_19  and  O_20
REMARK    9  A    between atoms: O_20  and  C_21
REMARK                            x       y       z     vdW  Elec       q    Type
REMARK                         _______ _______ _______ _____ _____    ______ ____
ROOT
ATOM      1  N   UNL     1       8.317   8.893  18.056  0.00  0.00    +0.000 N 
ATOM      2  C   UNL     1       7.990   7.574  17.959  0.00  0.00    +0.000 C 
ATOM      3  O   UNL     1       8.133   6.775  18.867  0.00  0.00    +0.000 OA
ATOM      4  N   UNL     1       7.431   7.234  16.738  0.00  0.00    +0.000 N 
ATOM      5  H   UNL     1       8.260   9.489  17.245  0.00  0.00    +0.000 HD
ATOM      6  H   UNL     1       7.204   7.926  16.035  0.00  0.00    +0.000 HD
ENDROOT
BRANCH   4   7
ATOM      7  S   UNL     1       6.849   5.715  16.380  0.00  0.00    +0.000 S 
ATOM      8  O   UNL     1       6.442   5.770  14.989  0.00  0.00    +0.000 OA
ATOM      9  O   UNL     1       7.812   4.735  16.829  0.00  0.00    +0.000 OA
BRANCH   7  10
ATOM     10  C   UNL     1       5.365   5.570  17.347  0.00  0.00    +0.000 A 
ATOM     11  C   UNL     1       5.102   4.386  18.039  0.00  0.00    +0.000 A 
ATOM     12  C   UNL     1       3.911   4.267  18.758  0.00  0.00    +0.000 A 
ATOM     13  C   UNL     1       3.002   5.329  18.815  0.00  0.00    +0.000 A 
ATOM     14  C   UNL     1       3.277   6.513  18.127  0.00  0.00    +0.000 A 
ATOM     15  C   UNL     1       4.462   6.638  17.396  0.00  0.00    +0.000 A 
BRANCH  13  16
ATOM     16  O   UNL     1       1.864   5.083  19.534  0.00  0.00    +0.000 OA
ATOM     17  C   UNL     1       2.057   4.821  20.920  0.00  0.00    +0.000 C 
ENDBRANCH  13  16
ENDBRANCH   7  10
ENDBRANCH   4   7
BRANCH   1  18
ATOM     18  C   UNL     1       8.836   9.440  19.288  0.00  0.00    +0.000 C 
BRANCH  18  22
ATOM     19  C   UNL     1      11.343  12.903  18.644  0.00  0.00    +0.000 A 
ATOM     20  C   UNL     1      11.151  12.398  19.931  0.00  0.00    +0.000 A 
ATOM     21  C   UNL     1      10.333  11.286  20.147  0.00  0.00    +0.000 A 
ATOM     22  C   UNL     1       9.687  10.664  19.072  0.00  0.00    +0.000 A 
ATOM     23  C   UNL     1       9.851  11.203  17.787  0.00  0.00    +0.000 A 
ATOM     24  C   UNL     1      10.671  12.319  17.574  0.00  0.00    +0.000 A 
BRANCH  19  25
ATOM     25  O   UNL     1      12.195  13.969  18.562  0.00  0.00    +0.000 OA
BRANCH  25  27
ATOM     26  C   UNL     1      11.786  16.295  18.872  0.00  0.00    +0.000 C 
ATOM     27  C   UNL     1      12.055  14.972  19.568  0.00  0.00    +0.000 C 
ENDBRANCH  25  27
ENDBRANCH  19  25
ENDBRANCH  18  22
ENDBRANCH   1  18
TORSDOF 7
ENDMDL
MODEL 6
REMARK VINA RESULT:      -7.6      0.657      1.345
REMARK  Name = 
REMARK  9 active torsions:
REMARK  status: ('A' for Active; 'I' for Inactive)
REMARK    1  A    between atoms: C_1  and  C_2
REMARK    2  A    between atoms: C_2  and  O_3
REMARK    3  A    between atoms: O_3  and  C_4
REMARK    4  A    between atoms: C_7  and  C_8
REMARK    5  A    between atoms: C_8  and  N_9
REMARK    6  A    between atoms: N_12  and  S_13
REMARK    7  A    between atoms: S_13  and  C_16
REMARK    8  A    between atoms: C_19  and  O_20
REMARK    9  A    between atoms: O_20  and  C_21
REMARK                            x       y       z     vdW  Elec       q    Type
REMARK                         _______ _______ _______ _____ _____    ______ ____
ROOT
ATOM      1  N   UNL     1       8.102   9.023  17.816  0.00  0.00    +0.000 N 
ATOM      2  C   UNL     1       7.968   7.668  17.868  0.00  0.00    +0.000 C 
ATOM      3  O   UNL     1       8.411   6.981  18.772  0.00  0.00    +0.000 OA
ATOM      4  N   UNL     1       7.235   7.147  16.815  0.00  0.00    +0.000 N 
ATOM      5  H   UNL     1       7.794   9.531  17.003  0.00  0.00    +0.000 HD
ATOM      6  H   UNL     1       6.769   7.736  16.137  0.00  0.00    +0.000 HD
ENDROOT
BRANCH   4   7
ATOM      7  S   UNL     1       6.833   5.536  16.678  0.00  0.00    +0.000 S 
ATOM      8  O   UNL     1       6.481   5.338  15.285  0.00  0.00    +0.000 OA
ATOM      9  O   UNL     1       7.875   4.747  17.295  0.00  0.00    +0.000 OA
BRANCH   7  10
ATOM     10  C   UNL     1       5.333   5.373  17.618  0.00  0.00    +0.000 A 
ATOM     11  C   UNL     1       4.122   5.156  16.958  0.00  0.00    +0.000 A 
ATOM     12  C   UNL     1       2.944   5.077  17.703  0.00  0.00    +0.000 A 
ATOM     13  C   UNL     1       2.973   5.180  19.098  0.00  0.00    +0.000 A 
ATOM     14  C   UNL     1       4.191   5.389  19.751  0.00  0.00    +0.000 A 
ATOM     15  C   UNL     1       5.374   5.480  19.012  0.00  0.00    +0.000 A 
BRANCH  13  16
ATOM     16  O   UNL     1       1.753   5.106  19.713  0.00  0.00    +0.000 OA
ATOM     17  C   UNL     1       1.390   3.821  20.206  0.00  0.00    +0.000 C 
ENDBRANCH  13  16
ENDBRANCH   7  10
ENDBRANCH   4   7
BRANCH   1  18
ATOM     18  C   UNL     1       8.767   9.744  18.877  0.00  0.00    +0.000 C 
BRANCH  18  22
ATOM     19  C   UNL     1      10.986  13.200  17.528  0.00  0.00    +0.000 A 
ATOM     20  C   UNL     1       9.592  13.190  17.475  0.00  0.00    +0.000 A 
ATOM     21  C   UNL     1       8.869  12.072  17.900  0.00  0.00    +0.000 A 
ATOM     22  C   UNL     1       9.537  10.939  18.379  0.00  0.00    +0.000 A 
ATOM     23  C   UNL     1      10.940  10.940  18.389  0.00  0.00    +0.000 A 
ATOM     24  C   UNL     1      11.662  12.062  17.961  0.00  0.00    +0.000 A 
BRANCH  19  25
ATOM     25  O   UNL     1      11.573  14.367  17.121  0.00  0.00    +0.000 OA
BRANCH  25  27
ATOM     26  C   UNL     1      11.457  16.693  17.619  0.00  0.00    +0.000 C 
ATOM     27  C   UNL     1      10.719  15.505  17.025  0.00  0.00    +0.000 C 
ENDBRANCH  25  27
ENDBRANCH  19  25
ENDBRANCH  18  22
ENDBRANCH   1  18
TORSDOF 7
ENDMDL
MODEL 7
REMARK VINA RESULT:      -7.5      0.982      1.401
REMARK  Name = 
REMARK  9 active torsions:
REMARK  status: ('A' for Active; 'I' for Inactive)
REMARK    1  A    between atoms: C_1  and  C_2
REMARK    2  A    between atoms: C_2  and  O_3
REMARK    3  A    between atoms: O_3  and  C_4
REMARK    4  A    between atoms: C_7  and  C_8
REMARK    5  A    between atoms: C_8  and  N_9
REMARK    6  A    between atoms: N_12  and  S_13
REMARK    7  A    between atoms: S_13  and  C_16
REMARK    8  A    between atoms: C_19  and  O_20
REMARK    9  A    between atoms: O_20  and  C_21
REMARK                            x       y       z     vdW  Elec       q    Type
REMARK                         _______ _______ _______ _____ _____    ______ ____
ROOT
ATOM      1  N   UNL     1       8.096   8.860  17.867  0.00  0.00    +0.000 N 
ATOM      2  C   UNL     1       7.966   7.503  17.845  0.00  0.00    +0.000 C 
ATOM      3  O   UNL     1       8.369   6.773  18.733  0.00  0.00    +0.000 OA
ATOM      4  N   UNL     1       7.284   7.034  16.735  0.00  0.00    +0.000 N 
ATOM      5  H   UNL     1       7.824   9.406  17.066  0.00  0.00    +0.000 HD
ATOM      6  H   UNL     1       6.848   7.654  16.065  0.00  0.00    +0.000 HD
ENDROOT
BRANCH   4   7
ATOM      7  S   UNL     1       6.896   5.431  16.499  0.00  0.00    +0.000 S 
ATOM      8  O   UNL     1       6.547   5.315  15.096  0.00  0.00    +0.000 OA
ATOM      9  O   UNL     1       7.944   4.614  17.069  0.00  0.00    +0.000 OA
BRANCH   7  10
ATOM     10  C   UNL     1       5.398   5.199  17.426  0.00  0.00    +0.000 A 
ATOM     11  C   UNL     1       5.381   5.473  18.795  0.00  0.00    +0.000 A 
ATOM     12  C   UNL     1       4.211   5.242  19.522  0.00  0.00    +0.000 A 
ATOM     13  C   UNL     1       3.056   4.772  18.887  0.00  0.00    +0.000 A 
ATOM     14  C   UNL     1       3.080   4.508  17.516  0.00  0.00    +0.000 A 
ATOM     15  C   UNL     1       4.249   4.727  16.781  0.00  0.00    +0.000 A 
BRANCH  13  16
ATOM     16  O   UNL     1       1.983   4.567  19.710  0.00  0.00    +0.000 OA
ATOM     17  C   UNL     1       1.725   5.602  20.654  0.00  0.00    +0.000 C 
ENDBRANCH  13  16
ENDBRANCH   7  10
ENDBRANCH   4   7
BRANCH   1  18
ATOM     18  C   UNL     1       8.708   9.528  18.991  0.00  0.00    +0.000 C 
BRANCH  18  22
ATOM     19  C   UNL     1      10.504  13.332  17.992  0.00  0.00    +0.000 A 
ATOM     20  C   UNL     1       9.236  13.001  17.515  0.00  0.00    +0.000 A 
ATOM     21  C   UNL     1       8.654  11.769  17.825  0.00  0.00    +0.000 A 
ATOM     22  C   UNL     1       9.342  10.842  18.617  0.00  0.00    +0.000 A 
ATOM     23  C   UNL     1      10.635  11.165  19.058  0.00  0.00    +0.000 A 
ATOM     24  C   UNL     1      11.215  12.400  18.744  0.00  0.00    +0.000 A 
BRANCH  19  25
ATOM     25  O   UNL     1      10.945  14.581  17.651  0.00  0.00    +0.000 OA
BRANCH  25  27
ATOM     26  C   UNL     1      10.205  16.174  19.259  0.00  0.00    +0.000 C 
ATOM     27  C   UNL     1      10.022  15.652  17.844  0.00  0.00    +0.000 C 
ENDBRANCH  25  27
ENDBRANCH  19  25
ENDBRANCH  18  22
ENDBRANCH   1  18
TORSDOF 7
ENDMDL
MODEL 8
REMARK VINA RESULT:      -7.5      6.387      8.721
REMARK  Name = 
REMARK  9 active torsions:
REMARK  status: ('A' for Active; 'I' for Inactive)
REMARK    1  A    between atoms: C_1  and  C_2
REMARK    2  A    between atoms: C_2  and  O_3
REMARK    3  A    between atoms: O_3  and  C_4
REMARK    4  A    between atoms: C_7  and  C_8
REMARK    5  A    between atoms: C_8  and  N_9
REMARK    6  A    between atoms: N_12  and  S_13
REMARK    7  A    between atoms: S_13  and  C_16
REMARK    8  A    between atoms: C_19  and  O_20
REMARK    9  A    between atoms: O_20  and  C_21
REMARK                            x       y       z     vdW  Elec       q    Type
REMARK                         _______ _______ _______ _____ _____    ______ ____
ROOT
ATOM      1  N   UNL     1       2.214   7.140  20.320  0.00  0.00    +0.000 N 
ATOM      2  C   UNL     1       2.396   6.035  19.543  0.00  0.00    +0.000 C 
ATOM      3  O   UNL     1       2.143   5.999  18.352  0.00  0.00    +0.000 OA
ATOM      4  N   UNL     1       2.944   4.964  20.230  0.00  0.00    +0.000 N 
ATOM      5  H   UNL     1       2.356   7.087  21.316  0.00  0.00    +0.000 HD
ATOM      6  H   UNL     1       3.263   5.041  21.187  0.00  0.00    +0.000 HD
ENDROOT
BRANCH   4   7
ATOM      7  S   UNL     1       3.364   3.522  19.509  0.00  0.00    +0.000 S 
ATOM      8  O   UNL     1       4.004   2.738  20.547  0.00  0.00    +0.000 OA
ATOM      9  O   UNL     1       2.212   3.009  18.800  0.00  0.00    +0.000 OA
BRANCH   7  10
ATOM     10  C   UNL     1       4.628   3.964  18.340  0.00  0.00    +0.000 A 
ATOM     11  C   UNL     1       4.451   3.671  16.987  0.00  0.00    +0.000 A 
ATOM     12  C   UNL     1       5.471   3.980  16.084  0.00  0.00    +0.000 A 
ATOM     13  C   UNL     1       6.645   4.605  16.519  0.00  0.00    +0.000 A 
ATOM     14  C   UNL     1       6.809   4.901  17.874  0.00  0.00    +0.000 A 
ATOM     15  C   UNL     1       5.798   4.586  18.787  0.00  0.00    +0.000 A 
BRANCH  13  16
ATOM     16  O   UNL     1       7.576   4.837  15.544  0.00  0.00    +0.000 OA
ATOM     17  C   UNL     1       7.075   4.873  14.212  0.00  0.00    +0.000 C 
ENDBRANCH  13  16
ENDBRANCH   7  10
ENDBRANCH   4   7
BRANCH   1  18
ATOM     18  C   UNL     1       1.728   8.375  19.750  0.00  0.00    +0.000 C 
BRANCH  18  22
ATOM     19  C   UNL     1      -0.495  10.784  22.569  0.00  0.00    +0.000 A 
ATOM     20  C   UNL     1       0.076  11.366  21.437  0.00  0.00    +0.000 A 
ATOM     21  C   UNL     1       0.805  10.595  20.527  0.00  0.00    +0.000 A 
ATOM     22  C   UNL     1       0.979   9.223  20.744  0.00  0.00    +0.000 A 
ATOM     23  C   UNL     1       0.438   8.653  21.907  0.00  0.00    +0.000 A 
ATOM     24  C   UNL     1      -0.290   9.429  22.817  0.00  0.00    +0.000 A 
BRANCH  19  25
ATOM     25  O   UNL     1      -1.215  11.637  23.359  0.00  0.00    +0.000 OA
BRANCH  25  27
ATOM     26  C   UNL     1      -1.296  14.004  23.609  0.00  0.00    +0.000 C 
ATOM     27  C   UNL     1      -1.692  12.828  22.733  0.00  0.00    +0.000 C 
ENDBRANCH  25  27
ENDBRANCH  19  25
ENDBRANCH  18  22
ENDBRANCH   1  18
TORSDOF 7
ENDMDL
MODEL 9
REMARK VINA RESULT:      -7.5      6.461      8.825
REMARK  Name = 
REMARK  9 active torsions:
REMARK  status: ('A' for Active; 'I' for Inactive)
REMARK    1  A    between atoms: C_1  and  C_2
REMARK    2  A    between atoms: C_2  and  O_3
REMARK    3  A    between atoms: O_3  and  C_4
REMARK    4  A    between atoms: C_7  and  C_8
REMARK    5  A    between atoms: C_8  and  N_9
REMARK    6  A    between atoms: N_12  and  S_13
REMARK    7  A    between atoms: S_13  and  C_16
REMARK    8  A    between atoms: C_19  and  O_20
REMARK    9  A    between atoms: O_20  and  C_21
REMARK                            x       y       z     vdW  Elec       q    Type
REMARK                         _______ _______ _______ _____ _____    ______ ____
ROOT
ATOM      1  N   UNL     1       2.170   6.952  20.436  0.00  0.00    +0.000 N 
ATOM      2  C   UNL     1       2.381   5.872  19.632  0.00  0.00    +0.000 C 
ATOM      3  O   UNL     1       2.253   5.897  18.421  0.00  0.00    +0.000 OA
ATOM      4  N   UNL     1       2.802   4.747  20.322  0.00  0.00    +0.000 N 
ATOM      5  H   UNL     1       2.204   6.851  21.438  0.00  0.00    +0.000 HD
ATOM      6  H   UNL     1       3.022   4.769  21.310  0.00  0.00    +0.000 HD
ENDROOT
BRANCH   4   7
ATOM      7  S   UNL     1       3.227   3.316  19.583  0.00  0.00    +0.000 S 
ATOM      8  O   UNL     1       3.870   2.521  20.611  0.00  0.00    +0.000 OA
ATOM      9  O   UNL     1       2.077   2.807  18.869  0.00  0.00    +0.000 OA
BRANCH   7  10
ATOM     10  C   UNL     1       4.489   3.777  18.420  0.00  0.00    +0.000 A 
ATOM     11  C   UNL     1       5.633   4.440  18.866  0.00  0.00    +0.000 A 
ATOM     12  C   UNL     1       6.596   4.839  17.937  0.00  0.00    +0.000 A 
ATOM     13  C   UNL     1       6.438   4.552  16.577  0.00  0.00    +0.000 A 
ATOM     14  C   UNL     1       5.293   3.881  16.140  0.00  0.00    +0.000 A 
ATOM     15  C   UNL     1       4.319   3.487  17.062  0.00  0.00    +0.000 A 
BRANCH  13  16
ATOM     16  O   UNL     1       7.439   5.012  15.765  0.00  0.00    +0.000 OA
ATOM     17  C   UNL     1       7.189   4.917  14.366  0.00  0.00    +0.000 C 
ENDBRANCH  13  16
ENDBRANCH   7  10
ENDBRANCH   4   7
BRANCH   1  18
ATOM     18  C   UNL     1       1.806   8.233  19.876  0.00  0.00    +0.000 C 
BRANCH  18  22
ATOM     19  C   UNL     1      -0.666  10.552  22.560  0.00  0.00    +0.000 A 
ATOM     20  C   UNL     1      -0.656  10.827  21.192  0.00  0.00    +0.000 A 
ATOM     21  C   UNL     1       0.150  10.088  20.321  0.00  0.00    +0.000 A 
ATOM     22  C   UNL     1       0.965   9.062  20.811  0.00  0.00    +0.000 A 
ATOM     23  C   UNL     1       0.981   8.819  22.193  0.00  0.00    +0.000 A 
ATOM     24  C   UNL     1       0.174   9.562  23.064  0.00  0.00    +0.000 A 
BRANCH  19  25
ATOM     25  O   UNL     1      -1.524  11.319  23.299  0.00  0.00    +0.000 OA
BRANCH  25  27
ATOM     26  C   UNL     1      -1.480  13.697  23.425  0.00  0.00    +0.000 C 
ATOM     27  C   UNL     1      -2.024  12.497  22.668  0.00  0.00    +0.000 C 
ENDBRANCH  25  27
ENDBRANCH  19  25
ENDBRANCH  18  22
ENDBRANCH   1  18
TORSDOF 7
ENDMDL
