MODEL 1
REMARK VINA RESULT:      -7.4      0.000      0.000
REMARK  Name = 
REMARK  8 active torsions:
REMARK  status: ('A' for Active; 'I' for Inactive)
REMARK    1  A    between atoms: C_1  and  O_2
REMARK    2  A    between atoms: O_2  and  C_3
REMARK    3  A    between atoms: C_6  and  C_7
REMARK    4  A    between atoms: C_7  and  C_8
REMARK    5  A    between atoms: C_10  and  O_11
REMARK    6  A    between atoms: C_12  and  O_13
REMARK    7  A    between atoms: C_14  and  C_15
REMARK    8  A    between atoms: C_15  and  O_17
REMARK                            x       y       z     vdW  Elec       q    Type
REMARK                         _______ _______ _______ _____ _____    ______ ____
ROOT
ATOM      1  C   UNK A   0       4.306   5.036  18.373  0.00  0.00    +0.000 A 
ATOM      2  N   UNK A   1       4.463   4.365  17.215  0.00  0.00    +0.000 NA
ATOM      3  C   UNK A   1       5.729   4.131  16.855  0.00  0.00    +0.000 A 
ATOM      4  C   UNK A   1       6.855   4.508  17.545  0.00  0.00    +0.000 A 
ATOM      5  C   UNK A   1       6.587   5.209  18.695  0.00  0.00    +0.000 A 
ATOM      6  N   UNK A   1       5.321   5.492  19.136  0.00  0.00    +0.000 NA
ENDROOT
BRANCH   3   7
ATOM      7  O   UNK A   1       5.861   3.426  15.696  0.00  0.00    +0.000 OA
ATOM      8  H   UNK A   1       6.824   3.273  15.681  0.00  0.00    +0.000 HD
ENDBRANCH   3   7
BRANCH   4   9
ATOM      9  O   UNK A   1       8.092   4.180  17.094  0.00  0.00    +0.000 OA
ATOM     10  H   UNK A   1       8.398   3.417  17.621  0.00  0.00    +0.000 HD
ENDBRANCH   4   9
BRANCH   5  11
ATOM     11  C   UNK A   1       7.670   5.722  19.595  0.00  0.00    +0.000 C 
ATOM     12  O   UNK A   1       7.972   5.307  20.699  0.00  0.00    +0.000 OA
BRANCH  11  13
ATOM     13  O   UNK A   1       8.314   6.758  18.993  0.00  0.00    +0.000 OA
ATOM     14  H   UNK A   1       9.068   7.042  19.559  0.00  0.00    +0.000 HD
ENDBRANCH  11  13
ENDBRANCH   5  11
BRANCH   1  15
ATOM     15  C   UNK A   0       2.901   5.162  18.922  0.00  0.00    +0.000 C 
BRANCH  15  19
ATOM     16  C   UNK A   0       1.433   9.229  19.097  0.00  0.00    +0.000 A 
ATOM     17  C   UNK A   0       1.950   8.707  17.907  0.00  0.00    +0.000 A 
ATOM     18  C   UNK A   0       2.451   7.404  17.860  0.00  0.00    +0.000 A 
ATOM     19  C   UNK A   0       2.472   6.609  19.012  0.00  0.00    +0.000 A 
ATOM     20  C   UNK A   0       2.002   7.148  20.218  0.00  0.00    +0.000 A 
ATOM     21  C   UNK A   0       1.487   8.450  20.259  0.00  0.00    +0.000 A 
ATOM     22 BR   UNK A   0       0.817   9.088  21.919  0.00  0.00    +0.000 Br
BRANCH  16  24
ATOM     23  C   UNK A   0       1.702  11.530  18.649  0.00  0.00    +0.000 C 
ATOM     24  O   UNK A   0       0.891  10.485  19.182  0.00  0.00    +0.000 OA
ENDBRANCH  16  24
ENDBRANCH  15  19
ENDBRANCH   1  15
TORSDOF 7
ENDMDL
MODEL 2
REMARK VINA RESULT:      -7.0      2.575      3.973
REMARK  Name = 
REMARK  8 active torsions:
REMARK  status: ('A' for Active; 'I' for Inactive)
REMARK    1  A    between atoms: C_1  and  O_2
REMARK    2  A    between atoms: O_2  and  C_3
REMARK    3  A    between atoms: C_6  and  C_7
REMARK    4  A    between atoms: C_7  and  C_8
REMARK    5  A    between atoms: C_10  and  O_11
REMARK    6  A    between atoms: C_12  and  O_13
REMARK    7  A    between atoms: C_14  and  C_15
REMARK    8  A    between atoms: C_15  and  O_17
REMARK                            x       y       z     vdW  Elec       q    Type
REMARK                         _______ _______ _______ _____ _____    ______ ____
ROOT
ATOM      1  C   UNK A   0       3.372   5.929  18.429  0.00  0.00    +0.000 A 
ATOM      2  N   UNK A   1       4.665   5.866  18.806  0.00  0.00    +0.000 NA
ATOM      3  C   UNK A   1       5.109   4.649  19.135  0.00  0.00    +0.000 A 
ATOM      4  C   UNK A   1       4.379   3.486  19.123  0.00  0.00    +0.000 A 
ATOM      5  C   UNK A   1       3.069   3.661  18.751  0.00  0.00    +0.000 A 
ATOM      6  N   UNK A   1       2.533   4.873  18.399  0.00  0.00    +0.000 NA
ENDROOT
BRANCH   3   7
ATOM      7  O   UNK A   1       6.425   4.609  19.486  0.00  0.00    +0.000 OA
ATOM      8  H   UNK A   1       6.734   3.849  18.958  0.00  0.00    +0.000 HD
ENDBRANCH   3   7
BRANCH   4   9
ATOM      9  O   UNK A   1       4.954   2.300  19.446  0.00  0.00    +0.000 OA
ATOM     10  H   UNK A   1       4.229   1.663  19.606  0.00  0.00    +0.000 HD
ENDBRANCH   4   9
BRANCH   5  11
ATOM     11  C   UNK A   1       2.096   2.524  18.678  0.00  0.00    +0.000 C 
ATOM     12  O   UNK A   1       0.939   2.517  19.058  0.00  0.00    +0.000 OA
BRANCH  11  13
ATOM     13  O   UNK A   1       2.691   1.446  18.099  0.00  0.00    +0.000 OA
ATOM     14  H   UNK A   1       3.479   1.747  17.591  0.00  0.00    +0.000 HD
ENDBRANCH  11  13
ENDBRANCH   5  11
BRANCH   1  15
ATOM     15  C   UNK A   0       2.871   7.242  17.867  0.00  0.00    +0.000 C 
BRANCH  15  19
ATOM     16  C   UNK A   0       0.764   9.527  20.877  0.00  0.00    +0.000 A 
ATOM     17  C   UNK A   0       1.309   8.276  21.182  0.00  0.00    +0.000 A 
ATOM     18  C   UNK A   0       1.963   7.527  20.201  0.00  0.00    +0.000 A 
ATOM     19  C   UNK A   0       2.056   8.003  18.888  0.00  0.00    +0.000 A 
ATOM     20  C   UNK A   0       1.465   9.233  18.567  0.00  0.00    +0.000 A 
ATOM     21  C   UNK A   0       0.823   9.989  19.556  0.00  0.00    +0.000 A 
ATOM     22 BR   UNK A   0       0.097  11.672  19.055  0.00  0.00    +0.000 Br
BRANCH  16  24
ATOM     23  C   UNK A   0      -0.354   9.626  22.953  0.00  0.00    +0.000 C 
ATOM     24  O   UNK A   0       0.152  10.319  21.814  0.00  0.00    +0.000 OA
ENDBRANCH  16  24
ENDBRANCH  15  19
ENDBRANCH   1  15
TORSDOF 7
ENDMDL
MODEL 3
REMARK VINA RESULT:      -7.0      0.957      2.553
REMARK  Name = 
REMARK  8 active torsions:
REMARK  status: ('A' for Active; 'I' for Inactive)
REMARK    1  A    between atoms: C_1  and  O_2
REMARK    2  A    between atoms: O_2  and  C_3
REMARK    3  A    between atoms: C_6  and  C_7
REMARK    4  A    between atoms: C_7  and  C_8
REMARK    5  A    between atoms: C_10  and  O_11
REMARK    6  A    between atoms: C_12  and  O_13
REMARK    7  A    between atoms: C_14  and  C_15
REMARK    8  A    between atoms: C_15  and  O_17
REMARK                            x       y       z     vdW  Elec       q    Type
REMARK                         _______ _______ _______ _____ _____    ______ ____
ROOT
ATOM      1  C   UNK A   0       4.124   5.010  18.130  0.00  0.00    +0.000 A 
ATOM      2  N   UNK A   1       4.918   5.169  19.207  0.00  0.00    +0.000 NA
ATOM      3  C   UNK A   1       6.232   5.106  18.967  0.00  0.00    +0.000 A 
ATOM      4  C   UNK A   1       6.827   4.896  17.747  0.00  0.00    +0.000 A 
ATOM      5  C   UNK A   1       5.933   4.719  16.721  0.00  0.00    +0.000 A 
ATOM      6  N   UNK A   1       4.572   4.768  16.880  0.00  0.00    +0.000 NA
ENDROOT
BRANCH   3   7
ATOM      7  O   UNK A   1       7.013   5.297  20.068  0.00  0.00    +0.000 OA
ATOM      8  H   UNK A   1       6.368   5.688  20.686  0.00  0.00    +0.000 HD
ENDBRANCH   3   7
BRANCH   4   9
ATOM      9  O   UNK A   1       8.178   4.887  17.624  0.00  0.00    +0.000 OA
ATOM     10  H   UNK A   1       8.380   4.814  16.670  0.00  0.00    +0.000 HD
ENDBRANCH   4   9
BRANCH   5  11
ATOM     11  C   UNK A   1       6.368   4.470  15.309  0.00  0.00    +0.000 C 
ATOM     12  O   UNK A   1       5.927   3.639  14.536  0.00  0.00    +0.000 OA
BRANCH  11  13
ATOM     13  O   UNK A   1       7.365   5.334  14.976  0.00  0.00    +0.000 OA
ATOM     14  H   UNK A   1       7.213   5.665  14.062  0.00  0.00    +0.000 HD
ENDBRANCH  11  13
ENDBRANCH   5  11
BRANCH   1  15
ATOM     15  C   UNK A   0       2.643   5.260  18.311  0.00  0.00    +0.000 C 
BRANCH  15  19
ATOM     16  C   UNK A   0       1.594   9.383  19.098  0.00  0.00    +0.000 A 
ATOM     17  C   UNK A   0       2.042   8.989  17.834  0.00  0.00    +0.000 A 
ATOM     18  C   UNK A   0       2.408   7.664  17.590  0.00  0.00    +0.000 A 
ATOM     19  C   UNK A   0       2.362   6.714  18.616  0.00  0.00    +0.000 A 
ATOM     20  C   UNK A   0       1.964   7.117  19.898  0.00  0.00    +0.000 A 
ATOM     21  C   UNK A   0       1.583   8.444  20.137  0.00  0.00    +0.000 A 
ATOM     22 BR   UNK A   0       1.000   8.899  21.887  0.00  0.00    +0.000 Br
BRANCH  16  24
ATOM     23  C   UNK A   0      -0.134  10.982  18.929  0.00  0.00    +0.000 C 
ATOM     24  O   UNK A   0       1.182  10.662  19.376  0.00  0.00    +0.000 OA
ENDBRANCH  16  24
ENDBRANCH  15  19
ENDBRANCH   1  15
TORSDOF 7
ENDMDL
MODEL 4
REMARK VINA RESULT:      -6.9      1.642      3.197
REMARK  Name = 
REMARK  8 active torsions:
REMARK  status: ('A' for Active; 'I' for Inactive)
REMARK    1  A    between atoms: C_1  and  O_2
REMARK    2  A    between atoms: O_2  and  C_3
REMARK    3  A    between atoms: C_6  and  C_7
REMARK    4  A    between atoms: C_7  and  C_8
REMARK    5  A    between atoms: C_10  and  O_11
REMARK    6  A    between atoms: C_12  and  O_13
REMARK    7  A    between atoms: C_14  and  C_15
REMARK    8  A    between atoms: C_15  and  O_17
REMARK                            x       y       z     vdW  Elec       q    Type
REMARK                         _______ _______ _______ _____ _____    ______ ____
ROOT
ATOM      1  C   UNK A   0       4.255   4.493  17.715  0.00  0.00    +0.000 A 
ATOM      2  N   UNK A   1       4.937   4.660  18.866  0.00  0.00    +0.000 NA
ATOM      3  C   UNK A   1       6.262   4.781  18.736  0.00  0.00    +0.000 A 
ATOM      4  C   UNK A   1       6.971   4.750  17.560  0.00  0.00    +0.000 A 
ATOM      5  C   UNK A   1       6.188   4.550  16.450  0.00  0.00    +0.000 A 
ATOM      6  N   UNK A   1       4.824   4.415  16.494  0.00  0.00    +0.000 NA
ENDROOT
BRANCH   3   7
ATOM      7  O   UNK A   1       6.925   4.976  19.911  0.00  0.00    +0.000 OA
ATOM      8  H   UNK A   1       7.812   4.643  19.679  0.00  0.00    +0.000 HD
ENDBRANCH   3   7
BRANCH   4   9
ATOM      9  O   UNK A   1       8.317   4.921  17.553  0.00  0.00    +0.000 OA
ATOM     10  H   UNK A   1       8.638   4.642  16.672  0.00  0.00    +0.000 HD
ENDBRANCH   4   9
BRANCH   5  11
ATOM     11  C   UNK A   1       6.758   4.475  15.066  0.00  0.00    +0.000 C 
ATOM     12  O   UNK A   1       7.567   5.230  14.559  0.00  0.00    +0.000 OA
BRANCH  11  13
ATOM     13  O   UNK A   1       6.240   3.399  14.413  0.00  0.00    +0.000 OA
ATOM     14  H   UNK A   1       6.495   3.446  13.464  0.00  0.00    +0.000 HD
ENDBRANCH  11  13
ENDBRANCH   5  11
BRANCH   1  15
ATOM     15  C   UNK A   0       2.744   4.541  17.786  0.00  0.00    +0.000 C 
BRANCH  15  19
ATOM     16  C   UNK A   0       1.626   7.907  20.264  0.00  0.00    +0.000 A 
ATOM     17  C   UNK A   0       1.603   6.606  20.774  0.00  0.00    +0.000 A 
ATOM     18  C   UNK A   0       1.936   5.518  19.965  0.00  0.00    +0.000 A 
ATOM     19  C   UNK A   0       2.267   5.709  18.619  0.00  0.00    +0.000 A 
ATOM     20  C   UNK A   0       2.240   7.007  18.090  0.00  0.00    +0.000 A 
ATOM     21  C   UNK A   0       1.920   8.098  18.908  0.00  0.00    +0.000 A 
ATOM     22 BR   UNK A   0       1.961   9.832  18.132  0.00  0.00    +0.000 Br
BRANCH  16  24
ATOM     23  C   UNK A   0       0.035   9.049  21.581  0.00  0.00    +0.000 C 
ATOM     24  O   UNK A   0       1.350   9.010  21.030  0.00  0.00    +0.000 OA
ENDBRANCH  16  24
ENDBRANCH  15  19
ENDBRANCH   1  15
TORSDOF 7
ENDMDL
MODEL 5
REMARK VINA RESULT:      -6.9      2.044      2.733
REMARK  Name = 
REMARK  8 active torsions:
REMARK  status: ('A' for Active; 'I' for Inactive)
REMARK    1  A    between atoms: C_1  and  O_2
REMARK    2  A    between atoms: O_2  and  C_3
REMARK    3  A    between atoms: C_6  and  C_7
REMARK    4  A    between atoms: C_7  and  C_8
REMARK    5  A    between atoms: C_10  and  O_11
REMARK    6  A    between atoms: C_12  and  O_13
REMARK    7  A    between atoms: C_14  and  C_15
REMARK    8  A    between atoms: C_15  and  O_17
REMARK                            x       y       z     vdW  Elec       q    Type
REMARK                         _______ _______ _______ _____ _____    ______ ____
ROOT
ATOM      1  C   UNK A   0       3.694   6.235  17.840  0.00  0.00    +0.000 A 
ATOM      2  N   UNK A   1       2.833   5.204  17.950  0.00  0.00    +0.000 NA
ATOM      3  C   UNK A   1       3.344   4.082  18.466  0.00  0.00    +0.000 A 
ATOM      4  C   UNK A   1       4.640   3.893  18.883  0.00  0.00    +0.000 A 
ATOM      5  C   UNK A   1       5.441   4.993  18.703  0.00  0.00    +0.000 A 
ATOM      6  N   UNK A   1       4.999   6.181  18.181  0.00  0.00    +0.000 NA
ENDROOT
BRANCH   3   7
ATOM      7  O   UNK A   1       2.447   3.063  18.593  0.00  0.00    +0.000 OA
ATOM      8  H   UNK A   1       2.736   2.472  17.873  0.00  0.00    +0.000 HD
ENDBRANCH   3   7
BRANCH   4   9
ATOM      9  O   UNK A   1       5.032   2.713  19.425  0.00  0.00    +0.000 OA
ATOM     10  H   UNK A   1       5.304   2.896  20.346  0.00  0.00    +0.000 HD
ENDBRANCH   4   9
BRANCH   5  11
ATOM     11  C   UNK A   1       6.891   5.002  19.082  0.00  0.00    +0.000 C 
ATOM     12  O   UNK A   1       7.402   5.561  20.036  0.00  0.00    +0.000 OA
BRANCH  11  13
ATOM     13  O   UNK A   1       7.604   4.265  18.188  0.00  0.00    +0.000 OA
ATOM     14  H   UNK A   1       8.563   4.352  18.391  0.00  0.00    +0.000 HD
ENDBRANCH  11  13
ENDBRANCH   5  11
BRANCH   1  15
ATOM     15  C   UNK A   0       3.126   7.580  17.441  0.00  0.00    +0.000 C 
BRANCH  15  19
ATOM     16  C   UNK A   0       0.649   9.263  20.564  0.00  0.00    +0.000 A 
ATOM     17  C   UNK A   0       1.412   8.115  20.798  0.00  0.00    +0.000 A 
ATOM     18  C   UNK A   0       2.187   7.556  19.780  0.00  0.00    +0.000 A 
ATOM     19  C   UNK A   0       2.190   8.118  18.499  0.00  0.00    +0.000 A 
ATOM     20  C   UNK A   0       1.385   9.238  18.246  0.00  0.00    +0.000 A 
ATOM     21  C   UNK A   0       0.620   9.806  19.273  0.00  0.00    +0.000 A 
ATOM     22 BR   UNK A   0      -0.400  11.357  18.867  0.00  0.00    +0.000 Br
BRANCH  16  24
ATOM     23  C   UNK A   0       0.161   9.416  22.868  0.00  0.00    +0.000 C 
ATOM     24  O   UNK A   0      -0.094   9.874  21.541  0.00  0.00    +0.000 OA
ENDBRANCH  16  24
ENDBRANCH  15  19
ENDBRANCH   1  15
TORSDOF 7
ENDMDL
MODEL 6
REMARK VINA RESULT:      -6.9      1.461      2.055
REMARK  Name = 
REMARK  8 active torsions:
REMARK  status: ('A' for Active; 'I' for Inactive)
REMARK    1  A    between atoms: C_1  and  O_2
REMARK    2  A    between atoms: O_2  and  C_3
REMARK    3  A    between atoms: C_6  and  C_7
REMARK    4  A    between atoms: C_7  and  C_8
REMARK    5  A    between atoms: C_10  and  O_11
REMARK    6  A    between atoms: C_12  and  O_13
REMARK    7  A    between atoms: C_14  and  C_15
REMARK    8  A    between atoms: C_15  and  O_17
REMARK                            x       y       z     vdW  Elec       q    Type
REMARK                         _______ _______ _______ _____ _____    ______ ____
ROOT
ATOM      1  C   UNK A   0       4.191   4.551  17.951  0.00  0.00    +0.000 A 
ATOM      2  N   UNK A   1       4.394   4.014  16.732  0.00  0.00    +0.000 NA
ATOM      3  C   UNK A   1       5.652   4.066  16.283  0.00  0.00    +0.000 A 
ATOM      4  C   UNK A   1       6.729   4.607  16.941  0.00  0.00    +0.000 A 
ATOM      5  C   UNK A   1       6.413   5.151  18.161  0.00  0.00    +0.000 A 
ATOM      6  N   UNK A   1       5.150   5.142  18.695  0.00  0.00    +0.000 NA
ENDROOT
BRANCH   3   7
ATOM      7  O   UNK A   1       5.835   3.492  15.060  0.00  0.00    +0.000 OA
ATOM      8  H   UNK A   1       5.079   3.860  14.568  0.00  0.00    +0.000 HD
ENDBRANCH   3   7
BRANCH   4   9
ATOM      9  O   UNK A   1       7.970   4.568  16.395  0.00  0.00    +0.000 OA
ATOM     10  H   UNK A   1       8.406   5.416  16.610  0.00  0.00    +0.000 HD
ENDBRANCH   4   9
BRANCH   5  11
ATOM     11  C   UNK A   1       7.437   5.801  19.041  0.00  0.00    +0.000 C 
ATOM     12  O   UNK A   1       8.195   6.707  18.748  0.00  0.00    +0.000 OA
BRANCH  11  13
ATOM     13  O   UNK A   1       7.410   5.229  20.276  0.00  0.00    +0.000 OA
ATOM     14  H   UNK A   1       8.328   4.990  20.540  0.00  0.00    +0.000 HD
ENDBRANCH  11  13
ENDBRANCH   5  11
BRANCH   1  15
ATOM     15  C   UNK A   0       2.832   4.351  18.585  0.00  0.00    +0.000 C 
BRANCH  15  19
ATOM     16  C   UNK A   0       1.541   8.093  20.333  0.00  0.00    +0.000 A 
ATOM     17  C   UNK A   0       1.507   6.909  21.075  0.00  0.00    +0.000 A 
ATOM     18  C   UNK A   0       1.896   5.698  20.500  0.00  0.00    +0.000 A 
ATOM     19  C   UNK A   0       2.297   5.643  19.161  0.00  0.00    +0.000 A 
ATOM     20  C   UNK A   0       2.282   6.820  18.399  0.00  0.00    +0.000 A 
ATOM     21  C   UNK A   0       1.906   8.037  18.982  0.00  0.00    +0.000 A 
ATOM     22 BR   UNK A   0       1.967   9.597  17.899  0.00  0.00    +0.000 Br
BRANCH  16  24
ATOM     23  C   UNK A   0       0.844   9.292  22.243  0.00  0.00    +0.000 C 
ATOM     24  O   UNK A   0       1.211   9.314  20.865  0.00  0.00    +0.000 OA
ENDBRANCH  16  24
ENDBRANCH  15  19
ENDBRANCH   1  15
TORSDOF 7
ENDMDL
MODEL 7
REMARK VINA RESULT:      -6.9      1.885      2.368
REMARK  Name = 
REMARK  8 active torsions:
REMARK  status: ('A' for Active; 'I' for Inactive)
REMARK    1  A    between atoms: C_1  and  O_2
REMARK    2  A    between atoms: O_2  and  C_3
REMARK    3  A    between atoms: C_6  and  C_7
REMARK    4  A    between atoms: C_7  and  C_8
REMARK    5  A    between atoms: C_10  and  O_11
REMARK    6  A    between atoms: C_12  and  O_13
REMARK    7  A    between atoms: C_14  and  C_15
REMARK    8  A    between atoms: C_15  and  O_17
REMARK                            x       y       z     vdW  Elec       q    Type
REMARK                         _______ _______ _______ _____ _____    ______ ____
ROOT
ATOM      1  C   UNK A   0       4.424   4.747  17.217  0.00  0.00    +0.000 A 
ATOM      2  N   UNK A   1       4.513   4.213  15.983  0.00  0.00    +0.000 NA
ATOM      3  C   UNK A   1       5.632   4.502  15.312  0.00  0.00    +0.000 A 
ATOM      4  C   UNK A   1       6.672   5.280  15.760  0.00  0.00    +0.000 A 
ATOM      5  C   UNK A   1       6.471   5.798  17.015  0.00  0.00    +0.000 A 
ATOM      6  N   UNK A   1       5.354   5.552  17.771  0.00  0.00    +0.000 NA
ENDROOT
BRANCH   3   7
ATOM      7  O   UNK A   1       5.711   3.928  14.078  0.00  0.00    +0.000 OA
ATOM      8  H   UNK A   1       6.628   3.596  14.087  0.00  0.00    +0.000 HD
ENDBRANCH   3   7
BRANCH   4   9
ATOM      9  O   UNK A   1       7.776   5.474  14.996  0.00  0.00    +0.000 OA
ATOM     10  H   UNK A   1       7.806   4.746  14.343  0.00  0.00    +0.000 HD
ENDBRANCH   4   9
BRANCH   5  11
ATOM     11  C   UNK A   1       7.477   6.680  17.691  0.00  0.00    +0.000 C 
ATOM     12  O   UNK A   1       8.030   6.487  18.758  0.00  0.00    +0.000 OA
BRANCH  11  13
ATOM     13  O   UNK A   1       7.715   7.777  16.923  0.00  0.00    +0.000 OA
ATOM     14  H   UNK A   1       7.794   8.567  17.505  0.00  0.00    +0.000 HD
ENDBRANCH  11  13
ENDBRANCH   5  11
BRANCH   1  15
ATOM     15  C   UNK A   0       3.271   4.299  18.090  0.00  0.00    +0.000 C 
BRANCH  15  19
ATOM     16  C   UNK A   0       1.682   7.706  20.233  0.00  0.00    +0.000 A 
ATOM     17  C   UNK A   0       1.773   6.454  20.849  0.00  0.00    +0.000 A 
ATOM     18  C   UNK A   0       2.259   5.350  20.146  0.00  0.00    +0.000 A 
ATOM     19  C   UNK A   0       2.633   5.470  18.803  0.00  0.00    +0.000 A 
ATOM     20  C   UNK A   0       2.493   6.712  18.168  0.00  0.00    +0.000 A 
ATOM     21  C   UNK A   0       2.020   7.822  18.879  0.00  0.00    +0.000 A 
ATOM     22 BR   UNK A   0       1.914   9.483  17.963  0.00  0.00    +0.000 Br
BRANCH  16  24
ATOM     23  C   UNK A   0      -0.030   8.718  21.504  0.00  0.00    +0.000 C 
ATOM     24  O   UNK A   0       1.253   8.829  20.893  0.00  0.00    +0.000 OA
ENDBRANCH  16  24
ENDBRANCH  15  19
ENDBRANCH   1  15
TORSDOF 7
ENDMDL
MODEL 8
REMARK VINA RESULT:      -6.8      1.039      1.163
REMARK  Name = 
REMARK  8 active torsions:
REMARK  status: ('A' for Active; 'I' for Inactive)
REMARK    1  A    between atoms: C_1  and  O_2
REMARK    2  A    between atoms: O_2  and  C_3
REMARK    3  A    between atoms: C_6  and  C_7
REMARK    4  A    between atoms: C_7  and  C_8
REMARK    5  A    between atoms: C_10  and  O_11
REMARK    6  A    between atoms: C_12  and  O_13
REMARK    7  A    between atoms: C_14  and  C_15
REMARK    8  A    between atoms: C_15  and  O_17
REMARK                            x       y       z     vdW  Elec       q    Type
REMARK                         _______ _______ _______ _____ _____    ______ ____
ROOT
ATOM      1  C   UNK A   0       4.181   5.150  17.702  0.00  0.00    +0.000 A 
ATOM      2  N   UNK A   1       4.357   4.118  16.854  0.00  0.00    +0.000 NA
ATOM      3  C   UNK A   1       5.592   3.986  16.357  0.00  0.00    +0.000 A 
ATOM      4  C   UNK A   1       6.669   4.794  16.629  0.00  0.00    +0.000 A 
ATOM      5  C   UNK A   1       6.379   5.831  17.481  0.00  0.00    +0.000 A 
ATOM      6  N   UNK A   1       5.141   6.038  18.034  0.00  0.00    +0.000 NA
ENDROOT
BRANCH   3   7
ATOM      7  O   UNK A   1       5.750   2.919  15.524  0.00  0.00    +0.000 OA
ATOM      8  H   UNK A   1       5.976   3.369  14.689  0.00  0.00    +0.000 HD
ENDBRANCH   3   7
BRANCH   4   9
ATOM      9  O   UNK A   1       7.886   4.537  16.088  0.00  0.00    +0.000 OA
ATOM     10  H   UNK A   1       8.166   5.344  15.612  0.00  0.00    +0.000 HD
ENDBRANCH   4   9
BRANCH   5  11
ATOM     11  C   UNK A   1       7.407   6.835  17.904  0.00  0.00    +0.000 C 
ATOM     12  O   UNK A   1       8.180   6.752  18.841  0.00  0.00    +0.000 OA
BRANCH  11  13
ATOM     13  O   UNK A   1       7.374   7.906  17.066  0.00  0.00    +0.000 OA
ATOM     14  H   UNK A   1       8.009   7.758  16.329  0.00  0.00    +0.000 HD
ENDBRANCH  11  13
ENDBRANCH   5  11
BRANCH   1  15
ATOM     15  C   UNK A   0       2.861   5.233  18.437  0.00  0.00    +0.000 C 
BRANCH  15  19
ATOM     16  C   UNK A   0       1.449   9.275  19.064  0.00  0.00    +0.000 A 
ATOM     17  C   UNK A   0       1.842   8.845  17.793  0.00  0.00    +0.000 A 
ATOM     18  C   UNK A   0       2.325   7.549  17.598  0.00  0.00    +0.000 A 
ATOM     19  C   UNK A   0       2.454   6.669  18.679  0.00  0.00    +0.000 A 
ATOM     20  C   UNK A   0       2.110   7.114  19.963  0.00  0.00    +0.000 A 
ATOM     21  C   UNK A   0       1.612   8.410  20.153  0.00  0.00    +0.000 A 
ATOM     22 BR   UNK A   0       1.114   8.919  21.915  0.00  0.00    +0.000 Br
BRANCH  16  24
ATOM     23  C   UNK A   0      -0.409  10.712  18.840  0.00  0.00    +0.000 C 
ATOM     24  O   UNK A   0       0.928  10.521  19.298  0.00  0.00    +0.000 OA
ENDBRANCH  16  24
ENDBRANCH  15  19
ENDBRANCH   1  15
TORSDOF 7
ENDMDL
MODEL 9
REMARK VINA RESULT:      -6.7      1.471      2.051
REMARK  Name = 
REMARK  8 active torsions:
REMARK  status: ('A' for Active; 'I' for Inactive)
REMARK    1  A    between atoms: C_1  and  O_2
REMARK    2  A    between atoms: O_2  and  C_3
REMARK    3  A    between atoms: C_6  and  C_7
REMARK    4  A    between atoms: C_7  and  C_8
REMARK    5  A    between atoms: C_10  and  O_11
REMARK    6  A    between atoms: C_12  and  O_13
REMARK    7  A    between atoms: C_14  and  C_15
REMARK    8  A    between atoms: C_15  and  O_17
REMARK                            x       y       z     vdW  Elec       q    Type
REMARK                         _______ _______ _______ _____ _____    ______ ____
ROOT
ATOM      1  C   UNK A   0       2.956   5.396  19.400  0.00  0.00    +0.000 A 
ATOM      2  N   UNK A   1       2.282   4.615  18.532  0.00  0.00    +0.000 NA
ATOM      3  C   UNK A   1       3.041   3.866  17.725  0.00  0.00    +0.000 A 
ATOM      4  C   UNK A   1       4.413   3.825  17.704  0.00  0.00    +0.000 A 
ATOM      5  C   UNK A   1       5.003   4.675  18.607  0.00  0.00    +0.000 A 
ATOM      6  N   UNK A   1       4.301   5.477  19.469  0.00  0.00    +0.000 NA
ENDROOT
BRANCH   3   7
ATOM      7  O   UNK A   1       2.335   3.066  16.876  0.00  0.00    +0.000 OA
ATOM      8  H   UNK A   1       2.942   2.307  16.791  0.00  0.00    +0.000 HD
ENDBRANCH   3   7
BRANCH   4   9
ATOM      9  O   UNK A   1       5.073   2.994  16.858  0.00  0.00    +0.000 OA
ATOM     10  H   UNK A   1       4.415   2.364  16.503  0.00  0.00    +0.000 HD
ENDBRANCH   4   9
BRANCH   5  11
ATOM     11  C   UNK A   1       6.491   4.794  18.745  0.00  0.00    +0.000 C 
ATOM     12  O   UNK A   1       7.338   4.421  17.955  0.00  0.00    +0.000 OA
BRANCH  11  13
ATOM     13  O   UNK A   1       6.795   5.409  19.920  0.00  0.00    +0.000 OA
ATOM     14  H   UNK A   1       5.968   5.757  20.325  0.00  0.00    +0.000 HD
ENDBRANCH  11  13
ENDBRANCH   5  11
BRANCH   1  15
ATOM     15  C   UNK A   0       2.152   6.118  20.460  0.00  0.00    +0.000 C 
BRANCH  15  19
ATOM     16  C   UNK A   0       1.065  10.102  19.168  0.00  0.00    +0.000 A 
ATOM     17  C   UNK A   0       1.773   9.244  18.320  0.00  0.00    +0.000 A 
ATOM     18  C   UNK A   0       2.148   7.970  18.749  0.00  0.00    +0.000 A 
ATOM     19  C   UNK A   0       1.850   7.541  20.048  0.00  0.00    +0.000 A 
ATOM     20  C   UNK A   0       1.187   8.418  20.918  0.00  0.00    +0.000 A 
ATOM     21  C   UNK A   0       0.798   9.690  20.480  0.00  0.00    +0.000 A 
ATOM     22 BR   UNK A   0      -0.147  10.798  21.699  0.00  0.00    +0.000 Br
BRANCH  16  24
ATOM     23  C   UNK A   0       1.664  12.326  18.654  0.00  0.00    +0.000 C 
ATOM     24  O   UNK A   0       0.636  11.345  18.778  0.00  0.00    +0.000 OA
ENDBRANCH  16  24
ENDBRANCH  15  19
ENDBRANCH   1  15
TORSDOF 7
ENDMDL
