MODEL 1
REMARK VINA RESULT:      -7.3      0.000      0.000
REMARK  Name = 
REMARK  8 active torsions:
REMARK  status: ('A' for Active; 'I' for Inactive)
REMARK    1  A    between atoms: N_1  and  C_2
REMARK    2  A    between atoms: C_2  and  C_3
REMARK    3  A    between atoms: C_2  and  C_17
REMARK    4  A    between atoms: C_3  and  C_4
REMARK    5  A    between atoms: C_4  and  C_5
REMARK    6  A    between atoms: C_5  and  C_6
REMARK    7  A    between atoms: C_6  and  N_7
REMARK    8  A    between atoms: N_10  and  C_11
REMARK                            x       y       z     vdW  Elec       q    Type
REMARK                         _______ _______ _______ _____ _____    ______ ____
ROOT
ATOM      1  C   UNL     1       5.943   5.851  16.336  0.00  0.00    +0.000 C 
ENDROOT
BRANCH   1   2
ATOM      2  C   UNL     1       4.721   6.730  16.630  0.00  0.00    +0.000 C 
BRANCH   2   3
ATOM      3  C   UNL     1       4.155   6.444  18.023  0.00  0.00    +0.000 C 
BRANCH   3   4
ATOM      4  C   UNL     1       2.655   6.724  18.237  0.00  0.00    +0.000 C 
BRANCH   4   5
ATOM      5  C   UNL     1       2.102   6.120  19.556  0.00  0.00    +0.000 C 
ATOM      6  O   UNL     1       1.860   6.820  20.542  0.00  0.00    +0.000 OA
ATOM      7  N   UNL     1       1.855   4.763  19.580  0.00  0.00    +0.000 N 
ATOM      8  C   UNL     1       2.050   3.805  18.510  0.00  0.00    +0.000 C 
ATOM      9  C   UNL     1       1.062   2.702  18.846  0.00  0.00    +0.000 C 
ATOM     10  C   UNL     1       1.070   2.672  20.370  0.00  0.00    +0.000 C 
ATOM     11  C   UNL     1       1.351   4.114  20.777  0.00  0.00    +0.000 C 
ENDBRANCH   4   5
BRANCH   4  12
ATOM     12  N   UNL     1       2.341   8.166  18.172  0.00  0.00    +0.000 NA
ATOM     13  H   UNL     1       3.206   8.693  18.063  0.00  0.00    +0.000 HD
ATOM     14  H   UNL     1       1.948   8.455  19.070  0.00  0.00    +0.000 HD
ENDBRANCH   4  12
ENDBRANCH   3   4
ENDBRANCH   2   3
ENDBRANCH   1   2
BRANCH   1  15
ATOM     15  C   UNL     1       7.142   6.378  17.107  0.00  0.00    +0.000 C 
BRANCH  15  16
ATOM     16  N   UNL     1       7.288   7.820  17.051  0.00  0.00    +0.000 N 
ATOM     17  C   UNL     1       8.169   8.368  17.976  0.00  0.00    +0.000 C 
ATOM     18  O   UNL     1       8.700   7.676  18.834  0.00  0.00    +0.000 OA
ATOM     19  N   UNL     1       8.324   9.722  17.809  0.00  0.00    +0.000 N 
ATOM     20  H   UNL     1       7.348   8.240  16.135  0.00  0.00    +0.000 HD
ATOM     21  H   UNL     1       7.556  10.199  17.364  0.00  0.00    +0.000 HD
BRANCH  19  22
ATOM     22  C   UNL     1       9.259  10.507  18.522  0.00  0.00    +0.000 A 
ATOM     23  C   UNL     1      10.307  11.188  17.894  0.00  0.00    +0.000 A 
ATOM     24  C   UNL     1      11.230  11.927  18.633  0.00  0.00    +0.000 A 
ATOM     25  C   UNL     1      11.108  12.005  20.016  0.00  0.00    +0.000 A 
ATOM     26  C   UNL     1      10.053  11.356  20.654  0.00  0.00    +0.000 A 
ATOM     27  C   UNL     1       9.124  10.616  19.912  0.00  0.00    +0.000 A 
ENDBRANCH  19  22
ENDBRANCH  15  16
ENDBRANCH   1  15
TORSDOF 8
ENDMDL
MODEL 2
REMARK VINA RESULT:      -7.3      1.974      2.579
REMARK  Name = 
REMARK  8 active torsions:
REMARK  status: ('A' for Active; 'I' for Inactive)
REMARK    1  A    between atoms: N_1  and  C_2
REMARK    2  A    between atoms: C_2  and  C_3
REMARK    3  A    between atoms: C_2  and  C_17
REMARK    4  A    between atoms: C_3  and  C_4
REMARK    5  A    between atoms: C_4  and  C_5
REMARK    6  A    between atoms: C_5  and  C_6
REMARK    7  A    between atoms: C_6  and  N_7
REMARK    8  A    between atoms: N_10  and  C_11
REMARK                            x       y       z     vdW  Elec       q    Type
REMARK                         _______ _______ _______ _____ _____    ______ ____
ROOT
ATOM      1  C   UNL     1       6.992   6.107  17.017  0.00  0.00    +0.000 C 
ENDROOT
BRANCH   1   2
ATOM      2  C   UNL     1       5.791   5.887  16.086  0.00  0.00    +0.000 C 
BRANCH   2   3
ATOM      3  C   UNL     1       4.513   5.621  16.886  0.00  0.00    +0.000 C 
BRANCH   3   4
ATOM      4  C   UNL     1       4.400   4.253  17.585  0.00  0.00    +0.000 C 
BRANCH   4   5
ATOM      5  C   UNL     1       2.933   3.780  17.770  0.00  0.00    +0.000 C 
ATOM      6  O   UNL     1       2.216   3.489  16.810  0.00  0.00    +0.000 OA
ATOM      7  N   UNL     1       2.463   3.660  19.061  0.00  0.00    +0.000 N 
ATOM      8  C   UNL     1       3.174   3.925  20.296  0.00  0.00    +0.000 C 
ATOM      9  C   UNL     1       2.457   3.049  21.308  0.00  0.00    +0.000 C 
ATOM     10  C   UNL     1       1.007   3.085  20.840  0.00  0.00    +0.000 C 
ATOM     11  C   UNL     1       1.098   3.237  19.325  0.00  0.00    +0.000 C 
ENDBRANCH   4   5
BRANCH   4  12
ATOM     12  N   UNL     1       5.184   3.207  16.896  0.00  0.00    +0.000 NA
ATOM     13  H   UNL     1       5.675   2.644  17.588  0.00  0.00    +0.000 HD
ATOM     14  H   UNL     1       5.910   3.658  16.336  0.00  0.00    +0.000 HD
ENDBRANCH   4  12
ENDBRANCH   3   4
ENDBRANCH   2   3
ENDBRANCH   1   2
BRANCH   1  15
ATOM     15  C   UNL     1       7.174   7.596  17.262  0.00  0.00    +0.000 C 
BRANCH  15  16
ATOM     16  N   UNL     1       8.187   7.909  18.252  0.00  0.00    +0.000 N 
ATOM     17  C   UNL     1       8.484   9.258  18.397  0.00  0.00    +0.000 C 
ATOM     18  O   UNL     1       7.986  10.100  17.663  0.00  0.00    +0.000 OA
ATOM     19  N   UNL     1       9.384   9.487  19.409  0.00  0.00    +0.000 N 
ATOM     20  H   UNL     1       8.143   7.405  19.127  0.00  0.00    +0.000 HD
ATOM     21  H   UNL     1       9.991   8.716  19.638  0.00  0.00    +0.000 HD
BRANCH  19  22
ATOM     22  C   UNL     1       9.758  10.774  19.861  0.00  0.00    +0.000 A 
ATOM     23  C   UNL     1       9.166  11.385  20.971  0.00  0.00    +0.000 A 
ATOM     24  C   UNL     1       9.538  12.669  21.369  0.00  0.00    +0.000 A 
ATOM     25  C   UNL     1      10.521  13.355  20.666  0.00  0.00    +0.000 A 
ATOM     26  C   UNL     1      11.141  12.748  19.575  0.00  0.00    +0.000 A 
ATOM     27  C   UNL     1      10.770  11.458  19.177  0.00  0.00    +0.000 A 
ENDBRANCH  19  22
ENDBRANCH  15  16
ENDBRANCH   1  15
TORSDOF 8
ENDMDL
MODEL 3
REMARK VINA RESULT:      -7.3      1.667      1.897
REMARK  Name = 
REMARK  8 active torsions:
REMARK  status: ('A' for Active; 'I' for Inactive)
REMARK    1  A    between atoms: N_1  and  C_2
REMARK    2  A    between atoms: C_2  and  C_3
REMARK    3  A    between atoms: C_2  and  C_17
REMARK    4  A    between atoms: C_3  and  C_4
REMARK    5  A    between atoms: C_4  and  C_5
REMARK    6  A    between atoms: C_5  and  C_6
REMARK    7  A    between atoms: C_6  and  N_7
REMARK    8  A    between atoms: N_10  and  C_11
REMARK                            x       y       z     vdW  Elec       q    Type
REMARK                         _______ _______ _______ _____ _____    ______ ____
ROOT
ATOM      1  C   UNL     1       6.780   5.869  16.260  0.00  0.00    +0.000 C 
ENDROOT
BRANCH   1   2
ATOM      2  C   UNL     1       6.433   4.419  16.624  0.00  0.00    +0.000 C 
BRANCH   2   3
ATOM      3  C   UNL     1       4.978   4.094  16.276  0.00  0.00    +0.000 C 
BRANCH   3   4
ATOM      4  C   UNL     1       3.911   4.485  17.316  0.00  0.00    +0.000 C 
BRANCH   4   5
ATOM      5  C   UNL     1       4.081   3.750  18.674  0.00  0.00    +0.000 C 
ATOM      6  O   UNL     1       5.191   3.439  19.112  0.00  0.00    +0.000 OA
ATOM      7  N   UNL     1       2.939   3.483  19.399  0.00  0.00    +0.000 N 
ATOM      8  C   UNL     1       1.569   3.805  19.052  0.00  0.00    +0.000 C 
ATOM      9  C   UNL     1       0.876   3.884  20.401  0.00  0.00    +0.000 C 
ATOM     10  C   UNL     1       1.584   2.814  21.224  0.00  0.00    +0.000 C 
ATOM     11  C   UNL     1       3.005   2.786  20.672  0.00  0.00    +0.000 C 
ENDBRANCH   4   5
BRANCH   4  12
ATOM     12  N   UNL     1       3.855   5.945  17.538  0.00  0.00    +0.000 NA
ATOM     13  H   UNL     1       4.448   6.412  16.854  0.00  0.00    +0.000 HD
ATOM     14  H   UNL     1       4.264   6.153  18.451  0.00  0.00    +0.000 HD
ENDBRANCH   4  12
ENDBRANCH   3   4
ENDBRANCH   2   3
ENDBRANCH   1   2
BRANCH   1  15
ATOM     15  C   UNL     1       7.164   6.628  17.521  0.00  0.00    +0.000 C 
BRANCH  15  16
ATOM     16  N   UNL     1       7.387   8.045  17.308  0.00  0.00    +0.000 N 
ATOM     17  C   UNL     1       8.293   8.644  18.174  0.00  0.00    +0.000 C 
ATOM     18  O   UNL     1       8.784   8.023  19.107  0.00  0.00    +0.000 OA
ATOM     19  N   UNL     1       8.521   9.961  17.861  0.00  0.00    +0.000 N 
ATOM     20  H   UNL     1       7.471   8.357  16.351  0.00  0.00    +0.000 HD
ATOM     21  H   UNL     1       7.781  10.426  17.359  0.00  0.00    +0.000 HD
BRANCH  19  22
ATOM     22  C   UNL     1       9.495  10.769  18.491  0.00  0.00    +0.000 A 
ATOM     23  C   UNL     1      10.503  11.429  17.781  0.00  0.00    +0.000 A 
ATOM     24  C   UNL     1      11.466  12.192  18.439  0.00  0.00    +0.000 A 
ATOM     25  C   UNL     1      11.426  12.316  19.823  0.00  0.00    +0.000 A 
ATOM     26  C   UNL     1      10.411  11.688  20.543  0.00  0.00    +0.000 A 
ATOM     27  C   UNL     1       9.442  10.924  19.882  0.00  0.00    +0.000 A 
ENDBRANCH  19  22
ENDBRANCH  15  16
ENDBRANCH   1  15
TORSDOF 8
ENDMDL
MODEL 4
REMARK VINA RESULT:      -7.2      4.736      7.270
REMARK  Name = 
REMARK  8 active torsions:
REMARK  status: ('A' for Active; 'I' for Inactive)
REMARK    1  A    between atoms: N_1  and  C_2
REMARK    2  A    between atoms: C_2  and  C_3
REMARK    3  A    between atoms: C_2  and  C_17
REMARK    4  A    between atoms: C_3  and  C_4
REMARK    5  A    between atoms: C_4  and  C_5
REMARK    6  A    between atoms: C_5  and  C_6
REMARK    7  A    between atoms: C_6  and  N_7
REMARK    8  A    between atoms: N_10  and  C_11
REMARK                            x       y       z     vdW  Elec       q    Type
REMARK                         _______ _______ _______ _____ _____    ______ ____
ROOT
ATOM      1  C   UNL     1       1.683   4.455  20.751  0.00  0.00    +0.000 C 
ENDROOT
BRANCH   1   2
ATOM      2  C   UNL     1       1.108   3.751  19.514  0.00  0.00    +0.000 C 
BRANCH   2   3
ATOM      3  C   UNL     1       1.945   4.051  18.268  0.00  0.00    +0.000 C 
BRANCH   3   4
ATOM      4  C   UNL     1       3.042   3.031  17.904  0.00  0.00    +0.000 C 
BRANCH   4   5
ATOM      5  C   UNL     1       4.462   3.480  18.342  0.00  0.00    +0.000 C 
ATOM      6  O   UNL     1       4.872   3.318  19.493  0.00  0.00    +0.000 OA
ATOM      7  N   UNL     1       5.275   4.042  17.379  0.00  0.00    +0.000 N 
ATOM      8  C   UNL     1       4.970   4.274  15.981  0.00  0.00    +0.000 C 
ATOM      9  C   UNL     1       6.337   4.277  15.320  0.00  0.00    +0.000 C 
ATOM     10  C   UNL     1       7.237   4.912  16.374  0.00  0.00    +0.000 C 
ATOM     11  C   UNL     1       6.614   4.502  17.704  0.00  0.00    +0.000 C 
ENDBRANCH   4   5
BRANCH   4  12
ATOM     12  N   UNL     1       2.752   1.685  18.438  0.00  0.00    +0.000 NA
ATOM     13  H   UNL     1       2.434   1.767  19.402  0.00  0.00    +0.000 HD
ATOM     14  H   UNL     1       3.624   1.153  18.476  0.00  0.00    +0.000 HD
ENDBRANCH   4  12
ENDBRANCH   3   4
ENDBRANCH   2   3
ENDBRANCH   1   2
BRANCH   1  15
ATOM     15  C   UNL     1       2.328   5.766  20.331  0.00  0.00    +0.000 C 
BRANCH  15  16
ATOM     16  N   UNL     1       1.694   6.941  20.900  0.00  0.00    +0.000 N 
ATOM     17  C   UNL     1       1.571   8.028  20.044  0.00  0.00    +0.000 C 
ATOM     18  O   UNL     1       2.058   8.010  18.921  0.00  0.00    +0.000 OA
ATOM     19  N   UNL     1       0.886   9.070  20.619  0.00  0.00    +0.000 N 
ATOM     20  H   UNL     1       0.883   6.787  21.482  0.00  0.00    +0.000 HD
ATOM     21  H   UNL     1       0.908   9.105  21.626  0.00  0.00    +0.000 HD
BRANCH  19  22
ATOM     22  C   UNL     1       0.501  10.242  19.929  0.00  0.00    +0.000 A 
ATOM     23  C   UNL     1       1.210  11.443  20.029  0.00  0.00    +0.000 A 
ATOM     24  C   UNL     1       0.782  12.590  19.360  0.00  0.00    +0.000 A 
ATOM     25  C   UNL     1      -0.359  12.544  18.568  0.00  0.00    +0.000 A 
ATOM     26  C   UNL     1      -1.061  11.347  18.435  0.00  0.00    +0.000 A 
ATOM     27  C   UNL     1      -0.630  10.196  19.105  0.00  0.00    +0.000 A 
ENDBRANCH  19  22
ENDBRANCH  15  16
ENDBRANCH   1  15
TORSDOF 8
ENDMDL
MODEL 5
REMARK VINA RESULT:      -7.2      2.054      2.522
REMARK  Name = 
REMARK  8 active torsions:
REMARK  status: ('A' for Active; 'I' for Inactive)
REMARK    1  A    between atoms: N_1  and  C_2
REMARK    2  A    between atoms: C_2  and  C_3
REMARK    3  A    between atoms: C_2  and  C_17
REMARK    4  A    between atoms: C_3  and  C_4
REMARK    5  A    between atoms: C_4  and  C_5
REMARK    6  A    between atoms: C_5  and  C_6
REMARK    7  A    between atoms: C_6  and  N_7
REMARK    8  A    between atoms: N_10  and  C_11
REMARK                            x       y       z     vdW  Elec       q    Type
REMARK                         _______ _______ _______ _____ _____    ______ ____
ROOT
ATOM      1  C   UNL     1       6.718   6.477  17.625  0.00  0.00    +0.000 C 
ENDROOT
BRANCH   1   2
ATOM      2  C   UNL     1       5.205   6.734  17.589  0.00  0.00    +0.000 C 
BRANCH   2   3
ATOM      3  C   UNL     1       4.471   5.614  16.847  0.00  0.00    +0.000 C 
BRANCH   3   4
ATOM      4  C   UNL     1       4.435   4.234  17.531  0.00  0.00    +0.000 C 
BRANCH   4   5
ATOM      5  C   UNL     1       2.998   3.665  17.684  0.00  0.00    +0.000 C 
ATOM      6  O   UNL     1       2.364   3.226  16.722  0.00  0.00    +0.000 OA
ATOM      7  N   UNL     1       2.459   3.635  18.954  0.00  0.00    +0.000 N 
ATOM      8  C   UNL     1       3.071   4.076  20.191  0.00  0.00    +0.000 C 
ATOM      9  C   UNL     1       2.360   3.249  21.247  0.00  0.00    +0.000 C 
ATOM     10  C   UNL     1       0.942   3.123  20.701  0.00  0.00    +0.000 C 
ATOM     11  C   UNL     1       1.116   3.133  19.186  0.00  0.00    +0.000 C 
ENDBRANCH   4   5
BRANCH   4  12
ATOM     12  N   UNL     1       5.296   3.248  16.846  0.00  0.00    +0.000 NA
ATOM     13  H   UNL     1       5.422   3.529  15.875  0.00  0.00    +0.000 HD
ATOM     14  H   UNL     1       4.807   2.351  16.817  0.00  0.00    +0.000 HD
ENDBRANCH   4  12
ENDBRANCH   3   4
ENDBRANCH   2   3
ENDBRANCH   1   2
BRANCH   1  15
ATOM     15  C   UNL     1       7.458   7.782  17.381  0.00  0.00    +0.000 C 
BRANCH  15  16
ATOM     16  N   UNL     1       8.381   8.141  18.441  0.00  0.00    +0.000 N 
ATOM     17  C   UNL     1       8.654   9.498  18.561  0.00  0.00    +0.000 C 
ATOM     18  O   UNL     1       8.213  10.308  17.757  0.00  0.00    +0.000 OA
ATOM     19  N   UNL     1       9.462   9.774  19.636  0.00  0.00    +0.000 N 
ATOM     20  H   UNL     1       8.268   7.669  19.326  0.00  0.00    +0.000 HD
ATOM     21  H   UNL     1      10.054   9.019  19.944  0.00  0.00    +0.000 HD
BRANCH  19  22
ATOM     22  C   UNL     1       9.786  11.080  20.071  0.00  0.00    +0.000 A 
ATOM     23  C   UNL     1      10.796  11.844  19.477  0.00  0.00    +0.000 A 
ATOM     24  C   UNL     1      11.110  13.116  19.954  0.00  0.00    +0.000 A 
ATOM     25  C   UNL     1      10.404  13.648  21.026  0.00  0.00    +0.000 A 
ATOM     26  C   UNL     1       9.375  12.911  21.610  0.00  0.00    +0.000 A 
ATOM     27  C   UNL     1       9.059  11.635  21.130  0.00  0.00    +0.000 A 
ENDBRANCH  19  22
ENDBRANCH  15  16
ENDBRANCH   1  15
TORSDOF 8
ENDMDL
MODEL 6
REMARK VINA RESULT:      -7.2      4.719      7.287
REMARK  Name = 
REMARK  8 active torsions:
REMARK  status: ('A' for Active; 'I' for Inactive)
REMARK    1  A    between atoms: N_1  and  C_2
REMARK    2  A    between atoms: C_2  and  C_3
REMARK    3  A    between atoms: C_2  and  C_17
REMARK    4  A    between atoms: C_3  and  C_4
REMARK    5  A    between atoms: C_4  and  C_5
REMARK    6  A    between atoms: C_5  and  C_6
REMARK    7  A    between atoms: C_6  and  N_7
REMARK    8  A    between atoms: N_10  and  C_11
REMARK                            x       y       z     vdW  Elec       q    Type
REMARK                         _______ _______ _______ _____ _____    ______ ____
ROOT
ATOM      1  C   UNL     1       2.108   4.967  20.654  0.00  0.00    +0.000 C 
ENDROOT
BRANCH   1   2
ATOM      2  C   UNL     1       1.365   4.012  19.711  0.00  0.00    +0.000 C 
BRANCH   2   3
ATOM      3  C   UNL     1       1.923   4.094  18.288  0.00  0.00    +0.000 C 
BRANCH   3   4
ATOM      4  C   UNL     1       2.997   3.060  17.901  0.00  0.00    +0.000 C 
BRANCH   4   5
ATOM      5  C   UNL     1       4.429   3.472  18.338  0.00  0.00    +0.000 C 
ATOM      6  O   UNL     1       4.851   3.256  19.476  0.00  0.00    +0.000 OA
ATOM      7  N   UNL     1       5.237   4.065  17.390  0.00  0.00    +0.000 N 
ATOM      8  C   UNL     1       4.917   4.361  16.008  0.00  0.00    +0.000 C 
ATOM      9  C   UNL     1       6.276   4.375  15.330  0.00  0.00    +0.000 C 
ATOM     10  C   UNL     1       7.196   4.953  16.398  0.00  0.00    +0.000 C 
ATOM     11  C   UNL     1       6.585   4.495  17.717  0.00  0.00    +0.000 C 
ENDBRANCH   4   5
BRANCH   4  12
ATOM     12  N   UNL     1       2.684   1.710  18.412  0.00  0.00    +0.000 NA
ATOM     13  H   UNL     1       1.686   1.533  18.305  0.00  0.00    +0.000 HD
ATOM     14  H   UNL     1       2.864   1.691  19.418  0.00  0.00    +0.000 HD
ENDBRANCH   4  12
ENDBRANCH   3   4
ENDBRANCH   2   3
ENDBRANCH   1   2
BRANCH   1  15
ATOM     15  C   UNL     1       2.424   6.259  19.918  0.00  0.00    +0.000 C 
BRANCH  15  16
ATOM     16  N   UNL     1       1.852   7.441  20.534  0.00  0.00    +0.000 N 
ATOM     17  C   UNL     1       1.560   8.486  19.666  0.00  0.00    +0.000 C 
ATOM     18  O   UNL     1       1.863   8.430  18.481  0.00  0.00    +0.000 OA
ATOM     19  N   UNL     1       0.942   9.535  20.301  0.00  0.00    +0.000 N 
ATOM     20  H   UNL     1       1.148   7.293  21.244  0.00  0.00    +0.000 HD
ATOM     21  H   UNL     1       1.122   9.616  21.289  0.00  0.00    +0.000 HD
BRANCH  19  22
ATOM     22  C   UNL     1       0.415  10.666  19.636  0.00  0.00    +0.000 A 
ATOM     23  C   UNL     1      -0.846  10.667  19.033  0.00  0.00    +0.000 A 
ATOM     24  C   UNL     1      -1.321  11.790  18.357  0.00  0.00    +0.000 A 
ATOM     25  C   UNL     1      -0.539  12.938  18.288  0.00  0.00    +0.000 A 
ATOM     26  C   UNL     1       0.708  12.963  18.908  0.00  0.00    +0.000 A 
ATOM     27  C   UNL     1       1.184  11.835  19.588  0.00  0.00    +0.000 A 
ENDBRANCH  19  22
ENDBRANCH  15  16
ENDBRANCH   1  15
TORSDOF 8
ENDMDL
MODEL 7
REMARK VINA RESULT:      -7.2      3.927      6.483
REMARK  Name = 
REMARK  8 active torsions:
REMARK  status: ('A' for Active; 'I' for Inactive)
REMARK    1  A    between atoms: N_1  and  C_2
REMARK    2  A    between atoms: C_2  and  C_3
REMARK    3  A    between atoms: C_2  and  C_17
REMARK    4  A    between atoms: C_3  and  C_4
REMARK    5  A    between atoms: C_4  and  C_5
REMARK    6  A    between atoms: C_5  and  C_6
REMARK    7  A    between atoms: C_6  and  N_7
REMARK    8  A    between atoms: N_10  and  C_11
REMARK                            x       y       z     vdW  Elec       q    Type
REMARK                         _______ _______ _______ _____ _____    ______ ____
ROOT
ATOM      1  C   UNL     1       6.216   5.751  18.490  0.00  0.00    +0.000 C 
ENDROOT
BRANCH   1   2
ATOM      2  C   UNL     1       5.094   6.537  17.799  0.00  0.00    +0.000 C 
BRANCH   2   3
ATOM      3  C   UNL     1       4.057   5.595  17.181  0.00  0.00    +0.000 C 
BRANCH   3   4
ATOM      4  C   UNL     1       3.958   4.180  17.781  0.00  0.00    +0.000 C 
BRANCH   4   5
ATOM      5  C   UNL     1       2.509   3.780  18.169  0.00  0.00    +0.000 C 
ATOM      6  O   UNL     1       1.616   3.666  17.326  0.00  0.00    +0.000 OA
ATOM      7  N   UNL     1       2.256   3.519  19.500  0.00  0.00    +0.000 N 
ATOM      8  C   UNL     1       3.187   3.571  20.609  0.00  0.00    +0.000 C 
ATOM      9  C   UNL     1       2.580   2.615  21.621  0.00  0.00    +0.000 C 
ATOM     10  C   UNL     1       1.080   2.805  21.429  0.00  0.00    +0.000 C 
ATOM     11  C   UNL     1       0.926   3.153  19.952  0.00  0.00    +0.000 C 
ENDBRANCH   4   5
BRANCH   4  12
ATOM     12  N   UNL     1       4.543   3.154  16.894  0.00  0.00    +0.000 NA
ATOM     13  H   UNL     1       4.234   2.231  17.197  0.00  0.00    +0.000 HD
ATOM     14  H   UNL     1       5.558   3.161  17.010  0.00  0.00    +0.000 HD
ENDBRANCH   4  12
ENDBRANCH   3   4
ENDBRANCH   2   3
ENDBRANCH   1   2
BRANCH   1  15
ATOM     15  C   UNL     1       7.517   5.954  17.731  0.00  0.00    +0.000 C 
BRANCH  15  16
ATOM     16  N   UNL     1       7.339   6.168  16.307  0.00  0.00    +0.000 N 
ATOM     17  C   UNL     1       7.125   5.020  15.553  0.00  0.00    +0.000 C 
ATOM     18  O   UNL     1       7.184   3.908  16.060  0.00  0.00    +0.000 OA
ATOM     19  N   UNL     1       6.878   5.303  14.232  0.00  0.00    +0.000 N 
ATOM     20  H   UNL     1       6.764   6.950  16.029  0.00  0.00    +0.000 HD
ATOM     21  H   UNL     1       7.251   6.176  13.894  0.00  0.00    +0.000 HD
BRANCH  19  22
ATOM     22  C   UNL     1       6.495   4.338  13.273  0.00  0.00    +0.000 A 
ATOM     23  C   UNL     1       7.419   3.673  12.461  0.00  0.00    +0.000 A 
ATOM     24  C   UNL     1       7.002   2.750  11.502  0.00  0.00    +0.000 A 
ATOM     25  C   UNL     1       5.649   2.469  11.353  0.00  0.00    +0.000 A 
ATOM     26  C   UNL     1       4.717   3.102  12.174  0.00  0.00    +0.000 A 
ATOM     27  C   UNL     1       5.136   4.027  13.138  0.00  0.00    +0.000 A 
ENDBRANCH  19  22
ENDBRANCH  15  16
ENDBRANCH   1  15
TORSDOF 8
ENDMDL
MODEL 8
REMARK VINA RESULT:      -7.1      4.452      7.177
REMARK  Name = 
REMARK  8 active torsions:
REMARK  status: ('A' for Active; 'I' for Inactive)
REMARK    1  A    between atoms: N_1  and  C_2
REMARK    2  A    between atoms: C_2  and  C_3
REMARK    3  A    between atoms: C_2  and  C_17
REMARK    4  A    between atoms: C_3  and  C_4
REMARK    5  A    between atoms: C_4  and  C_5
REMARK    6  A    between atoms: C_5  and  C_6
REMARK    7  A    between atoms: C_6  and  N_7
REMARK    8  A    between atoms: N_10  and  C_11
REMARK                            x       y       z     vdW  Elec       q    Type
REMARK                         _______ _______ _______ _____ _____    ______ ____
ROOT
ATOM      1  C   UNL     1       1.861   5.530  17.842  0.00  0.00    +0.000 C 
ENDROOT
BRANCH   1   2
ATOM      2  C   UNL     1       2.196   4.109  18.315  0.00  0.00    +0.000 C 
BRANCH   2   3
ATOM      3  C   UNL     1       3.349   4.119  19.323  0.00  0.00    +0.000 C 
BRANCH   3   4
ATOM      4  C   UNL     1       4.613   3.324  18.941  0.00  0.00    +0.000 C 
BRANCH   4   5
ATOM      5  C   UNL     1       5.793   4.230  18.496  0.00  0.00    +0.000 C 
ATOM      6  O   UNL     1       6.573   4.731  19.309  0.00  0.00    +0.000 OA
ATOM      7  N   UNL     1       5.963   4.433  17.142  0.00  0.00    +0.000 N 
ATOM      8  C   UNL     1       5.166   3.899  16.056  0.00  0.00    +0.000 C 
ATOM      9  C   UNL     1       6.132   3.891  14.884  0.00  0.00    +0.000 C 
ATOM     10  C   UNL     1       6.985   5.133  15.122  0.00  0.00    +0.000 C 
ATOM     11  C   UNL     1       7.032   5.277  16.640  0.00  0.00    +0.000 C 
ENDBRANCH   4   5
BRANCH   4  12
ATOM     12  N   UNL     1       5.052   2.420  20.023  0.00  0.00    +0.000 NA
ATOM     13  H   UNL     1       5.941   2.750  20.397  0.00  0.00    +0.000 HD
ATOM     14  H   UNL     1       5.242   1.499  19.622  0.00  0.00    +0.000 HD
ENDBRANCH   4  12
ENDBRANCH   3   4
ENDBRANCH   2   3
ENDBRANCH   1   2
BRANCH   1  15
ATOM     15  C   UNL     1       2.854   6.510  18.445  0.00  0.00    +0.000 C 
BRANCH  15  16
ATOM     16  N   UNL     1       2.241   7.528  19.278  0.00  0.00    +0.000 N 
ATOM     17  C   UNL     1       1.884   8.700  18.623  0.00  0.00    +0.000 C 
ATOM     18  O   UNL     1       2.164   8.880  17.445  0.00  0.00    +0.000 OA
ATOM     19  N   UNL     1       1.233   9.582  19.450  0.00  0.00    +0.000 N 
ATOM     20  H   UNL     1       1.561   7.217  19.956  0.00  0.00    +0.000 HD
ATOM     21  H   UNL     1       1.430   9.487  20.434  0.00  0.00    +0.000 HD
BRANCH  19  22
ATOM     22  C   UNL     1       0.641  10.790  19.014  0.00  0.00    +0.000 A 
ATOM     23  C   UNL     1       1.348  11.994  18.945  0.00  0.00    +0.000 A 
ATOM     24  C   UNL     1       0.723  13.174  18.541  0.00  0.00    +0.000 A 
ATOM     25  C   UNL     1      -0.621  13.159  18.185  0.00  0.00    +0.000 A 
ATOM     26  C   UNL     1      -1.332  11.961  18.220  0.00  0.00    +0.000 A 
ATOM     27  C   UNL     1      -0.704  10.776  18.624  0.00  0.00    +0.000 A 
ENDBRANCH  19  22
ENDBRANCH  15  16
ENDBRANCH   1  15
TORSDOF 8
ENDMDL
MODEL 9
REMARK VINA RESULT:      -7.1      2.698      9.300
REMARK  Name = 
REMARK  8 active torsions:
REMARK  status: ('A' for Active; 'I' for Inactive)
REMARK    1  A    between atoms: N_1  and  C_2
REMARK    2  A    between atoms: C_2  and  C_3
REMARK    3  A    between atoms: C_2  and  C_17
REMARK    4  A    between atoms: C_3  and  C_4
REMARK    5  A    between atoms: C_4  and  C_5
REMARK    6  A    between atoms: C_5  and  C_6
REMARK    7  A    between atoms: C_6  and  N_7
REMARK    8  A    between atoms: N_10  and  C_11
REMARK                            x       y       z     vdW  Elec       q    Type
REMARK                         _______ _______ _______ _____ _____    ______ ____
ROOT
ATOM      1  C   UNL     1       8.040   7.704  18.221  0.00  0.00    +0.000 C 
ENDROOT
BRANCH   1   2
ATOM      2  C   UNL     1       8.121   9.165  17.759  0.00  0.00    +0.000 C 
BRANCH   2   3
ATOM      3  C   UNL     1       9.035   9.986  18.674  0.00  0.00    +0.000 C 
BRANCH   3   4
ATOM      4  C   UNL     1       9.425  11.394  18.186  0.00  0.00    +0.000 C 
BRANCH   4   5
ATOM      5  C   UNL     1       9.336  12.473  19.299  0.00  0.00    +0.000 C 
ATOM      6  O   UNL     1       9.970  12.378  20.352  0.00  0.00    +0.000 OA
ATOM      7  N   UNL     1       8.540  13.573  19.054  0.00  0.00    +0.000 N 
ATOM      8  C   UNL     1       7.758  13.860  17.868  0.00  0.00    +0.000 C 
ATOM      9  C   UNL     1       7.652  15.375  17.877  0.00  0.00    +0.000 C 
ATOM     10  C   UNL     1       7.571  15.713  19.361  0.00  0.00    +0.000 C 
ATOM     11  C   UNL     1       8.388  14.623  20.046  0.00  0.00    +0.000 C 
ENDBRANCH   4   5
BRANCH   4  12
ATOM     12  N   UNL     1      10.766  11.419  17.567  0.00  0.00    +0.000 NA
ATOM     13  H   UNL     1      11.094  10.464  17.436  0.00  0.00    +0.000 HD
ATOM     14  H   UNL     1      11.421  11.852  18.221  0.00  0.00    +0.000 HD
ENDBRANCH   4  12
ENDBRANCH   3   4
ENDBRANCH   2   3
ENDBRANCH   1   2
BRANCH   1  15
ATOM     15  C   UNL     1       7.449   6.855  17.108  0.00  0.00    +0.000 C 
BRANCH  15  16
ATOM     16  N   UNL     1       6.004   6.939  17.010  0.00  0.00    +0.000 N 
ATOM     17  C   UNL     1       5.298   6.011  17.765  0.00  0.00    +0.000 C 
ATOM     18  O   UNL     1       5.874   5.128  18.386  0.00  0.00    +0.000 OA
ATOM     19  N   UNL     1       3.940   6.204  17.692  0.00  0.00    +0.000 N 
ATOM     20  H   UNL     1       5.597   7.864  17.018  0.00  0.00    +0.000 HD
ATOM     21  H   UNL     1       3.608   6.674  16.865  0.00  0.00    +0.000 HD
BRANCH  19  22
ATOM     22  C   UNL     1       2.995   5.491  18.466  0.00  0.00    +0.000 A 
ATOM     23  C   UNL     1       2.770   5.762  19.819  0.00  0.00    +0.000 A 
ATOM     24  C   UNL     1       1.853   5.016  20.559  0.00  0.00    +0.000 A 
ATOM     25  C   UNL     1       1.136   3.995  19.947  0.00  0.00    +0.000 A 
ATOM     26  C   UNL     1       1.328   3.732  18.592  0.00  0.00    +0.000 A 
ATOM     27  C   UNL     1       2.247   4.481  17.849  0.00  0.00    +0.000 A 
ENDBRANCH  19  22
ENDBRANCH  15  16
ENDBRANCH   1  15
TORSDOF 8
ENDMDL
