MODEL 1
REMARK VINA RESULT:      -7.5      0.000      0.000
REMARK  Name = 
REMARK  8 active torsions:
REMARK  status: ('A' for Active; 'I' for Inactive)
REMARK    1  A    between atoms: C_1  and  C_2
REMARK    2  A    between atoms: C_2  and  C_3
REMARK    3  A    between atoms: C_8  and  S_9
REMARK    4  A    between atoms: S_9  and  C_10
REMARK    5  A    between atoms: C_10  and  C_11
REMARK    6  A    between atoms: N_13  and  C_14
REMARK    7  A    between atoms: C_14  and  C_15
REMARK    8  A    between atoms: C_20  and  C_21
REMARK                            x       y       z     vdW  Elec       q    Type
REMARK                         _______ _______ _______ _____ _____    ______ ____
ROOT
ATOM      1  C   UNL     1       7.578   7.556  17.840  0.00  0.00    +0.000 A 
ATOM      2  C   UNL     1       8.176   6.761  18.820  0.00  0.00    +0.000 A 
ATOM      3  C   UNL     1       7.517   5.619  19.315  0.00  0.00    +0.000 A 
ATOM      4  C   UNL     1       6.244   5.263  18.888  0.00  0.00    +0.000 A 
ATOM      5  N   UNL     1       5.562   4.286  19.526  0.00  0.00    +0.000 NA
ATOM      6  C   UNL     1       4.298   3.984  19.117  0.00  0.00    +0.000 A 
ATOM      7  C   UNL     1       3.700   4.613  18.026  0.00  0.00    +0.000 A 
ATOM      8  C   UNL     1       4.406   5.638  17.385  0.00  0.00    +0.000 A 
ATOM      9  C   UNL     1       5.684   6.003  17.831  0.00  0.00    +0.000 A 
ATOM     10  C   UNL     1       6.360   7.122  17.300  0.00  0.00    +0.000 A 
ENDROOT
BRANCH   1  12
ATOM     11  C   UNL     1       8.790   9.682  18.579  0.00  0.00    +0.000 C 
ATOM     12  C   UNL     1       8.181   8.880  17.428  0.00  0.00    +0.000 C 
ENDBRANCH   1  12
BRANCH   7  13
ATOM     13  C   UNL     1       2.395   4.267  17.541  0.00  0.00    +0.000 C 
ATOM     14  N   UNL     1       1.362   3.938  17.122  0.00  0.00    +0.000 NA
ENDBRANCH   7  13
BRANCH   6  15
ATOM     15  S   UNL     1       3.447   2.700  20.031  0.00  0.00    +0.000 S 
BRANCH  15  16
ATOM     16  C   UNL     1       2.676   3.641  21.384  0.00  0.00    +0.000 C 
BRANCH  16  17
ATOM     17  C   UNL     1       1.757   4.727  20.858  0.00  0.00    +0.000 C 
ATOM     18  O   UNL     1       0.617   4.483  20.466  0.00  0.00    +0.000 OA
ATOM     19  N   UNL     1       2.281   6.003  20.855  0.00  0.00    +0.000 N 
ATOM     20  H   UNL     1       3.187   6.164  21.287  0.00  0.00    +0.000 HD
BRANCH  19  21
ATOM     21  C   UNL     1       1.450   7.148  20.504  0.00  0.00    +0.000 C 
BRANCH  21  22
ATOM     22  C   UNL     1       0.930   7.949  21.698  0.00  0.00    +0.000 C 
ATOM     23  C   UNL     1      -0.516   8.403  21.576  0.00  0.00    +0.000 C 
ATOM     24  C   UNL     1      -0.506   9.687  22.358  0.00  0.00    +0.000 C 
ATOM     25  C   UNL     1       0.864  10.236  22.037  0.00  0.00    +0.000 C 
ATOM     26  O   UNL     1       1.741   9.119  21.913  0.00  0.00    +0.000 OA
ENDBRANCH  21  22
ENDBRANCH  19  21
ENDBRANCH  16  17
ENDBRANCH  15  16
ENDBRANCH   6  15
TORSDOF 7
ENDMDL
MODEL 2
REMARK VINA RESULT:      -7.3      3.609      7.213
REMARK  Name = 
REMARK  8 active torsions:
REMARK  status: ('A' for Active; 'I' for Inactive)
REMARK    1  A    between atoms: C_1  and  C_2
REMARK    2  A    between atoms: C_2  and  C_3
REMARK    3  A    between atoms: C_8  and  S_9
REMARK    4  A    between atoms: S_9  and  C_10
REMARK    5  A    between atoms: C_10  and  C_11
REMARK    6  A    between atoms: N_13  and  C_14
REMARK    7  A    between atoms: C_14  and  C_15
REMARK    8  A    between atoms: C_20  and  C_21
REMARK                            x       y       z     vdW  Elec       q    Type
REMARK                         _______ _______ _______ _____ _____    ______ ____
ROOT
ATOM      1  C   UNL     1       1.185   9.979  19.617  0.00  0.00    +0.000 A 
ATOM      2  C   UNL     1       1.634   9.842  18.301  0.00  0.00    +0.000 A 
ATOM      3  C   UNL     1       2.079   8.593  17.825  0.00  0.00    +0.000 A 
ATOM      4  C   UNL     1       2.130   7.471  18.643  0.00  0.00    +0.000 A 
ATOM      5  N   UNL     1       2.749   6.347  18.216  0.00  0.00    +0.000 NA
ATOM      6  C   UNL     1       2.825   5.274  19.052  0.00  0.00    +0.000 A 
ATOM      7  C   UNL     1       2.240   5.275  20.317  0.00  0.00    +0.000 A 
ATOM      8  C   UNL     1       1.620   6.451  20.758  0.00  0.00    +0.000 A 
ATOM      9  C   UNL     1       1.585   7.585  19.934  0.00  0.00    +0.000 A 
ATOM     10  C   UNL     1       1.097   8.823  20.403  0.00  0.00    +0.000 A 
ENDROOT
BRANCH   1  12
ATOM     11  C   UNL     1       0.583  12.422  19.163  0.00  0.00    +0.000 C 
ATOM     12  C   UNL     1       0.877  11.340  20.202  0.00  0.00    +0.000 C 
ENDBRANCH   1  12
BRANCH   7  13
ATOM     13  C   UNL     1       2.254   4.136  21.188  0.00  0.00    +0.000 C 
ATOM     14  N   UNL     1       2.211   3.198  21.875  0.00  0.00    +0.000 NA
ENDBRANCH   7  13
BRANCH   6  15
ATOM     15  S   UNL     1       3.687   3.834  18.427  0.00  0.00    +0.000 S 
BRANCH  15  16
ATOM     16  C   UNL     1       5.309   3.977  19.238  0.00  0.00    +0.000 C 
BRANCH  16  17
ATOM     17  C   UNL     1       6.349   4.575  18.308  0.00  0.00    +0.000 C 
ATOM     18  O   UNL     1       7.442   4.963  18.717  0.00  0.00    +0.000 OA
ATOM     19  N   UNL     1       5.989   4.646  16.978  0.00  0.00    +0.000 N 
ATOM     20  H   UNL     1       5.119   4.216  16.680  0.00  0.00    +0.000 HD
BRANCH  19  21
ATOM     21  C   UNL     1       6.952   5.072  15.970  0.00  0.00    +0.000 C 
BRANCH  21  22
ATOM     22  C   UNL     1       6.430   5.031  14.533  0.00  0.00    +0.000 C 
ATOM     23  C   UNL     1       5.898   3.676  14.090  0.00  0.00    +0.000 C 
ATOM     24  C   UNL     1       6.200   3.690  12.618  0.00  0.00    +0.000 C 
ATOM     25  C   UNL     1       7.510   4.439  12.575  0.00  0.00    +0.000 C 
ATOM     26  O   UNL     1       7.462   5.420  13.609  0.00  0.00    +0.000 OA
ENDBRANCH  21  22
ENDBRANCH  19  21
ENDBRANCH  16  17
ENDBRANCH  15  16
ENDBRANCH   6  15
TORSDOF 7
ENDMDL
MODEL 3
REMARK VINA RESULT:      -7.2      1.449      1.800
REMARK  Name = 
REMARK  8 active torsions:
REMARK  status: ('A' for Active; 'I' for Inactive)
REMARK    1  A    between atoms: C_1  and  C_2
REMARK    2  A    between atoms: C_2  and  C_3
REMARK    3  A    between atoms: C_8  and  S_9
REMARK    4  A    between atoms: S_9  and  C_10
REMARK    5  A    between atoms: C_10  and  C_11
REMARK    6  A    between atoms: N_13  and  C_14
REMARK    7  A    between atoms: C_14  and  C_15
REMARK    8  A    between atoms: C_20  and  C_21
REMARK                            x       y       z     vdW  Elec       q    Type
REMARK                         _______ _______ _______ _____ _____    ______ ____
ROOT
ATOM      1  C   UNL     1       7.650   7.671  17.877  0.00  0.00    +0.000 A 
ATOM      2  C   UNL     1       8.247   6.973  18.930  0.00  0.00    +0.000 A 
ATOM      3  C   UNL     1       7.702   5.755  19.381  0.00  0.00    +0.000 A 
ATOM      4  C   UNL     1       6.540   5.224  18.834  0.00  0.00    +0.000 A 
ATOM      5  N   UNL     1       5.934   4.168  19.421  0.00  0.00    +0.000 NA
ATOM      6  C   UNL     1       4.773   3.691  18.892  0.00  0.00    +0.000 A 
ATOM      7  C   UNL     1       4.211   4.223  17.733  0.00  0.00    +0.000 A 
ATOM      8  C   UNL     1       4.834   5.331  17.144  0.00  0.00    +0.000 A 
ATOM      9  C   UNL     1       5.997   5.872  17.709  0.00  0.00    +0.000 A 
ATOM     10  C   UNL     1       6.565   7.070  17.226  0.00  0.00    +0.000 A 
ENDROOT
BRANCH   1  12
ATOM     11  C   UNL     1       8.835   9.812  18.616  0.00  0.00    +0.000 C 
ATOM     12  C   UNL     1       8.107   9.063  17.499  0.00  0.00    +0.000 C 
ENDBRANCH   1  12
BRANCH   7  13
ATOM     13  C   UNL     1       3.023   3.698  17.125  0.00  0.00    +0.000 C 
ATOM     14  N   UNL     1       2.064   3.315  16.591  0.00  0.00    +0.000 NA
ENDBRANCH   7  13
BRANCH   6  15
ATOM     15  S   UNL     1       4.015   2.310  19.743  0.00  0.00    +0.000 S 
BRANCH  15  16
ATOM     16  C   UNL     1       2.275   2.832  19.847  0.00  0.00    +0.000 C 
BRANCH  16  17
ATOM     17  C   UNL     1       2.106   4.042  20.747  0.00  0.00    +0.000 C 
ATOM     18  O   UNL     1       2.336   3.993  21.954  0.00  0.00    +0.000 OA
ATOM     19  N   UNL     1       1.688   5.198  20.120  0.00  0.00    +0.000 N 
ATOM     20  H   UNL     1       1.614   5.210  19.107  0.00  0.00    +0.000 HD
BRANCH  19  21
ATOM     21  C   UNL     1       1.623   6.458  20.851  0.00  0.00    +0.000 C 
BRANCH  21  22
ATOM     22  C   UNL     1       2.137   7.671  20.075  0.00  0.00    +0.000 C 
ATOM     23  C   UNL     1       1.129   8.802  19.928  0.00  0.00    +0.000 C 
ATOM     24  C   UNL     1       1.528   9.403  18.609  0.00  0.00    +0.000 C 
ATOM     25  C   UNL     1       1.956   8.184  17.827  0.00  0.00    +0.000 C 
ATOM     26  O   UNL     1       2.559   7.286  18.755  0.00  0.00    +0.000 OA
ENDBRANCH  21  22
ENDBRANCH  19  21
ENDBRANCH  16  17
ENDBRANCH  15  16
ENDBRANCH   6  15
TORSDOF 7
ENDMDL
MODEL 4
REMARK VINA RESULT:      -7.2      2.811      6.298
REMARK  Name = 
REMARK  8 active torsions:
REMARK  status: ('A' for Active; 'I' for Inactive)
REMARK    1  A    between atoms: C_1  and  C_2
REMARK    2  A    between atoms: C_2  and  C_3
REMARK    3  A    between atoms: C_8  and  S_9
REMARK    4  A    between atoms: S_9  and  C_10
REMARK    5  A    between atoms: C_10  and  C_11
REMARK    6  A    between atoms: N_13  and  C_14
REMARK    7  A    between atoms: C_14  and  C_15
REMARK    8  A    between atoms: C_20  and  C_21
REMARK                            x       y       z     vdW  Elec       q    Type
REMARK                         _______ _______ _______ _____ _____    ______ ____
ROOT
ATOM      1  C   UNL     1       1.394   9.426  19.357  0.00  0.00    +0.000 A 
ATOM      2  C   UNL     1       2.177   9.227  18.218  0.00  0.00    +0.000 A 
ATOM      3  C   UNL     1       2.763   7.971  17.963  0.00  0.00    +0.000 A 
ATOM      4  C   UNL     1       2.627   6.905  18.844  0.00  0.00    +0.000 A 
ATOM      5  N   UNL     1       3.365   5.786  18.675  0.00  0.00    +0.000 NA
ATOM      6  C   UNL     1       3.245   4.771  19.575  0.00  0.00    +0.000 A 
ATOM      7  C   UNL     1       2.348   4.824  20.641  0.00  0.00    +0.000 A 
ATOM      8  C   UNL     1       1.603   5.997  20.820  0.00  0.00    +0.000 A 
ATOM      9  C   UNL     1       1.757   7.075  19.937  0.00  0.00    +0.000 A 
ATOM     10  C   UNL     1       1.132   8.317  20.173  0.00  0.00    +0.000 A 
ENDROOT
BRANCH   1  12
ATOM     11  C   UNL     1      -0.576  11.051  19.471  0.00  0.00    +0.000 C 
ATOM     12  C   UNL     1       0.908  10.805  19.744  0.00  0.00    +0.000 C 
ENDBRANCH   1  12
BRANCH   7  13
ATOM     13  C   UNL     1       2.162   3.742  21.564  0.00  0.00    +0.000 C 
ATOM     14  N   UNL     1       1.967   2.845  22.277  0.00  0.00    +0.000 NA
ENDBRANCH   7  13
BRANCH   6  15
ATOM     15  S   UNL     1       4.278   3.333  19.301  0.00  0.00    +0.000 S 
BRANCH  15  16
ATOM     16  C   UNL     1       3.779   2.817  17.629  0.00  0.00    +0.000 C 
BRANCH  16  17
ATOM     17  C   UNL     1       4.500   3.615  16.558  0.00  0.00    +0.000 C 
ATOM     18  O   UNL     1       3.916   4.439  15.857  0.00  0.00    +0.000 OA
ATOM     19  N   UNL     1       5.849   3.360  16.431  0.00  0.00    +0.000 N 
ATOM     20  H   UNL     1       6.300   2.748  17.104  0.00  0.00    +0.000 HD
BRANCH  19  21
ATOM     21  C   UNL     1       6.676   4.160  15.535  0.00  0.00    +0.000 C 
BRANCH  21  22
ATOM     22  C   UNL     1       7.355   5.360  16.197  0.00  0.00    +0.000 C 
ATOM     23  C   UNL     1       7.637   5.190  17.681  0.00  0.00    +0.000 C 
ATOM     24  C   UNL     1       7.534   6.603  18.182  0.00  0.00    +0.000 C 
ATOM     25  C   UNL     1       6.430   7.161  17.315  0.00  0.00    +0.000 C 
ATOM     26  O   UNL     1       6.555   6.546  16.035  0.00  0.00    +0.000 OA
ENDBRANCH  21  22
ENDBRANCH  19  21
ENDBRANCH  16  17
ENDBRANCH  15  16
ENDBRANCH   6  15
TORSDOF 7
ENDMDL
MODEL 5
REMARK VINA RESULT:      -7.2      3.808      7.680
REMARK  Name = 
REMARK  8 active torsions:
REMARK  status: ('A' for Active; 'I' for Inactive)
REMARK    1  A    between atoms: C_1  and  C_2
REMARK    2  A    between atoms: C_2  and  C_3
REMARK    3  A    between atoms: C_8  and  S_9
REMARK    4  A    between atoms: S_9  and  C_10
REMARK    5  A    between atoms: C_10  and  C_11
REMARK    6  A    between atoms: N_13  and  C_14
REMARK    7  A    between atoms: C_14  and  C_15
REMARK    8  A    between atoms: C_20  and  C_21
REMARK                            x       y       z     vdW  Elec       q    Type
REMARK                         _______ _______ _______ _____ _____    ______ ____
ROOT
ATOM      1  C   UNL     1       1.924   3.945  19.668  0.00  0.00    +0.000 A 
ATOM      2  C   UNL     1       2.444   5.056  20.336  0.00  0.00    +0.000 A 
ATOM      3  C   UNL     1       3.532   5.770  19.798  0.00  0.00    +0.000 A 
ATOM      4  C   UNL     1       4.154   5.380  18.618  0.00  0.00    +0.000 A 
ATOM      5  N   UNL     1       5.315   5.960  18.239  0.00  0.00    +0.000 NA
ATOM      6  C   UNL     1       5.928   5.532  17.101  0.00  0.00    +0.000 A 
ATOM      7  C   UNL     1       5.374   4.549  16.282  0.00  0.00    +0.000 A 
ATOM      8  C   UNL     1       4.183   3.939  16.695  0.00  0.00    +0.000 A 
ATOM      9  C   UNL     1       3.569   4.326  17.894  0.00  0.00    +0.000 A 
ATOM     10  C   UNL     1       2.451   3.635  18.407  0.00  0.00    +0.000 A 
ENDROOT
BRANCH   1  12
ATOM     11  C   UNL     1       1.226   2.609  21.733  0.00  0.00    +0.000 C 
ATOM     12  C   UNL     1       0.881   3.059  20.312  0.00  0.00    +0.000 C 
ENDBRANCH   1  12
BRANCH   7  13
ATOM     13  C   UNL     1       5.972   4.127  15.049  0.00  0.00    +0.000 C 
ATOM     14  N   UNL     1       6.453   3.841  14.029  0.00  0.00    +0.000 NA
ENDBRANCH   7  13
BRANCH   6  15
ATOM     15  S   UNL     1       7.477   6.327  16.680  0.00  0.00    +0.000 S 
BRANCH  15  16
ATOM     16  C   UNL     1       7.946   7.109  18.255  0.00  0.00    +0.000 C 
BRANCH  16  17
ATOM     17  C   UNL     1       8.076   8.615  18.114  0.00  0.00    +0.000 C 
ATOM     18  O   UNL     1       7.393   9.256  17.317  0.00  0.00    +0.000 OA
ATOM     19  N   UNL     1       9.002   9.214  18.943  0.00  0.00    +0.000 N 
ATOM     20  H   UNL     1       9.462   8.652  19.654  0.00  0.00    +0.000 HD
BRANCH  19  21
ATOM     21  C   UNL     1       9.119  10.666  19.000  0.00  0.00    +0.000 C 
BRANCH  21  22
ATOM     22  C   UNL     1      10.517  11.205  18.689  0.00  0.00    +0.000 C 
ATOM     23  C   UNL     1      11.350  11.548  19.915  0.00  0.00    +0.000 C 
ATOM     24  C   UNL     1      12.203  12.676  19.404  0.00  0.00    +0.000 C 
ATOM     25  C   UNL     1      11.253  13.386  18.469  0.00  0.00    +0.000 C 
ATOM     26  O   UNL     1      10.433  12.385  17.871  0.00  0.00    +0.000 OA
ENDBRANCH  21  22
ENDBRANCH  19  21
ENDBRANCH  16  17
ENDBRANCH  15  16
ENDBRANCH   6  15
TORSDOF 7
ENDMDL
MODEL 6
REMARK VINA RESULT:      -7.1      3.169      7.042
REMARK  Name = 
REMARK  8 active torsions:
REMARK  status: ('A' for Active; 'I' for Inactive)
REMARK    1  A    between atoms: C_1  and  C_2
REMARK    2  A    between atoms: C_2  and  C_3
REMARK    3  A    between atoms: C_8  and  S_9
REMARK    4  A    between atoms: S_9  and  C_10
REMARK    5  A    between atoms: C_10  and  C_11
REMARK    6  A    between atoms: N_13  and  C_14
REMARK    7  A    between atoms: C_14  and  C_15
REMARK    8  A    between atoms: C_20  and  C_21
REMARK                            x       y       z     vdW  Elec       q    Type
REMARK                         _______ _______ _______ _____ _____    ______ ____
ROOT
ATOM      1  C   UNL     1       1.004   9.133  20.028  0.00  0.00    +0.000 A 
ATOM      2  C   UNL     1       1.321   9.667  18.777  0.00  0.00    +0.000 A 
ATOM      3  C   UNL     1       2.164   8.966  17.893  0.00  0.00    +0.000 A 
ATOM      4  C   UNL     1       2.744   7.752  18.240  0.00  0.00    +0.000 A 
ATOM      5  N   UNL     1       3.703   7.209  17.457  0.00  0.00    +0.000 NA
ATOM      6  C   UNL     1       4.288   6.040  17.840  0.00  0.00    +0.000 A 
ATOM      7  C   UNL     1       3.896   5.353  18.987  0.00  0.00    +0.000 A 
ATOM      8  C   UNL     1       2.918   5.934  19.803  0.00  0.00    +0.000 A 
ATOM      9  C   UNL     1       2.347   7.167  19.456  0.00  0.00    +0.000 A 
ATOM     10  C   UNL     1       1.467   7.845  20.326  0.00  0.00    +0.000 A 
ENDROOT
BRANCH   1  12
ATOM     11  C   UNL     1       0.050   9.233  22.399  0.00  0.00    +0.000 C 
ATOM     12  C   UNL     1       0.254   9.946  21.061  0.00  0.00    +0.000 C 
ENDBRANCH   1  12
BRANCH   7  13
ATOM     13  C   UNL     1       4.456   4.091  19.376  0.00  0.00    +0.000 C 
ATOM     14  N   UNL     1       4.862   3.060  19.727  0.00  0.00    +0.000 NA
ENDBRANCH   7  13
BRANCH   6  15
ATOM     15  S   UNL     1       5.571   5.400  16.766  0.00  0.00    +0.000 S 
BRANCH  15  16
ATOM     16  C   UNL     1       6.583   6.879  16.453  0.00  0.00    +0.000 C 
BRANCH  16  17
ATOM     17  C   UNL     1       7.457   7.222  17.644  0.00  0.00    +0.000 C 
ATOM     18  O   UNL     1       7.777   6.380  18.481  0.00  0.00    +0.000 OA
ATOM     19  N   UNL     1       7.873   8.535  17.721  0.00  0.00    +0.000 N 
ATOM     20  H   UNL     1       7.667   9.163  16.949  0.00  0.00    +0.000 HD
BRANCH  19  21
ATOM     21  C   UNL     1       8.828   8.954  18.740  0.00  0.00    +0.000 C 
BRANCH  21  22
ATOM     22  C   UNL     1       8.967  10.469  18.899  0.00  0.00    +0.000 C 
ATOM     23  C   UNL     1      10.024  11.104  18.009  0.00  0.00    +0.000 C 
ATOM     24  C   UNL     1      10.477  12.268  18.846  0.00  0.00    +0.000 C 
ATOM     25  C   UNL     1      10.393  11.698  20.242  0.00  0.00    +0.000 C 
ATOM     26  O   UNL     1       9.279  10.808  20.262  0.00  0.00    +0.000 OA
ENDBRANCH  21  22
ENDBRANCH  19  21
ENDBRANCH  16  17
ENDBRANCH  15  16
ENDBRANCH   6  15
TORSDOF 7
ENDMDL
MODEL 7
REMARK VINA RESULT:      -7.1      2.929      5.606
REMARK  Name = 
REMARK  8 active torsions:
REMARK  status: ('A' for Active; 'I' for Inactive)
REMARK    1  A    between atoms: C_1  and  C_2
REMARK    2  A    between atoms: C_2  and  C_3
REMARK    3  A    between atoms: C_8  and  S_9
REMARK    4  A    between atoms: S_9  and  C_10
REMARK    5  A    between atoms: C_10  and  C_11
REMARK    6  A    between atoms: N_13  and  C_14
REMARK    7  A    between atoms: C_14  and  C_15
REMARK    8  A    between atoms: C_20  and  C_21
REMARK                            x       y       z     vdW  Elec       q    Type
REMARK                         _______ _______ _______ _____ _____    ______ ____
ROOT
ATOM      1  C   UNL     1       0.665   9.414  19.267  0.00  0.00    +0.000 A 
ATOM      2  C   UNL     1       0.851   8.691  20.447  0.00  0.00    +0.000 A 
ATOM      3  C   UNL     1       1.851   7.703  20.531  0.00  0.00    +0.000 A 
ATOM      4  C   UNL     1       2.656   7.378  19.445  0.00  0.00    +0.000 A 
ATOM      5  N   UNL     1       3.460   6.294  19.496  0.00  0.00    +0.000 NA
ATOM      6  C   UNL     1       4.207   5.971  18.404  0.00  0.00    +0.000 A 
ATOM      7  C   UNL     1       4.211   6.751  17.249  0.00  0.00    +0.000 A 
ATOM      8  C   UNL     1       3.357   7.860  17.198  0.00  0.00    +0.000 A 
ATOM      9  C   UNL     1       2.537   8.173  18.290  0.00  0.00    +0.000 A 
ATOM     10  C   UNL     1       1.566   9.194  18.217  0.00  0.00    +0.000 A 
ENDROOT
BRANCH   1  12
ATOM     11  C   UNL     1      -1.333  10.099  17.827  0.00  0.00    +0.000 C 
ATOM     12  C   UNL     1      -0.514  10.345  19.094  0.00  0.00    +0.000 C 
ENDBRANCH   1  12
BRANCH   7  13
ATOM     13  C   UNL     1       5.035   6.463  16.111  0.00  0.00    +0.000 C 
ATOM     14  N   UNL     1       5.665   6.261  15.155  0.00  0.00    +0.000 NA
ENDBRANCH   7  13
BRANCH   6  15
ATOM     15  S   UNL     1       5.225   4.503  18.538  0.00  0.00    +0.000 S 
BRANCH  15  16
ATOM     16  C   UNL     1       4.564   3.456  17.205  0.00  0.00    +0.000 C 
BRANCH  16  17
ATOM     17  C   UNL     1       3.412   2.594  17.689  0.00  0.00    +0.000 C 
ATOM     18  O   UNL     1       3.563   1.408  17.976  0.00  0.00    +0.000 OA
ATOM     19  N   UNL     1       2.193   3.230  17.791  0.00  0.00    +0.000 N 
ATOM     20  H   UNL     1       2.148   4.234  17.643  0.00  0.00    +0.000 HD
BRANCH  19  21
ATOM     21  C   UNL     1       1.045   2.547  18.375  0.00  0.00    +0.000 C 
BRANCH  21  22
ATOM     22  C   UNL     1       0.916   2.698  19.891  0.00  0.00    +0.000 C 
ATOM     23  C   UNL     1       1.160   4.107  20.410  0.00  0.00    +0.000 C 
ATOM     24  C   UNL     1       1.728   3.841  21.776  0.00  0.00    +0.000 C 
ATOM     25  C   UNL     1       2.535   2.587  21.539  0.00  0.00    +0.000 C 
ATOM     26  O   UNL     1       1.831   1.817  20.567  0.00  0.00    +0.000 OA
ENDBRANCH  21  22
ENDBRANCH  19  21
ENDBRANCH  16  17
ENDBRANCH  15  16
ENDBRANCH   6  15
TORSDOF 7
ENDMDL
MODEL 8
REMARK VINA RESULT:      -7.0      3.652      7.200
REMARK  Name = 
REMARK  8 active torsions:
REMARK  status: ('A' for Active; 'I' for Inactive)
REMARK    1  A    between atoms: C_1  and  C_2
REMARK    2  A    between atoms: C_2  and  C_3
REMARK    3  A    between atoms: C_8  and  S_9
REMARK    4  A    between atoms: S_9  and  C_10
REMARK    5  A    between atoms: C_10  and  C_11
REMARK    6  A    between atoms: N_13  and  C_14
REMARK    7  A    between atoms: C_14  and  C_15
REMARK    8  A    between atoms: C_20  and  C_21
REMARK                            x       y       z     vdW  Elec       q    Type
REMARK                         _______ _______ _______ _____ _____    ______ ____
ROOT
ATOM      1  C   UNL     1       1.279   9.693  19.220  0.00  0.00    +0.000 A 
ATOM      2  C   UNL     1       1.960   9.561  18.008  0.00  0.00    +0.000 A 
ATOM      3  C   UNL     1       2.571   8.340  17.661  0.00  0.00    +0.000 A 
ATOM      4  C   UNL     1       2.559   7.244  18.515  0.00  0.00    +0.000 A 
ATOM      5  N   UNL     1       3.323   6.162  18.243  0.00  0.00    +0.000 NA
ATOM      6  C   UNL     1       3.328   5.118  19.117  0.00  0.00    +0.000 A 
ATOM      7  C   UNL     1       2.532   5.102  20.261  0.00  0.00    +0.000 A 
ATOM      8  C   UNL     1       1.762   6.236  20.546  0.00  0.00    +0.000 A 
ATOM      9  C   UNL     1       1.789   7.345  19.688  0.00  0.00    +0.000 A 
ATOM     10  C   UNL     1       1.139   8.552  20.020  0.00  0.00    +0.000 A 
ENDROOT
BRANCH   1  12
ATOM     11  C   UNL     1       1.599  12.230  19.200  0.00  0.00    +0.000 C 
ATOM     12  C   UNL     1       0.777  11.039  19.695  0.00  0.00    +0.000 C 
ENDBRANCH   1  12
BRANCH   7  13
ATOM     13  C   UNL     1       2.477   3.987  21.162  0.00  0.00    +0.000 C 
ATOM     14  N   UNL     1       2.372   3.088  21.892  0.00  0.00    +0.000 NA
ENDBRANCH   7  13
BRANCH   6  15
ATOM     15  S   UNL     1       4.388   3.734  18.703  0.00  0.00    +0.000 S 
BRANCH  15  16
ATOM     16  C   UNL     1       6.046   4.410  19.029  0.00  0.00    +0.000 C 
BRANCH  16  17
ATOM     17  C   UNL     1       6.805   4.676  17.742  0.00  0.00    +0.000 C 
ATOM     18  O   UNL     1       8.032   4.610  17.685  0.00  0.00    +0.000 OA
ATOM     19  N   UNL     1       6.029   4.987  16.645  0.00  0.00    +0.000 N 
ATOM     20  H   UNL     1       5.018   4.925  16.723  0.00  0.00    +0.000 HD
BRANCH  19  21
ATOM     21  C   UNL     1       6.631   5.127  15.325  0.00  0.00    +0.000 C 
BRANCH  21  22
ATOM     22  C   UNL     1       6.352   3.965  14.371  0.00  0.00    +0.000 C 
ATOM     23  C   UNL     1       7.163   3.992  13.085  0.00  0.00    +0.000 C 
ATOM     24  C   UNL     1       6.227   3.330  12.112  0.00  0.00    +0.000 C 
ATOM     25  C   UNL     1       4.882   3.823  12.590  0.00  0.00    +0.000 C 
ATOM     26  O   UNL     1       4.959   3.930  14.010  0.00  0.00    +0.000 OA
ENDBRANCH  21  22
ENDBRANCH  19  21
ENDBRANCH  16  17
ENDBRANCH  15  16
ENDBRANCH   6  15
TORSDOF 7
ENDMDL
MODEL 9
REMARK VINA RESULT:      -7.0      2.844      4.198
REMARK  Name = 
REMARK  8 active torsions:
REMARK  status: ('A' for Active; 'I' for Inactive)
REMARK    1  A    between atoms: C_1  and  C_2
REMARK    2  A    between atoms: C_2  and  C_3
REMARK    3  A    between atoms: C_8  and  S_9
REMARK    4  A    between atoms: S_9  and  C_10
REMARK    5  A    between atoms: C_10  and  C_11
REMARK    6  A    between atoms: N_13  and  C_14
REMARK    7  A    between atoms: C_14  and  C_15
REMARK    8  A    between atoms: C_20  and  C_21
REMARK                            x       y       z     vdW  Elec       q    Type
REMARK                         _______ _______ _______ _____ _____    ______ ____
ROOT
ATOM      1  C   UNL     1       5.323   4.726  15.875  0.00  0.00    +0.000 A 
ATOM      2  C   UNL     1       5.072   6.099  15.900  0.00  0.00    +0.000 A 
ATOM      3  C   UNL     1       4.359   6.676  16.969  0.00  0.00    +0.000 A 
ATOM      4  C   UNL     1       3.844   5.909  18.007  0.00  0.00    +0.000 A 
ATOM      5  N   UNL     1       2.995   6.460  18.903  0.00  0.00    +0.000 NA
ATOM      6  C   UNL     1       2.469   5.678  19.886  0.00  0.00    +0.000 A 
ATOM      7  C   UNL     1       2.816   4.335  20.033  0.00  0.00    +0.000 A 
ATOM      8  C   UNL     1       3.678   3.768  19.087  0.00  0.00    +0.000 A 
ATOM      9  C   UNL     1       4.182   4.543  18.033  0.00  0.00    +0.000 A 
ATOM     10  C   UNL     1       4.934   3.968  16.988  0.00  0.00    +0.000 A 
ENDROOT
BRANCH   1  12
ATOM     11  C   UNL     1       7.001   4.887  13.952  0.00  0.00    +0.000 C 
ATOM     12  C   UNL     1       5.924   4.061  14.656  0.00  0.00    +0.000 C 
ENDBRANCH   1  12
BRANCH   7  13
ATOM     13  C   UNL     1       2.322   3.510  21.097  0.00  0.00    +0.000 C 
ATOM     14  N   UNL     1       1.975   2.845  21.986  0.00  0.00    +0.000 NA
ENDBRANCH   7  13
BRANCH   6  15
ATOM     15  S   UNL     1       1.330   6.473  21.017  0.00  0.00    +0.000 S 
BRANCH  15  16
ATOM     16  C   UNL     1       1.539   8.231  20.597  0.00  0.00    +0.000 C 
BRANCH  16  17
ATOM     17  C   UNL     1       1.095   9.134  21.734  0.00  0.00    +0.000 C 
ATOM     18  O   UNL     1       1.843   9.422  22.666  0.00  0.00    +0.000 OA
ATOM     19  N   UNL     1      -0.195   9.613  21.645  0.00  0.00    +0.000 N 
ATOM     20  H   UNL     1      -0.732   9.429  20.803  0.00  0.00    +0.000 HD
BRANCH  19  21
ATOM     21  C   UNL     1      -0.690  10.597  22.601  0.00  0.00    +0.000 C 
BRANCH  21  22
ATOM     22  C   UNL     1      -0.750  12.029  22.067  0.00  0.00    +0.000 C 
ATOM     23  C   UNL     1      -1.624  12.210  20.836  0.00  0.00    +0.000 C 
ATOM     24  C   UNL     1      -0.934  13.343  20.128  0.00  0.00    +0.000 C 
ATOM     25  C   UNL     1       0.518  13.060  20.430  0.00  0.00    +0.000 C 
ATOM     26  O   UNL     1       0.569  12.504  21.742  0.00  0.00    +0.000 OA
ENDBRANCH  21  22
ENDBRANCH  19  21
ENDBRANCH  16  17
ENDBRANCH  15  16
ENDBRANCH   6  15
TORSDOF 7
ENDMDL
