MODEL 1
REMARK VINA RESULT:      -8.8      0.000      0.000
REMARK  Name = 
REMARK  6 active torsions:
REMARK  status: ('A' for Active; 'I' for Inactive)
REMARK    1  A    between atoms: N_3  and  C_4
REMARK    2  A    between atoms: C_7  and  C_8
REMARK    3  A    between atoms: C_11  and  C_12
REMARK    4  A    between atoms: C_15  and  N_16
REMARK    5  A    between atoms: N_19  and  C_20
REMARK    6  A    between atoms: N_30  and  C_31
REMARK                            x       y       z     vdW  Elec       q    Type
REMARK                         _______ _______ _______ _____ _____    ______ ____
ROOT
ATOM      1  C   UNL     1       2.606   6.864  19.099  0.00  0.00    +0.000 A 
ATOM      2  C   UNL     1       2.207   6.134  20.205  0.00  0.00    +0.000 A 
ATOM      3  C   UNL     1       1.308   6.853  21.033  0.00  0.00    +0.000 A 
ATOM      4  C   UNL     1       1.113   8.137  20.608  0.00  0.00    +0.000 A 
ATOM      5  S   UNL     1       1.909   8.418  19.114  0.00  0.00    +0.000 S 
ENDROOT
BRANCH   1   9
ATOM      6  C   UNL     1       5.408   5.798  16.023  0.00  0.00    +0.000 A 
ATOM      7  C   UNL     1       4.950   4.827  16.933  0.00  0.00    +0.000 A 
ATOM      8  C   UNL     1       4.014   5.153  17.927  0.00  0.00    +0.000 A 
ATOM      9  C   UNL     1       3.510   6.454  18.024  0.00  0.00    +0.000 A 
ATOM     10  C   UNL     1       3.925   7.406  17.087  0.00  0.00    +0.000 A 
ATOM     11  C   UNL     1       4.837   7.075  16.082  0.00  0.00    +0.000 A 
BRANCH   6  14
ATOM     12  N   UNL     1       6.019   3.157  14.647  0.00  0.00    +0.000 NA
ATOM     13  C   UNL     1       6.446   4.305  14.317  0.00  0.00    +0.000 C 
ATOM     14  N   UNL     1       6.405   5.439  15.091  0.00  0.00    +0.000 N 
ATOM     15  N   UNL     1       7.001   4.502  13.070  0.00  0.00    +0.000 N 
ATOM     16  H   UNL     1       5.630   3.222  15.610  0.00  0.00    +0.000 HD
ATOM     17  H   UNL     1       7.135   6.116  14.996  0.00  0.00    +0.000 HD
ATOM     18  H   UNL     1       7.775   5.101  13.016  0.00  0.00    +0.000 HD
BRANCH  15  19
ATOM     19  C   UNL     1       6.696   3.685  11.901  0.00  0.00    +0.000 C 
ATOM     20  C   UNL     1       7.710   2.533  11.803  0.00  0.00    +0.000 C 
ATOM     21  C   UNL     1       7.038   1.540  10.862  0.00  0.00    +0.000 C 
ATOM     22  C   UNL     1       5.540   1.700  11.109  0.00  0.00    +0.000 C 
ATOM     23  C   UNL     1       5.381   2.921  12.022  0.00  0.00    +0.000 C 
ENDBRANCH  15  19
ENDBRANCH   6  14
ENDBRANCH   1   9
BRANCH   4  24
ATOM     24  C   UNL     1       0.377   9.226  21.249  0.00  0.00    +0.000 A 
ATOM     25  C   UNL     1      -0.084   9.159  22.575  0.00  0.00    +0.000 A 
ATOM     26  C   UNL     1      -0.710  10.286  23.170  0.00  0.00    +0.000 A 
ATOM     27  C   UNL     1      -0.963  11.460  22.441  0.00  0.00    +0.000 A 
ATOM     28  C   UNL     1      -0.616  11.404  21.088  0.00  0.00    +0.000 A 
ATOM     29  C   UNL     1       0.110  10.363  20.527  0.00  0.00    +0.000 A 
BRANCH  27  30
ATOM     30  N   UNL     1      -1.393  12.657  23.087  0.00  0.00    +0.000 N 
ATOM     31  C   UNL     1      -2.685  13.101  23.294  0.00  0.00    +0.000 C 
ATOM     32  N   UNL     1      -3.775  12.404  23.317  0.00  0.00    +0.000 NA
ATOM     33  N   UNL     1      -2.871  14.463  23.403  0.00  0.00    +0.000 N 
ATOM     34  H   UNL     1      -0.635  13.240  23.428  0.00  0.00    +0.000 HD
ATOM     35  H   UNL     1      -3.562  11.461  23.053  0.00  0.00    +0.000 HD
ATOM     36  H   UNL     1      -2.105  15.084  23.226  0.00  0.00    +0.000 HD
BRANCH  33  37
ATOM     37  C   UNL     1      -4.036  15.028  24.112  0.00  0.00    +0.000 C 
ATOM     38  C   UNL     1      -3.646  16.312  24.848  0.00  0.00    +0.000 C 
ATOM     39  C   UNL     1      -4.972  17.025  25.117  0.00  0.00    +0.000 C 
ATOM     40  C   UNL     1      -5.895  16.639  23.973  0.00  0.00    +0.000 C 
ATOM     41  C   UNL     1      -5.150  15.554  23.193  0.00  0.00    +0.000 C 
ENDBRANCH  33  37
ENDBRANCH  27  30
ENDBRANCH   4  24
TORSDOF 6
ENDMDL
MODEL 2
REMARK VINA RESULT:      -8.6      0.483      1.155
REMARK  Name = 
REMARK  6 active torsions:
REMARK  status: ('A' for Active; 'I' for Inactive)
REMARK    1  A    between atoms: N_3  and  C_4
REMARK    2  A    between atoms: C_7  and  C_8
REMARK    3  A    between atoms: C_11  and  C_12
REMARK    4  A    between atoms: C_15  and  N_16
REMARK    5  A    between atoms: N_19  and  C_20
REMARK    6  A    between atoms: N_30  and  C_31
REMARK                            x       y       z     vdW  Elec       q    Type
REMARK                         _______ _______ _______ _____ _____    ______ ____
ROOT
ATOM      1  C   UNL     1       2.456   7.079  19.233  0.00  0.00    +0.000 A 
ATOM      2  C   UNL     1       2.003   6.307  20.289  0.00  0.00    +0.000 A 
ATOM      3  C   UNL     1       1.059   6.992  21.094  0.00  0.00    +0.000 A 
ATOM      4  C   UNL     1       0.880   8.291  20.708  0.00  0.00    +0.000 A 
ATOM      5  S   UNL     1       1.752   8.629  19.269  0.00  0.00    +0.000 S 
ENDROOT
BRANCH   1   9
ATOM      6  C   UNL     1       5.111   5.898  16.070  0.00  0.00    +0.000 A 
ATOM      7  C   UNL     1       4.881   7.261  16.331  0.00  0.00    +0.000 A 
ATOM      8  C   UNL     1       4.038   7.664  17.378  0.00  0.00    +0.000 A 
ATOM      9  C   UNL     1       3.416   6.711  18.192  0.00  0.00    +0.000 A 
ATOM     10  C   UNL     1       3.685   5.358  17.965  0.00  0.00    +0.000 A 
ATOM     11  C   UNL     1       4.544   4.958  16.939  0.00  0.00    +0.000 A 
BRANCH   6  14
ATOM     12  N   UNL     1       6.653   3.357  15.429  0.00  0.00    +0.000 NA
ATOM     13  C   UNL     1       6.344   4.286  14.622  0.00  0.00    +0.000 C 
ATOM     14  N   UNL     1       5.906   5.543  14.960  0.00  0.00    +0.000 N 
ATOM     15  N   UNL     1       6.417   4.069  13.262  0.00  0.00    +0.000 N 
ATOM     16  H   UNL     1       6.517   3.714  16.398  0.00  0.00    +0.000 HD
ATOM     17  H   UNL     1       6.144   6.313  14.367  0.00  0.00    +0.000 HD
ATOM     18  H   UNL     1       6.739   4.811  12.709  0.00  0.00    +0.000 HD
BRANCH  15  19
ATOM     19  C   UNL     1       6.315   2.755  12.637  0.00  0.00    +0.000 C 
ATOM     20  C   UNL     1       5.057   2.703  11.755  0.00  0.00    +0.000 C 
ATOM     21  C   UNL     1       5.304   1.507  10.843  0.00  0.00    +0.000 C 
ATOM     22  C   UNL     1       6.817   1.456  10.646  0.00  0.00    +0.000 C 
ATOM     23  C   UNL     1       7.414   2.484  11.613  0.00  0.00    +0.000 C 
ENDBRANCH  15  19
ENDBRANCH   6  14
ENDBRANCH   1   9
BRANCH   4  24
ATOM     24  C   UNL     1       0.108   9.353  21.351  0.00  0.00    +0.000 A 
ATOM     25  C   UNL     1      -0.293   9.299  22.696  0.00  0.00    +0.000 A 
ATOM     26  C   UNL     1      -0.960  10.405  23.287  0.00  0.00    +0.000 A 
ATOM     27  C   UNL     1      -1.314  11.539  22.538  0.00  0.00    +0.000 A 
ATOM     28  C   UNL     1      -1.021  11.463  21.173  0.00  0.00    +0.000 A 
ATOM     29  C   UNL     1      -0.257  10.450  20.609  0.00  0.00    +0.000 A 
BRANCH  27  30
ATOM     30  N   UNL     1      -1.787  12.727  23.169  0.00  0.00    +0.000 N 
ATOM     31  C   UNL     1      -3.082  13.207  23.227  0.00  0.00    +0.000 C 
ATOM     32  N   UNL     1      -4.185  12.547  23.086  0.00  0.00    +0.000 NA
ATOM     33  N   UNL     1      -3.241  14.571  23.362  0.00  0.00    +0.000 N 
ATOM     34  H   UNL     1      -1.063  13.273  23.624  0.00  0.00    +0.000 HD
ATOM     35  H   UNL     1      -3.968  11.607  22.816  0.00  0.00    +0.000 HD
ATOM     36  H   UNL     1      -2.440  15.171  23.307  0.00  0.00    +0.000 HD
BRANCH  33  37
ATOM     37  C   UNL     1      -4.469  15.151  23.939  0.00  0.00    +0.000 C 
ATOM     38  C   UNL     1      -4.141  16.403  24.755  0.00  0.00    +0.000 C 
ATOM     39  C   UNL     1      -5.472  17.146  24.880  0.00  0.00    +0.000 C 
ATOM     40  C   UNL     1      -6.256  16.817  23.620  0.00  0.00    +0.000 C 
ATOM     41  C   UNL     1      -5.447  15.732  22.906  0.00  0.00    +0.000 C 
ENDBRANCH  33  37
ENDBRANCH  27  30
ENDBRANCH   4  24
TORSDOF 6
ENDMDL
MODEL 3
REMARK VINA RESULT:      -8.1      0.829      1.532
REMARK  Name = 
REMARK  6 active torsions:
REMARK  status: ('A' for Active; 'I' for Inactive)
REMARK    1  A    between atoms: N_3  and  C_4
REMARK    2  A    between atoms: C_7  and  C_8
REMARK    3  A    between atoms: C_11  and  C_12
REMARK    4  A    between atoms: C_15  and  N_16
REMARK    5  A    between atoms: N_19  and  C_20
REMARK    6  A    between atoms: N_30  and  C_31
REMARK                            x       y       z     vdW  Elec       q    Type
REMARK                         _______ _______ _______ _____ _____    ______ ____
ROOT
ATOM      1  C   UNL     1       2.775   6.790  19.061  0.00  0.00    +0.000 A 
ATOM      2  C   UNL     1       2.163   5.970  19.992  0.00  0.00    +0.000 A 
ATOM      3  C   UNL     1       1.214   6.663  20.784  0.00  0.00    +0.000 A 
ATOM      4  C   UNL     1       1.185   8.003  20.519  0.00  0.00    +0.000 A 
ATOM      5  S   UNL     1       2.210   8.390  19.197  0.00  0.00    +0.000 S 
ENDROOT
BRANCH   1   9
ATOM      6  C   UNL     1       5.595   5.739  15.995  0.00  0.00    +0.000 A 
ATOM      7  C   UNL     1       5.741   6.941  16.712  0.00  0.00    +0.000 A 
ATOM      8  C   UNL     1       4.845   7.287  17.735  0.00  0.00    +0.000 A 
ATOM      9  C   UNL     1       3.789   6.431  18.069  0.00  0.00    +0.000 A 
ATOM     10  C   UNL     1       3.674   5.212  17.392  0.00  0.00    +0.000 A 
ATOM     11  C   UNL     1       4.582   4.858  16.391  0.00  0.00    +0.000 A 
BRANCH   6  14
ATOM     12  N   UNL     1       6.314   3.148  14.578  0.00  0.00    +0.000 NA
ATOM     13  C   UNL     1       6.542   4.328  14.171  0.00  0.00    +0.000 C 
ATOM     14  N   UNL     1       6.477   5.473  14.926  0.00  0.00    +0.000 N 
ATOM     15  N   UNL     1       6.874   4.550  12.851  0.00  0.00    +0.000 N 
ATOM     16  H   UNL     1       6.069   3.197  15.588  0.00  0.00    +0.000 HD
ATOM     17  H   UNL     1       7.095   6.229  14.712  0.00  0.00    +0.000 HD
ATOM     18  H   UNL     1       7.551   5.235  12.671  0.00  0.00    +0.000 HD
BRANCH  15  19
ATOM     19  C   UNL     1       6.501   3.664  11.754  0.00  0.00    +0.000 C 
ATOM     20  C   UNL     1       7.495   2.494  11.679  0.00  0.00    +0.000 C 
ATOM     21  C   UNL     1       6.764   1.453  10.839  0.00  0.00    +0.000 C 
ATOM     22  C   UNL     1       5.283   1.651  11.150  0.00  0.00    +0.000 C 
ATOM     23  C   UNL     1       5.184   2.930  11.989  0.00  0.00    +0.000 C 
ENDBRANCH  15  19
ENDBRANCH   6  14
ENDBRANCH   1   9
BRANCH   4  24
ATOM     24  C   UNL     1       0.454   9.070  21.201  0.00  0.00    +0.000 A 
ATOM     25  C   UNL     1       0.332  10.368  20.677  0.00  0.00    +0.000 A 
ATOM     26  C   UNL     1      -0.470  11.333  21.343  0.00  0.00    +0.000 A 
ATOM     27  C   UNL     1      -1.090  11.056  22.572  0.00  0.00    +0.000 A 
ATOM     28  C   UNL     1      -0.804   9.797  23.110  0.00  0.00    +0.000 A 
ATOM     29  C   UNL     1      -0.132   8.803  22.414  0.00  0.00    +0.000 A 
BRANCH  27  30
ATOM     30  N   UNL     1      -2.060  11.940  23.131  0.00  0.00    +0.000 N 
ATOM     31  C   UNL     1      -3.036  12.666  22.473  0.00  0.00    +0.000 C 
ATOM     32  N   UNL     1      -3.551  12.438  21.309  0.00  0.00    +0.000 NA
ATOM     33  N   UNL     1      -3.463  13.832  23.073  0.00  0.00    +0.000 N 
ATOM     34  H   UNL     1      -2.005  12.033  24.140  0.00  0.00    +0.000 HD
ATOM     35  H   UNL     1      -3.056  11.681  20.877  0.00  0.00    +0.000 HD
ATOM     36  H   UNL     1      -2.992  14.170  23.891  0.00  0.00    +0.000 HD
BRANCH  33  37
ATOM     37  C   UNL     1      -4.791  14.407  22.784  0.00  0.00    +0.000 C 
ATOM     38  C   UNL     1      -5.887  13.620  23.506  0.00  0.00    +0.000 C 
ATOM     39  C   UNL     1      -7.094  14.559  23.523  0.00  0.00    +0.000 C 
ATOM     40  C   UNL     1      -6.527  15.969  23.567  0.00  0.00    +0.000 C 
ATOM     41  C   UNL     1      -5.019  15.812  23.363  0.00  0.00    +0.000 C 
ENDBRANCH  33  37
ENDBRANCH  27  30
ENDBRANCH   4  24
TORSDOF 6
ENDMDL
MODEL 4
REMARK VINA RESULT:      -7.9      0.641      1.154
REMARK  Name = 
REMARK  6 active torsions:
REMARK  status: ('A' for Active; 'I' for Inactive)
REMARK    1  A    between atoms: N_3  and  C_4
REMARK    2  A    between atoms: C_7  and  C_8
REMARK    3  A    between atoms: C_11  and  C_12
REMARK    4  A    between atoms: C_15  and  N_16
REMARK    5  A    between atoms: N_19  and  C_20
REMARK    6  A    between atoms: N_30  and  C_31
REMARK                            x       y       z     vdW  Elec       q    Type
REMARK                         _______ _______ _______ _____ _____    ______ ____
ROOT
ATOM      1  C   UNL     1       2.588   6.954  19.179  0.00  0.00    +0.000 A 
ATOM      2  C   UNL     1       2.186   6.236  20.291  0.00  0.00    +0.000 A 
ATOM      3  C   UNL     1       1.278   6.961  21.104  0.00  0.00    +0.000 A 
ATOM      4  C   UNL     1       1.078   8.238  20.661  0.00  0.00    +0.000 A 
ATOM      5  S   UNL     1       1.883   8.504  19.168  0.00  0.00    +0.000 S 
ENDROOT
BRANCH   1   9
ATOM      6  C   UNL     1       5.403   5.882  16.116  0.00  0.00    +0.000 A 
ATOM      7  C   UNL     1       5.075   4.964  17.131  0.00  0.00    +0.000 A 
ATOM      8  C   UNL     1       4.137   5.288  18.123  0.00  0.00    +0.000 A 
ATOM      9  C   UNL     1       3.501   6.534  18.114  0.00  0.00    +0.000 A 
ATOM     10  C   UNL     1       3.788   7.427  17.076  0.00  0.00    +0.000 A 
ATOM     11  C   UNL     1       4.702   7.094  16.075  0.00  0.00    +0.000 A 
BRANCH   6  14
ATOM     12  N   UNL     1       6.039   3.256  14.723  0.00  0.00    +0.000 NA
ATOM     13  C   UNL     1       6.460   4.409  14.404  0.00  0.00    +0.000 C 
ATOM     14  N   UNL     1       6.406   5.538  15.186  0.00  0.00    +0.000 N 
ATOM     15  N   UNL     1       7.019   4.620  13.161  0.00  0.00    +0.000 N 
ATOM     16  H   UNL     1       5.645   3.311  15.685  0.00  0.00    +0.000 HD
ATOM     17  H   UNL     1       7.133   6.220  15.100  0.00  0.00    +0.000 HD
ATOM     18  H   UNL     1       7.788   5.224  13.115  0.00  0.00    +0.000 HD
BRANCH  15  19
ATOM     19  C   UNL     1       6.725   3.809  11.984  0.00  0.00    +0.000 C 
ATOM     20  C   UNL     1       7.722   2.641  11.905  0.00  0.00    +0.000 C 
ATOM     21  C   UNL     1       7.054   1.660  10.949  0.00  0.00    +0.000 C 
ATOM     22  C   UNL     1       5.554   1.844  11.166  0.00  0.00    +0.000 C 
ATOM     23  C   UNL     1       5.395   3.066  12.077  0.00  0.00    +0.000 C 
ENDBRANCH  15  19
ENDBRANCH   6  14
ENDBRANCH   1   9
BRANCH   4  24
ATOM     24  C   UNL     1       0.333   9.331  21.284  0.00  0.00    +0.000 A 
ATOM     25  C   UNL     1       0.044  10.534  20.618  0.00  0.00    +0.000 A 
ATOM     26  C   UNL     1      -0.764  11.520  21.245  0.00  0.00    +0.000 A 
ATOM     27  C   UNL     1      -1.224  11.367  22.563  0.00  0.00    +0.000 A 
ATOM     28  C   UNL     1      -0.774  10.217  23.219  0.00  0.00    +0.000 A 
ATOM     29  C   UNL     1      -0.095   9.188  22.581  0.00  0.00    +0.000 A 
BRANCH  27  30
ATOM     30  N   UNL     1      -2.203  12.246  23.115  0.00  0.00    +0.000 N 
ATOM     31  C   UNL     1      -2.687  13.428  22.585  0.00  0.00    +0.000 C 
ATOM     32  N   UNL     1      -2.678  13.811  21.350  0.00  0.00    +0.000 NA
ATOM     33  N   UNL     1      -3.159  14.368  23.476  0.00  0.00    +0.000 N 
ATOM     34  H   UNL     1      -2.575  11.945  24.009  0.00  0.00    +0.000 HD
ATOM     35  H   UNL     1      -2.159  13.148  20.808  0.00  0.00    +0.000 HD
ATOM     36  H   UNL     1      -3.043  14.221  24.462  0.00  0.00    +0.000 HD
BRANCH  33  37
ATOM     37  C   UNL     1      -4.137  15.395  23.068  0.00  0.00    +0.000 C 
ATOM     38  C   UNL     1      -5.325  15.422  24.033  0.00  0.00    +0.000 C 
ATOM     39  C   UNL     1      -5.986  16.781  23.799  0.00  0.00    +0.000 C 
ATOM     40  C   UNL     1      -4.868  17.726  23.390  0.00  0.00    +0.000 C 
ATOM     41  C   UNL     1      -3.634  16.842  23.195  0.00  0.00    +0.000 C 
ENDBRANCH  33  37
ENDBRANCH  27  30
ENDBRANCH   4  24
TORSDOF 6
ENDMDL
MODEL 5
REMARK VINA RESULT:      -7.8      1.242      1.779
REMARK  Name = 
REMARK  6 active torsions:
REMARK  status: ('A' for Active; 'I' for Inactive)
REMARK    1  A    between atoms: N_3  and  C_4
REMARK    2  A    between atoms: C_7  and  C_8
REMARK    3  A    between atoms: C_11  and  C_12
REMARK    4  A    between atoms: C_15  and  N_16
REMARK    5  A    between atoms: N_19  and  C_20
REMARK    6  A    between atoms: N_30  and  C_31
REMARK                            x       y       z     vdW  Elec       q    Type
REMARK                         _______ _______ _______ _____ _____    ______ ____
ROOT
ATOM      1  C   UNL     1       2.527   7.167  19.506  0.00  0.00    +0.000 A 
ATOM      2  C   UNL     1       1.939   6.442  20.528  0.00  0.00    +0.000 A 
ATOM      3  C   UNL     1       0.946   7.184  21.216  0.00  0.00    +0.000 A 
ATOM      4  C   UNL     1       0.859   8.477  20.783  0.00  0.00    +0.000 A 
ATOM      5  S   UNL     1       1.885   8.743  19.432  0.00  0.00    +0.000 S 
ENDROOT
BRANCH   1   9
ATOM      6  C   UNL     1       5.485   5.711  16.753  0.00  0.00    +0.000 A 
ATOM      7  C   UNL     1       4.743   6.868  16.451  0.00  0.00    +0.000 A 
ATOM      8  C   UNL     1       3.793   7.373  17.351  0.00  0.00    +0.000 A 
ATOM      9  C   UNL     1       3.571   6.735  18.577  0.00  0.00    +0.000 A 
ATOM     10  C   UNL     1       4.345   5.615  18.899  0.00  0.00    +0.000 A 
ATOM     11  C   UNL     1       5.309   5.129  18.014  0.00  0.00    +0.000 A 
BRANCH   6  14
ATOM     12  N   UNL     1       5.362   3.211  15.026  0.00  0.00    +0.000 NA
ATOM     13  C   UNL     1       6.118   4.216  14.860  0.00  0.00    +0.000 C 
ATOM     14  N   UNL     1       6.374   5.201  15.783  0.00  0.00    +0.000 N 
ATOM     15  N   UNL     1       6.761   4.404  13.654  0.00  0.00    +0.000 N 
ATOM     16  H   UNL     1       4.967   3.261  15.987  0.00  0.00    +0.000 HD
ATOM     17  H   UNL     1       7.273   5.639  15.786  0.00  0.00    +0.000 HD
ATOM     18  H   UNL     1       7.677   4.751  13.686  0.00  0.00    +0.000 HD
BRANCH  15  19
ATOM     19  C   UNL     1       6.284   3.873  12.382  0.00  0.00    +0.000 C 
ATOM     20  C   UNL     1       6.621   2.376  12.293  0.00  0.00    +0.000 C 
ATOM     21  C   UNL     1       5.707   1.865  11.185  0.00  0.00    +0.000 C 
ATOM     22  C   UNL     1       4.453   2.731  11.265  0.00  0.00    +0.000 C 
ATOM     23  C   UNL     1       4.762   3.848  12.269  0.00  0.00    +0.000 C 
ENDBRANCH  15  19
ENDBRANCH   6  14
ENDBRANCH   1   9
BRANCH   4  24
ATOM     24  C   UNL     1       0.069   9.584  21.317  0.00  0.00    +0.000 A 
ATOM     25  C   UNL     1      -0.228  10.740  20.574  0.00  0.00    +0.000 A 
ATOM     26  C   UNL     1      -1.079  11.738  21.117  0.00  0.00    +0.000 A 
ATOM     27  C   UNL     1      -1.578  11.650  22.427  0.00  0.00    +0.000 A 
ATOM     28  C   UNL     1      -1.122  10.551  23.162  0.00  0.00    +0.000 A 
ATOM     29  C   UNL     1      -0.398   9.505  22.606  0.00  0.00    +0.000 A 
BRANCH  27  30
ATOM     30  N   UNL     1      -2.595  12.534  22.896  0.00  0.00    +0.000 N 
ATOM     31  C   UNL     1      -3.787  12.868  22.282  0.00  0.00    +0.000 C 
ATOM     32  N   UNL     1      -4.434  12.204  21.380  0.00  0.00    +0.000 NA
ATOM     33  N   UNL     1      -4.326  14.100  22.587  0.00  0.00    +0.000 N 
ATOM     34  H   UNL     1      -2.393  12.960  23.794  0.00  0.00    +0.000 HD
ATOM     35  H   UNL     1      -3.880  11.420  21.095  0.00  0.00    +0.000 HD
ATOM     36  H   UNL     1      -3.801  14.748  23.145  0.00  0.00    +0.000 HD
BRANCH  33  37
ATOM     37  C   UNL     1      -5.770  14.369  22.438  0.00  0.00    +0.000 C 
ATOM     38  C   UNL     1      -6.390  14.744  23.786  0.00  0.00    +0.000 C 
ATOM     39  C   UNL     1      -7.705  15.439  23.430  0.00  0.00    +0.000 C 
ATOM     40  C   UNL     1      -7.472  16.116  22.090  0.00  0.00    +0.000 C 
ATOM     41  C   UNL     1      -6.105  15.621  21.612  0.00  0.00    +0.000 C 
ENDBRANCH  33  37
ENDBRANCH  27  30
ENDBRANCH   4  24
TORSDOF 6
ENDMDL
MODEL 6
REMARK VINA RESULT:      -7.4      0.718      1.271
REMARK  Name = 
REMARK  6 active torsions:
REMARK  status: ('A' for Active; 'I' for Inactive)
REMARK    1  A    between atoms: N_3  and  C_4
REMARK    2  A    between atoms: C_7  and  C_8
REMARK    3  A    between atoms: C_11  and  C_12
REMARK    4  A    between atoms: C_15  and  N_16
REMARK    5  A    between atoms: N_19  and  C_20
REMARK    6  A    between atoms: N_30  and  C_31
REMARK                            x       y       z     vdW  Elec       q    Type
REMARK                         _______ _______ _______ _____ _____    ______ ____
ROOT
ATOM      1  C   UNL     1       2.635   7.161  19.007  0.00  0.00    +0.000 A 
ATOM      2  C   UNL     1       2.248   6.511  20.166  0.00  0.00    +0.000 A 
ATOM      3  C   UNL     1       1.346   7.282  20.942  0.00  0.00    +0.000 A 
ATOM      4  C   UNL     1       1.137   8.529  20.425  0.00  0.00    +0.000 A 
ATOM      5  S   UNL     1       1.924   8.705  18.910  0.00  0.00    +0.000 S 
ENDROOT
BRANCH   1   9
ATOM      6  C   UNL     1       5.443   5.868  16.024  0.00  0.00    +0.000 A 
ATOM      7  C   UNL     1       4.845   4.932  16.889  0.00  0.00    +0.000 A 
ATOM      8  C   UNL     1       3.906   5.334  17.851  0.00  0.00    +0.000 A 
ATOM      9  C   UNL     1       3.537   6.680  17.960  0.00  0.00    +0.000 A 
ATOM     10  C   UNL     1       4.092   7.601  17.066  0.00  0.00    +0.000 A 
ATOM     11  C   UNL     1       5.008   7.197  16.093  0.00  0.00    +0.000 A 
BRANCH   6  14
ATOM     12  N   UNL     1       5.887   3.177  14.681  0.00  0.00    +0.000 NA
ATOM     13  C   UNL     1       6.413   4.285  14.360  0.00  0.00    +0.000 C 
ATOM     14  N   UNL     1       6.437   5.425  15.126  0.00  0.00    +0.000 N 
ATOM     15  N   UNL     1       7.020   4.429  13.129  0.00  0.00    +0.000 N 
ATOM     16  H   UNL     1       5.474   3.280  15.631  0.00  0.00    +0.000 HD
ATOM     17  H   UNL     1       7.221   6.041  15.051  0.00  0.00    +0.000 HD
ATOM     18  H   UNL     1       7.840   4.965  13.097  0.00  0.00    +0.000 HD
BRANCH  15  19
ATOM     19  C   UNL     1       6.689   3.630  11.955  0.00  0.00    +0.000 C 
ATOM     20  C   UNL     1       7.674   2.455  11.840  0.00  0.00    +0.000 C 
ATOM     21  C   UNL     1       6.972   1.487  10.895  0.00  0.00    +0.000 C 
ATOM     22  C   UNL     1       5.480   1.680  11.154  0.00  0.00    +0.000 C 
ATOM     23  C   UNL     1       5.356   2.897  12.078  0.00  0.00    +0.000 C 
ENDBRANCH  15  19
ENDBRANCH   6  14
ENDBRANCH   1   9
BRANCH   4  24
ATOM     24  C   UNL     1       0.395   9.656  20.988  0.00  0.00    +0.000 A 
ATOM     25  C   UNL     1       0.083  10.810  20.250  0.00  0.00    +0.000 A 
ATOM     26  C   UNL     1      -0.721  11.829  20.825  0.00  0.00    +0.000 A 
ATOM     27  C   UNL     1      -1.155  11.761  22.159  0.00  0.00    +0.000 A 
ATOM     28  C   UNL     1      -0.683  10.661  22.881  0.00  0.00    +0.000 A 
ATOM     29  C   UNL     1      -0.008   9.597  22.299  0.00  0.00    +0.000 A 
BRANCH  27  30
ATOM     30  N   UNL     1      -2.130  12.669  22.670  0.00  0.00    +0.000 N 
ATOM     31  C   UNL     1      -1.957  13.677  23.599  0.00  0.00    +0.000 C 
ATOM     32  N   UNL     1      -0.862  14.284  23.923  0.00  0.00    +0.000 NA
ATOM     33  N   UNL     1      -3.057  14.035  24.349  0.00  0.00    +0.000 N 
ATOM     34  H   UNL     1      -3.061  12.535  22.288  0.00  0.00    +0.000 HD
ATOM     35  H   UNL     1      -0.094  13.838  23.459  0.00  0.00    +0.000 HD
ATOM     36  H   UNL     1      -3.901  13.497  24.281  0.00  0.00    +0.000 HD
BRANCH  33  37
ATOM     37  C   UNL     1      -3.168  15.370  24.969  0.00  0.00    +0.000 C 
ATOM     38  C   UNL     1      -2.322  16.390  24.203  0.00  0.00    +0.000 C 
ATOM     39  C   UNL     1      -2.880  17.751  24.622  0.00  0.00    +0.000 C 
ATOM     40  C   UNL     1      -4.355  17.528  24.913  0.00  0.00    +0.000 C 
ATOM     41  C   UNL     1      -4.560  16.013  24.858  0.00  0.00    +0.000 C 
ENDBRANCH  33  37
ENDBRANCH  27  30
ENDBRANCH   4  24
TORSDOF 6
ENDMDL
MODEL 7
REMARK VINA RESULT:      -7.3      1.979      2.729
REMARK  Name = 
REMARK  6 active torsions:
REMARK  status: ('A' for Active; 'I' for Inactive)
REMARK    1  A    between atoms: N_3  and  C_4
REMARK    2  A    between atoms: C_7  and  C_8
REMARK    3  A    between atoms: C_11  and  C_12
REMARK    4  A    between atoms: C_15  and  N_16
REMARK    5  A    between atoms: N_19  and  C_20
REMARK    6  A    between atoms: N_30  and  C_31
REMARK                            x       y       z     vdW  Elec       q    Type
REMARK                         _______ _______ _______ _____ _____    ______ ____
ROOT
ATOM      1  C   UNL     1       1.657   8.043  19.894  0.00  0.00    +0.000 A 
ATOM      2  C   UNL     1       1.290   7.884  21.219  0.00  0.00    +0.000 A 
ATOM      3  C   UNL     1       0.235   8.753  21.596  0.00  0.00    +0.000 A 
ATOM      4  C   UNL     1      -0.117   9.618  20.599  0.00  0.00    +0.000 A 
ATOM      5  S   UNL     1       0.737   9.269  19.152  0.00  0.00    +0.000 S 
ENDROOT
BRANCH   1   9
ATOM      6  C   UNL     1       4.806   6.103  17.710  0.00  0.00    +0.000 A 
ATOM      7  C   UNL     1       4.434   5.635  18.983  0.00  0.00    +0.000 A 
ATOM      8  C   UNL     1       3.389   6.240  19.698  0.00  0.00    +0.000 A 
ATOM      9  C   UNL     1       2.689   7.320  19.149  0.00  0.00    +0.000 A 
ATOM     10  C   UNL     1       3.024   7.752  17.862  0.00  0.00    +0.000 A 
ATOM     11  C   UNL     1       4.047   7.133  17.140  0.00  0.00    +0.000 A 
BRANCH   6  14
ATOM     12  N   UNL     1       5.166   3.360  16.449  0.00  0.00    +0.000 NA
ATOM     13  C   UNL     1       5.907   4.376  16.288  0.00  0.00    +0.000 C 
ATOM     14  N   UNL     1       5.912   5.510  17.064  0.00  0.00    +0.000 N 
ATOM     15  N   UNL     1       6.805   4.416  15.241  0.00  0.00    +0.000 N 
ATOM     16  H   UNL     1       4.557   3.534  17.275  0.00  0.00    +0.000 HD
ATOM     17  H   UNL     1       6.771   6.005  17.192  0.00  0.00    +0.000 HD
ATOM     18  H   UNL     1       7.677   4.826  15.417  0.00  0.00    +0.000 HD
BRANCH  15  19
ATOM     19  C   UNL     1       6.652   3.658  14.004  0.00  0.00    +0.000 C 
ATOM     20  C   UNL     1       5.228   3.851  13.458  0.00  0.00    +0.000 C 
ATOM     21  C   UNL     1       5.336   3.413  12.002  0.00  0.00    +0.000 C 
ATOM     22  C   UNL     1       6.759   3.768  11.579  0.00  0.00    +0.000 C 
ATOM     23  C   UNL     1       7.494   4.202  12.853  0.00  0.00    +0.000 C 
ENDBRANCH  15  19
ENDBRANCH   6  14
ENDBRANCH   1   9
BRANCH   4  24
ATOM     24  C   UNL     1      -1.052  10.741  20.631  0.00  0.00    +0.000 A 
ATOM     25  C   UNL     1      -1.463  11.359  21.825  0.00  0.00    +0.000 A 
ATOM     26  C   UNL     1      -2.300  12.505  21.783  0.00  0.00    +0.000 A 
ATOM     27  C   UNL     1      -2.808  13.005  20.573  0.00  0.00    +0.000 A 
ATOM     28  C   UNL     1      -2.484  12.253  19.439  0.00  0.00    +0.000 A 
ATOM     29  C   UNL     1      -1.566  11.212  19.448  0.00  0.00    +0.000 A 
BRANCH  27  30
ATOM     30  N   UNL     1      -3.467  14.268  20.509  0.00  0.00    +0.000 N 
ATOM     31  C   UNL     1      -4.787  14.561  20.796  0.00  0.00    +0.000 C 
ATOM     32  N   UNL     1      -5.610  13.891  21.535  0.00  0.00    +0.000 NA
ATOM     33  N   UNL     1      -5.343  15.648  20.155  0.00  0.00    +0.000 N 
ATOM     34  H   UNL     1      -2.870  15.033  20.211  0.00  0.00    +0.000 HD
ATOM     35  H   UNL     1      -5.174  13.032  21.810  0.00  0.00    +0.000 HD
ATOM     36  H   UNL     1      -4.826  16.118  19.436  0.00  0.00    +0.000 HD
BRANCH  33  37
ATOM     37  C   UNL     1      -6.503  16.365  20.718  0.00  0.00    +0.000 C 
ATOM     38  C   UNL     1      -6.330  16.567  22.226  0.00  0.00    +0.000 C 
ATOM     39  C   UNL     1      -7.305  17.690  22.582  0.00  0.00    +0.000 C 
ATOM     40  C   UNL     1      -7.398  18.573  21.349  0.00  0.00    +0.000 C 
ATOM     41  C   UNL     1      -6.641  17.823  20.250  0.00  0.00    +0.000 C 
ENDBRANCH  33  37
ENDBRANCH  27  30
ENDBRANCH   4  24
TORSDOF 6
ENDMDL
MODEL 8
REMARK VINA RESULT:      -7.3      0.872      1.564
REMARK  Name = 
REMARK  6 active torsions:
REMARK  status: ('A' for Active; 'I' for Inactive)
REMARK    1  A    between atoms: N_3  and  C_4
REMARK    2  A    between atoms: C_7  and  C_8
REMARK    3  A    between atoms: C_11  and  C_12
REMARK    4  A    between atoms: C_15  and  N_16
REMARK    5  A    between atoms: N_19  and  C_20
REMARK    6  A    between atoms: N_30  and  C_31
REMARK                            x       y       z     vdW  Elec       q    Type
REMARK                         _______ _______ _______ _____ _____    ______ ____
ROOT
ATOM      1  C   UNL     1       2.794   6.988  19.138  0.00  0.00    +0.000 A 
ATOM      2  C   UNL     1       2.231   6.229  20.149  0.00  0.00    +0.000 A 
ATOM      3  C   UNL     1       1.234   6.936  20.866  0.00  0.00    +0.000 A 
ATOM      4  C   UNL     1       1.119   8.237  20.465  0.00  0.00    +0.000 A 
ATOM      5  S   UNL     1       2.124   8.553  19.109  0.00  0.00    +0.000 S 
ENDROOT
BRANCH   1   9
ATOM      6  C   UNL     1       5.709   5.696  16.260  0.00  0.00    +0.000 A 
ATOM      7  C   UNL     1       5.260   7.029  16.266  0.00  0.00    +0.000 A 
ATOM      8  C   UNL     1       4.328   7.475  17.216  0.00  0.00    +0.000 A 
ATOM      9  C   UNL     1       3.835   6.597  18.187  0.00  0.00    +0.000 A 
ATOM     10  C   UNL     1       4.320   5.285  18.214  0.00  0.00    +0.000 A 
ATOM     11  C   UNL     1       5.266   4.850  17.284  0.00  0.00    +0.000 A 
BRANCH   6  14
ATOM     12  N   UNL     1       5.890   3.092  14.700  0.00  0.00    +0.000 NA
ATOM     13  C   UNL     1       6.435   4.198  14.403  0.00  0.00    +0.000 C 
ATOM     14  N   UNL     1       6.588   5.278  15.239  0.00  0.00    +0.000 N 
ATOM     15  N   UNL     1       6.926   4.405  13.131  0.00  0.00    +0.000 N 
ATOM     16  H   UNL     1       5.578   3.144  15.692  0.00  0.00    +0.000 HD
ATOM     17  H   UNL     1       7.390   5.866  15.127  0.00  0.00    +0.000 HD
ATOM     18  H   UNL     1       7.763   4.908  13.052  0.00  0.00    +0.000 HD
BRANCH  15  19
ATOM     19  C   UNL     1       6.444   3.706  11.945  0.00  0.00    +0.000 C 
ATOM     20  C   UNL     1       7.014   2.279  11.925  0.00  0.00    +0.000 C 
ATOM     21  C   UNL     1       6.112   1.544  10.940  0.00  0.00    +0.000 C 
ATOM     22  C   UNL     1       4.743   2.205  11.076  0.00  0.00    +0.000 C 
ATOM     23  C   UNL     1       4.943   3.433  11.971  0.00  0.00    +0.000 C 
ENDBRANCH  15  19
ENDBRANCH   6  14
ENDBRANCH   1   9
BRANCH   4  24
ATOM     24  C   UNL     1       0.315   9.317  21.035  0.00  0.00    +0.000 A 
ATOM     25  C   UNL     1      -0.261  10.334  20.254  0.00  0.00    +0.000 A 
ATOM     26  C   UNL     1      -1.108  11.302  20.857  0.00  0.00    +0.000 A 
ATOM     27  C   UNL     1      -1.328  11.329  22.243  0.00  0.00    +0.000 A 
ATOM     28  C   UNL     1      -0.605  10.384  22.977  0.00  0.00    +0.000 A 
ATOM     29  C   UNL     1       0.121   9.355  22.394  0.00  0.00    +0.000 A 
BRANCH  27  30
ATOM     30  N   UNL     1      -2.337  12.158  22.819  0.00  0.00    +0.000 N 
ATOM     31  C   UNL     1      -2.180  13.358  23.486  0.00  0.00    +0.000 C 
ATOM     32  N   UNL     1      -1.190  14.187  23.414  0.00  0.00    +0.000 NA
ATOM     33  N   UNL     1      -3.142  13.689  24.417  0.00  0.00    +0.000 N 
ATOM     34  H   UNL     1      -3.280  11.798  22.713  0.00  0.00    +0.000 HD
ATOM     35  H   UNL     1      -0.465  13.780  22.856  0.00  0.00    +0.000 HD
ATOM     36  H   UNL     1      -3.851  13.022  24.657  0.00  0.00    +0.000 HD
BRANCH  33  37
ATOM     37  C   UNL     1      -3.390  15.091  24.804  0.00  0.00    +0.000 C 
ATOM     38  C   UNL     1      -2.170  15.676  25.520  0.00  0.00    +0.000 C 
ATOM     39  C   UNL     1      -2.356  17.191  25.433  0.00  0.00    +0.000 C 
ATOM     40  C   UNL     1      -3.111  17.448  24.140  0.00  0.00    +0.000 C 
ATOM     41  C   UNL     1      -3.522  16.067  23.624  0.00  0.00    +0.000 C 
ENDBRANCH  33  37
ENDBRANCH  27  30
ENDBRANCH   4  24
TORSDOF 6
ENDMDL
MODEL 9
REMARK VINA RESULT:      -7.1      1.481     14.693
REMARK  Name = 
REMARK  6 active torsions:
REMARK  status: ('A' for Active; 'I' for Inactive)
REMARK    1  A    between atoms: N_3  and  C_4
REMARK    2  A    between atoms: C_7  and  C_8
REMARK    3  A    between atoms: C_11  and  C_12
REMARK    4  A    between atoms: C_15  and  N_16
REMARK    5  A    between atoms: N_19  and  C_20
REMARK    6  A    between atoms: N_30  and  C_31
REMARK                            x       y       z     vdW  Elec       q    Type
REMARK                         _______ _______ _______ _____ _____    ______ ____
ROOT
ATOM      1  C   UNL     1       0.762   9.025  19.701  0.00  0.00    +0.000 A 
ATOM      2  C   UNL     1       1.057   8.053  20.641  0.00  0.00    +0.000 A 
ATOM      3  C   UNL     1       2.113   7.203  20.229  0.00  0.00    +0.000 A 
ATOM      4  C   UNL     1       2.539   7.470  18.958  0.00  0.00    +0.000 A 
ATOM      5  S   UNL     1       1.750   8.857  18.325  0.00  0.00    +0.000 S 
ENDROOT
BRANCH   1   9
ATOM      6  C   UNL     1      -2.043  12.268  19.960  0.00  0.00    +0.000 A 
ATOM      7  C   UNL     1      -1.934  11.516  18.775  0.00  0.00    +0.000 A 
ATOM      8  C   UNL     1      -1.043  10.436  18.683  0.00  0.00    +0.000 A 
ATOM      9  C   UNL     1      -0.248  10.080  19.778  0.00  0.00    +0.000 A 
ATOM     10  C   UNL     1      -0.393  10.794  20.972  0.00  0.00    +0.000 A 
ATOM     11  C   UNL     1      -1.300  11.852  21.071  0.00  0.00    +0.000 A 
BRANCH   6  14
ATOM     12  N   UNL     1      -4.920  12.589  20.889  0.00  0.00    +0.000 NA
ATOM     13  C   UNL     1      -4.085  13.516  20.659  0.00  0.00    +0.000 C 
ATOM     14  N   UNL     1      -2.899  13.389  19.977  0.00  0.00    +0.000 N 
ATOM     15  N   UNL     1      -4.325  14.792  21.125  0.00  0.00    +0.000 N 
ATOM     16  H   UNL     1      -4.549  11.711  20.470  0.00  0.00    +0.000 HD
ATOM     17  H   UNL     1      -2.566  14.163  19.439  0.00  0.00    +0.000 HD
ATOM     18  H   UNL     1      -4.072  15.535  20.539  0.00  0.00    +0.000 HD
BRANCH  15  19
ATOM     19  C   UNL     1      -5.164  15.096  22.279  0.00  0.00    +0.000 C 
ATOM     20  C   UNL     1      -4.297  15.695  23.398  0.00  0.00    +0.000 C 
ATOM     21  C   UNL     1      -5.309  16.364  24.320  0.00  0.00    +0.000 C 
ATOM     22  C   UNL     1      -6.442  16.827  23.407  0.00  0.00    +0.000 C 
ATOM     23  C   UNL     1      -6.156  16.227  22.026  0.00  0.00    +0.000 C 
ENDBRANCH  15  19
ENDBRANCH   6  14
ENDBRANCH   1   9
BRANCH   4  24
ATOM     24  C   UNL     1       3.500   6.744  18.129  0.00  0.00    +0.000 A 
ATOM     25  C   UNL     1       3.441   5.354  17.930  0.00  0.00    +0.000 A 
ATOM     26  C   UNL     1       4.347   4.722  17.038  0.00  0.00    +0.000 A 
ATOM     27  C   UNL     1       5.373   5.438  16.399  0.00  0.00    +0.000 A 
ATOM     28  C   UNL     1       5.469   6.786  16.758  0.00  0.00    +0.000 A 
ATOM     29  C   UNL     1       4.516   7.443  17.524  0.00  0.00    +0.000 A 
BRANCH  27  30
ATOM     30  N   UNL     1       6.142   4.854  15.349  0.00  0.00    +0.000 N 
ATOM     31  C   UNL     1       5.691   4.267  14.182  0.00  0.00    +0.000 C 
ATOM     32  N   UNL     1       4.557   4.444  13.587  0.00  0.00    +0.000 NA
ATOM     33  N   UNL     1       6.496   3.304  13.611  0.00  0.00    +0.000 N 
ATOM     34  H   UNL     1       7.145   4.884  15.503  0.00  0.00    +0.000 HD
ATOM     35  H   UNL     1       3.973   5.019  14.164  0.00  0.00    +0.000 HD
ATOM     36  H   UNL     1       7.311   2.984  14.100  0.00  0.00    +0.000 HD
BRANCH  33  37
ATOM     37  C   UNL     1       6.416   2.985  12.173  0.00  0.00    +0.000 C 
ATOM     38  C   UNL     1       7.803   2.651  11.617  0.00  0.00    +0.000 C 
ATOM     39  C   UNL     1       7.530   1.901  10.313  0.00  0.00    +0.000 C 
ATOM     40  C   UNL     1       6.212   1.172  10.516  0.00  0.00    +0.000 C 
ATOM     41  C   UNL     1       5.659   1.687  11.847  0.00  0.00    +0.000 C 
ENDBRANCH  33  37
ENDBRANCH  27  30
ENDBRANCH   4  24
TORSDOF 6
ENDMDL
