MODEL 1
REMARK VINA RESULT:      -7.1      0.000      0.000
REMARK  Name = 
REMARK  8 active torsions:
REMARK  status: ('A' for Active; 'I' for Inactive)
REMARK    1  A    between atoms: O_1  and  C_2
REMARK    2  A    between atoms: C_2  and  C_3
REMARK    3  A    between atoms: C_2  and  C_13
REMARK    4  A    between atoms: C_3  and  N_4
REMARK    5  A    between atoms: N_4  and  C_5
REMARK    6  A    between atoms: C_5  and  C_6
REMARK    7  A    between atoms: C_13  and  O_14
REMARK    8  A    between atoms: O_14  and  C_15
REMARK                            x       y       z     vdW  Elec       q    Type
REMARK                         _______ _______ _______ _____ _____    ______ ____
ROOT
ATOM      1  C   UNL     1       4.988   5.881  16.412  0.00  0.00    +0.000 C 
ENDROOT
BRANCH   1   2
ATOM      2  O   UNL     1       6.304   6.055  15.868  0.00  0.00    +0.000 OA
ATOM      3  H   UNL     1       6.935   5.987  16.605  0.00  0.00    +0.000 HD
ENDBRANCH   1   2
BRANCH   1   4
ATOM      4  C   UNL     1       4.951   4.546  17.180  0.00  0.00    +0.000 C 
BRANCH   4   5
ATOM      5  N   UNL     1       3.766   3.747  16.859  0.00  0.00    +0.000 NA
ATOM      6  H   UNL     1       3.772   3.498  15.870  0.00  0.00    +0.000 HD
BRANCH   5   7
ATOM      7  C   UNL     1       3.734   2.513  17.650  0.00  0.00    +0.000 C 
BRANCH   7   8
ATOM      8  C   UNL     1       2.835   2.619  18.855  0.00  0.00    +0.000 A 
ATOM      9  C   UNL     1       1.442   2.776  18.754  0.00  0.00    +0.000 A 
ATOM     10  C   UNL     1       0.655   2.908  19.901  0.00  0.00    +0.000 A 
ATOM     11  C   UNL     1       1.249   2.905  21.164  0.00  0.00    +0.000 A 
ATOM     12  C   UNL     1       2.631   2.775  21.277  0.00  0.00    +0.000 A 
ATOM     13  C   UNL     1       3.408   2.638  20.131  0.00  0.00    +0.000 A 
ATOM     14  F   UNL     1       4.738   2.528  20.265  0.00  0.00    +0.000 F 
ENDBRANCH   7   8
ENDBRANCH   5   7
ENDBRANCH   4   5
ENDBRANCH   1   4
BRANCH   1  15
ATOM     15  C   UNL     1       4.654   7.058  17.337  0.00  0.00    +0.000 C 
BRANCH  15  16
ATOM     16  O   UNL     1       3.243   7.303  17.311  0.00  0.00    +0.000 OA
BRANCH  16  17
ATOM     17  C   UNL     1       2.607   7.357  18.530  0.00  0.00    +0.000 A 
ATOM     18  C   UNL     1       2.583   6.292  19.439  0.00  0.00    +0.000 A 
ATOM     19  C   UNL     1       1.921   6.417  20.658  0.00  0.00    +0.000 A 
ATOM     20  C   UNL     1       1.280   7.611  20.980  0.00  0.00    +0.000 A 
ATOM     21  C   UNL     1       1.285   8.693  20.089  0.00  0.00    +0.000 A 
ATOM     22  C   UNL     1       0.643   9.895  20.426  0.00  0.00    +0.000 A 
ATOM     23  C   UNL     1       0.638  10.977  19.547  0.00  0.00    +0.000 A 
ATOM     24  C   UNL     1       1.274  10.871  18.317  0.00  0.00    +0.000 A 
ATOM     25  C   UNL     1       1.921   9.683  17.967  0.00  0.00    +0.000 A 
ATOM     26  C   UNL     1       1.947   8.574  18.843  0.00  0.00    +0.000 A 
ENDBRANCH  16  17
ENDBRANCH  15  16
ENDBRANCH   1  15
TORSDOF 8
ENDMDL
MODEL 2
REMARK VINA RESULT:      -7.1      2.684      6.082
REMARK  Name = 
REMARK  8 active torsions:
REMARK  status: ('A' for Active; 'I' for Inactive)
REMARK    1  A    between atoms: O_1  and  C_2
REMARK    2  A    between atoms: C_2  and  C_3
REMARK    3  A    between atoms: C_2  and  C_13
REMARK    4  A    between atoms: C_3  and  N_4
REMARK    5  A    between atoms: N_4  and  C_5
REMARK    6  A    between atoms: C_5  and  C_6
REMARK    7  A    between atoms: C_13  and  O_14
REMARK    8  A    between atoms: O_14  and  C_15
REMARK                            x       y       z     vdW  Elec       q    Type
REMARK                         _______ _______ _______ _____ _____    ______ ____
ROOT
ATOM      1  C   UNL     1       1.502   3.043  18.371  0.00  0.00    +0.000 C 
ENDROOT
BRANCH   1   2
ATOM      2  O   UNL     1       0.646   1.893  18.419  0.00  0.00    +0.000 OA
ATOM      3  H   UNL     1       0.131   1.879  17.595  0.00  0.00    +0.000 HD
ENDBRANCH   1   2
BRANCH   1   4
ATOM      4  C   UNL     1       2.052   3.299  19.787  0.00  0.00    +0.000 C 
BRANCH   4   5
ATOM      5  N   UNL     1       1.496   4.512  20.392  0.00  0.00    +0.000 NA
ATOM      6  H   UNL     1       1.098   4.292  21.305  0.00  0.00    +0.000 HD
BRANCH   5   7
ATOM      7  C   UNL     1       2.533   5.533  20.571  0.00  0.00    +0.000 C 
BRANCH   7   8
ATOM      8  C   UNL     1       2.325   6.733  19.683  0.00  0.00    +0.000 A 
ATOM      9  C   UNL     1       2.831   6.809  18.374  0.00  0.00    +0.000 A 
ATOM     10  C   UNL     1       2.643   7.960  17.603  0.00  0.00    +0.000 A 
ATOM     11  C   UNL     1       1.965   9.057  18.135  0.00  0.00    +0.000 A 
ATOM     12  C   UNL     1       1.478   9.004  19.438  0.00  0.00    +0.000 A 
ATOM     13  C   UNL     1       1.664   7.853  20.198  0.00  0.00    +0.000 A 
ATOM     14  F   UNL     1       1.198   7.831  21.455  0.00  0.00    +0.000 F 
ENDBRANCH   7   8
ENDBRANCH   5   7
ENDBRANCH   4   5
ENDBRANCH   1   4
BRANCH   1  15
ATOM     15  C   UNL     1       2.642   2.794  17.373  0.00  0.00    +0.000 C 
BRANCH  15  16
ATOM     16  O   UNL     1       3.871   3.288  17.918  0.00  0.00    +0.000 OA
BRANCH  16  17
ATOM     17  C   UNL     1       4.696   3.967  17.052  0.00  0.00    +0.000 A 
ATOM     18  C   UNL     1       4.566   3.918  15.658  0.00  0.00    +0.000 A 
ATOM     19  C   UNL     1       5.437   4.633  14.841  0.00  0.00    +0.000 A 
ATOM     20  C   UNL     1       6.444   5.407  15.410  0.00  0.00    +0.000 A 
ATOM     21  C   UNL     1       6.602   5.473  16.801  0.00  0.00    +0.000 A 
ATOM     22  C   UNL     1       7.617   6.262  17.366  0.00  0.00    +0.000 A 
ATOM     23  C   UNL     1       7.785   6.334  18.748  0.00  0.00    +0.000 A 
ATOM     24  C   UNL     1       6.942   5.614  19.585  0.00  0.00    +0.000 A 
ATOM     25  C   UNL     1       5.925   4.827  19.040  0.00  0.00    +0.000 A 
ATOM     26  C   UNL     1       5.728   4.742  17.642  0.00  0.00    +0.000 A 
ENDBRANCH  16  17
ENDBRANCH  15  16
ENDBRANCH   1  15
TORSDOF 8
ENDMDL
MODEL 3
REMARK VINA RESULT:      -7.1      0.973      1.381
REMARK  Name = 
REMARK  8 active torsions:
REMARK  status: ('A' for Active; 'I' for Inactive)
REMARK    1  A    between atoms: O_1  and  C_2
REMARK    2  A    between atoms: C_2  and  C_3
REMARK    3  A    between atoms: C_2  and  C_13
REMARK    4  A    between atoms: C_3  and  N_4
REMARK    5  A    between atoms: N_4  and  C_5
REMARK    6  A    between atoms: C_5  and  C_6
REMARK    7  A    between atoms: C_13  and  O_14
REMARK    8  A    between atoms: O_14  and  C_15
REMARK                            x       y       z     vdW  Elec       q    Type
REMARK                         _______ _______ _______ _____ _____    ______ ____
ROOT
ATOM      1  C   UNL     1       5.127   5.992  16.390  0.00  0.00    +0.000 C 
ENDROOT
BRANCH   1   2
ATOM      2  O   UNL     1       6.485   6.281  16.030  0.00  0.00    +0.000 OA
ATOM      3  H   UNL     1       6.491   6.521  15.088  0.00  0.00    +0.000 HD
ENDBRANCH   1   2
BRANCH   1   4
ATOM      4  C   UNL     1       5.037   4.512  16.808  0.00  0.00    +0.000 C 
BRANCH   4   5
ATOM      5  N   UNL     1       3.658   4.079  17.046  0.00  0.00    +0.000 NA
ATOM      6  H   UNL     1       3.165   3.988  16.158  0.00  0.00    +0.000 HD
BRANCH   5   7
ATOM      7  C   UNL     1       3.625   2.784  17.732  0.00  0.00    +0.000 C 
BRANCH   7   8
ATOM      8  C   UNL     1       2.876   2.837  19.038  0.00  0.00    +0.000 A 
ATOM      9  C   UNL     1       3.496   2.620  20.281  0.00  0.00    +0.000 A 
ATOM     10  C   UNL     1       2.749   2.643  21.462  0.00  0.00    +0.000 A 
ATOM     11  C   UNL     1       1.372   2.863  21.419  0.00  0.00    +0.000 A 
ATOM     12  C   UNL     1       0.741   3.056  20.192  0.00  0.00    +0.000 A 
ATOM     13  C   UNL     1       1.491   3.038  19.020  0.00  0.00    +0.000 A 
ATOM     14  F   UNL     1       0.860   3.213  17.850  0.00  0.00    +0.000 F 
ENDBRANCH   7   8
ENDBRANCH   5   7
ENDBRANCH   4   5
ENDBRANCH   1   4
BRANCH   1  15
ATOM     15  C   UNL     1       4.692   6.916  17.537  0.00  0.00    +0.000 C 
BRANCH  15  16
ATOM     16  O   UNL     1       3.283   7.160  17.446  0.00  0.00    +0.000 OA
BRANCH  16  17
ATOM     17  C   UNL     1       2.609   7.307  18.637  0.00  0.00    +0.000 A 
ATOM     18  C   UNL     1       2.525   6.303  19.610  0.00  0.00    +0.000 A 
ATOM     19  C   UNL     1       1.827   6.522  20.794  0.00  0.00    +0.000 A 
ATOM     20  C   UNL     1       1.208   7.749  21.018  0.00  0.00    +0.000 A 
ATOM     21  C   UNL     1       1.272   8.772  20.062  0.00  0.00    +0.000 A 
ATOM     22  C   UNL     1       0.651  10.009  20.300  0.00  0.00    +0.000 A 
ATOM     23  C   UNL     1       0.704  11.032  19.356  0.00  0.00    +0.000 A 
ATOM     24  C   UNL     1       1.378  10.832  18.157  0.00  0.00    +0.000 A 
ATOM     25  C   UNL     1       2.004   9.609  17.906  0.00  0.00    +0.000 A 
ATOM     26  C   UNL     1       1.971   8.557  18.849  0.00  0.00    +0.000 A 
ENDBRANCH  16  17
ENDBRANCH  15  16
ENDBRANCH   1  15
TORSDOF 8
ENDMDL
MODEL 4
REMARK VINA RESULT:      -7.1      4.923      7.828
REMARK  Name = 
REMARK  8 active torsions:
REMARK  status: ('A' for Active; 'I' for Inactive)
REMARK    1  A    between atoms: O_1  and  C_2
REMARK    2  A    between atoms: C_2  and  C_3
REMARK    3  A    between atoms: C_2  and  C_13
REMARK    4  A    between atoms: C_3  and  N_4
REMARK    5  A    between atoms: N_4  and  C_5
REMARK    6  A    between atoms: C_5  and  C_6
REMARK    7  A    between atoms: C_13  and  O_14
REMARK    8  A    between atoms: O_14  and  C_15
REMARK                            x       y       z     vdW  Elec       q    Type
REMARK                         _______ _______ _______ _____ _____    ______ ____
ROOT
ATOM      1  C   UNL     1       7.554   6.551  17.599  0.00  0.00    +0.000 C 
ENDROOT
BRANCH   1   2
ATOM      2  O   UNL     1       7.420   6.109  16.241  0.00  0.00    +0.000 OA
ATOM      3  H   UNL     1       8.191   5.552  16.039  0.00  0.00    +0.000 HD
ENDBRANCH   1   2
BRANCH   1   4
ATOM      4  C   UNL     1       7.375   8.081  17.634  0.00  0.00    +0.000 C 
BRANCH   4   5
ATOM      5  N   UNL     1       8.489   8.761  18.296  0.00  0.00    +0.000 NA
ATOM      6  H   UNL     1       9.371   8.483  17.866  0.00  0.00    +0.000 HD
BRANCH   5   7
ATOM      7  C   UNL     1       8.356  10.217  18.186  0.00  0.00    +0.000 C 
BRANCH   7   8
ATOM      8  C   UNL     1       9.597  10.949  18.632  0.00  0.00    +0.000 A 
ATOM      9  C   UNL     1      10.604  11.353  17.740  0.00  0.00    +0.000 A 
ATOM     10  C   UNL     1      11.754  11.995  18.208  0.00  0.00    +0.000 A 
ATOM     11  C   UNL     1      11.923  12.225  19.574  0.00  0.00    +0.000 A 
ATOM     12  C   UNL     1      10.943  11.807  20.471  0.00  0.00    +0.000 A 
ATOM     13  C   UNL     1       9.799  11.174  19.999  0.00  0.00    +0.000 A 
ATOM     14  F   UNL     1       8.876  10.769  20.883  0.00  0.00    +0.000 F 
ENDBRANCH   7   8
ENDBRANCH   5   7
ENDBRANCH   4   5
ENDBRANCH   1   4
BRANCH   1  15
ATOM     15  C   UNL     1       6.503   5.853  18.473  0.00  0.00    +0.000 C 
BRANCH  15  16
ATOM     16  O   UNL     1       5.193   6.154  17.978  0.00  0.00    +0.000 OA
BRANCH  16  17
ATOM     17  C   UNL     1       4.353   5.084  17.777  0.00  0.00    +0.000 A 
ATOM     18  C   UNL     1       4.523   4.148  16.749  0.00  0.00    +0.000 A 
ATOM     19  C   UNL     1       3.634   3.086  16.604  0.00  0.00    +0.000 A 
ATOM     20  C   UNL     1       2.568   2.949  17.489  0.00  0.00    +0.000 A 
ATOM     21  C   UNL     1       2.370   3.871  18.525  0.00  0.00    +0.000 A 
ATOM     22  C   UNL     1       1.295   3.721  19.417  0.00  0.00    +0.000 A 
ATOM     23  C   UNL     1       1.085   4.633  20.449  0.00  0.00    +0.000 A 
ATOM     24  C   UNL     1       1.947   5.713  20.603  0.00  0.00    +0.000 A 
ATOM     25  C   UNL     1       3.023   5.875  19.727  0.00  0.00    +0.000 A 
ATOM     26  C   UNL     1       3.262   4.961  18.676  0.00  0.00    +0.000 A 
ENDBRANCH  16  17
ENDBRANCH  15  16
ENDBRANCH   1  15
TORSDOF 8
ENDMDL
MODEL 5
REMARK VINA RESULT:      -7.0      2.495      6.087
REMARK  Name = 
REMARK  8 active torsions:
REMARK  status: ('A' for Active; 'I' for Inactive)
REMARK    1  A    between atoms: O_1  and  C_2
REMARK    2  A    between atoms: C_2  and  C_3
REMARK    3  A    between atoms: C_2  and  C_13
REMARK    4  A    between atoms: C_3  and  N_4
REMARK    5  A    between atoms: N_4  and  C_5
REMARK    6  A    between atoms: C_5  and  C_6
REMARK    7  A    between atoms: C_13  and  O_14
REMARK    8  A    between atoms: O_14  and  C_15
REMARK                            x       y       z     vdW  Elec       q    Type
REMARK                         _______ _______ _______ _____ _____    ______ ____
ROOT
ATOM      1  C   UNL     1       2.203   3.971  18.726  0.00  0.00    +0.000 C 
ENDROOT
BRANCH   1   2
ATOM      2  O   UNL     1       1.096   3.859  17.820  0.00  0.00    +0.000 OA
ATOM      3  H   UNL     1       1.019   2.923  17.570  0.00  0.00    +0.000 HD
ENDBRANCH   1   2
BRANCH   1   4
ATOM      4  C   UNL     1       1.649   4.113  20.156  0.00  0.00    +0.000 C 
BRANCH   4   5
ATOM      5  N   UNL     1       1.973   5.409  20.757  0.00  0.00    +0.000 NA
ATOM      6  H   UNL     1       2.424   5.269  21.662  0.00  0.00    +0.000 HD
BRANCH   5   7
ATOM      7  C   UNL     1       2.883   6.173  19.898  0.00  0.00    +0.000 C 
BRANCH   7   8
ATOM      8  C   UNL     1       2.305   7.501  19.477  0.00  0.00    +0.000 A 
ATOM      9  C   UNL     1       1.451   8.254  20.300  0.00  0.00    +0.000 A 
ATOM     10  C   UNL     1       0.910   9.461  19.849  0.00  0.00    +0.000 A 
ATOM     11  C   UNL     1       1.198   9.923  18.564  0.00  0.00    +0.000 A 
ATOM     12  C   UNL     1       2.024   9.174  17.730  0.00  0.00    +0.000 A 
ATOM     13  C   UNL     1       2.563   7.976  18.187  0.00  0.00    +0.000 A 
ATOM     14  F   UNL     1       3.345   7.266  17.360  0.00  0.00    +0.000 F 
ENDBRANCH   7   8
ENDBRANCH   5   7
ENDBRANCH   4   5
ENDBRANCH   1   4
BRANCH   1  15
ATOM     15  C   UNL     1       3.097   2.730  18.602  0.00  0.00    +0.000 C 
BRANCH  15  16
ATOM     16  O   UNL     1       4.473   3.124  18.656  0.00  0.00    +0.000 OA
BRANCH  16  17
ATOM     17  C   UNL     1       4.930   3.900  17.616  0.00  0.00    +0.000 A 
ATOM     18  C   UNL     1       4.458   3.789  16.301  0.00  0.00    +0.000 A 
ATOM     19  C   UNL     1       4.965   4.609  15.297  0.00  0.00    +0.000 A 
ATOM     20  C   UNL     1       5.945   5.550  15.598  0.00  0.00    +0.000 A 
ATOM     21  C   UNL     1       6.439   5.682  16.903  0.00  0.00    +0.000 A 
ATOM     22  C   UNL     1       7.423   6.640  17.199  0.00  0.00    +0.000 A 
ATOM     23  C   UNL     1       7.924   6.778  18.492  0.00  0.00    +0.000 A 
ATOM     24  C   UNL     1       7.450   5.958  19.509  0.00  0.00    +0.000 A 
ATOM     25  C   UNL     1       6.468   5.003  19.232  0.00  0.00    +0.000 A 
ATOM     26  C   UNL     1       5.938   4.847  17.931  0.00  0.00    +0.000 A 
ENDBRANCH  16  17
ENDBRANCH  15  16
ENDBRANCH   1  15
TORSDOF 8
ENDMDL
MODEL 6
REMARK VINA RESULT:      -7.0      2.158      4.353
REMARK  Name = 
REMARK  8 active torsions:
REMARK  status: ('A' for Active; 'I' for Inactive)
REMARK    1  A    between atoms: O_1  and  C_2
REMARK    2  A    between atoms: C_2  and  C_3
REMARK    3  A    between atoms: C_2  and  C_13
REMARK    4  A    between atoms: C_3  and  N_4
REMARK    5  A    between atoms: N_4  and  C_5
REMARK    6  A    between atoms: C_5  and  C_6
REMARK    7  A    between atoms: C_13  and  O_14
REMARK    8  A    between atoms: O_14  and  C_15
REMARK                            x       y       z     vdW  Elec       q    Type
REMARK                         _______ _______ _______ _____ _____    ______ ____
ROOT
ATOM      1  C   UNL     1       1.859   3.649  21.237  0.00  0.00    +0.000 C 
ENDROOT
BRANCH   1   2
ATOM      2  O   UNL     1       0.830   2.680  21.477  0.00  0.00    +0.000 OA
ATOM      3  H   UNL     1       0.836   2.478  22.428  0.00  0.00    +0.000 HD
ENDBRANCH   1   2
BRANCH   1   4
ATOM      4  C   UNL     1       2.995   2.969  20.449  0.00  0.00    +0.000 C 
BRANCH   4   5
ATOM      5  N   UNL     1       4.061   3.903  20.082  0.00  0.00    +0.000 NA
ATOM      6  H   UNL     1       4.710   4.013  20.861  0.00  0.00    +0.000 HD
BRANCH   5   7
ATOM      7  C   UNL     1       4.809   3.417  18.918  0.00  0.00    +0.000 C 
BRANCH   7   8
ATOM      8  C   UNL     1       5.226   4.529  17.991  0.00  0.00    +0.000 A 
ATOM      9  C   UNL     1       4.778   4.620  16.662  0.00  0.00    +0.000 A 
ATOM     10  C   UNL     1       5.224   5.651  15.829  0.00  0.00    +0.000 A 
ATOM     11  C   UNL     1       6.139   6.592  16.305  0.00  0.00    +0.000 A 
ATOM     12  C   UNL     1       6.609   6.499  17.613  0.00  0.00    +0.000 A 
ATOM     13  C   UNL     1       6.156   5.475  18.438  0.00  0.00    +0.000 A 
ATOM     14  F   UNL     1       6.634   5.398  19.689  0.00  0.00    +0.000 F 
ENDBRANCH   7   8
ENDBRANCH   5   7
ENDBRANCH   4   5
ENDBRANCH   1   4
BRANCH   1  15
ATOM     15  C   UNL     1       1.278   4.833  20.453  0.00  0.00    +0.000 C 
BRANCH  15  16
ATOM     16  O   UNL     1       1.954   6.038  20.833  0.00  0.00    +0.000 OA
BRANCH  16  17
ATOM     17  C   UNL     1       2.009   7.034  19.886  0.00  0.00    +0.000 A 
ATOM     18  C   UNL     1       2.676   6.903  18.661  0.00  0.00    +0.000 A 
ATOM     19  C   UNL     1       2.690   7.953  17.747  0.00  0.00    +0.000 A 
ATOM     20  C   UNL     1       2.035   9.144  18.049  0.00  0.00    +0.000 A 
ATOM     21  C   UNL     1       1.362   9.306  19.267  0.00  0.00    +0.000 A 
ATOM     22  C   UNL     1       0.697  10.508  19.559  0.00  0.00    +0.000 A 
ATOM     23  C   UNL     1       0.027  10.682  20.769  0.00  0.00    +0.000 A 
ATOM     24  C   UNL     1       0.015   9.657  21.707  0.00  0.00    +0.000 A 
ATOM     25  C   UNL     1       0.668   8.453  21.430  0.00  0.00    +0.000 A 
ATOM     26  C   UNL     1       1.349   8.248  20.208  0.00  0.00    +0.000 A 
ENDBRANCH  16  17
ENDBRANCH  15  16
ENDBRANCH   1  15
TORSDOF 8
ENDMDL
MODEL 7
REMARK VINA RESULT:      -7.0      2.833      6.405
REMARK  Name = 
REMARK  8 active torsions:
REMARK  status: ('A' for Active; 'I' for Inactive)
REMARK    1  A    between atoms: O_1  and  C_2
REMARK    2  A    between atoms: C_2  and  C_3
REMARK    3  A    between atoms: C_2  and  C_13
REMARK    4  A    between atoms: C_3  and  N_4
REMARK    5  A    between atoms: N_4  and  C_5
REMARK    6  A    between atoms: C_5  and  C_6
REMARK    7  A    between atoms: C_13  and  O_14
REMARK    8  A    between atoms: O_14  and  C_15
REMARK                            x       y       z     vdW  Elec       q    Type
REMARK                         _______ _______ _______ _____ _____    ______ ____
ROOT
ATOM      1  C   UNL     1       2.755   2.624  20.274  0.00  0.00    +0.000 C 
ENDROOT
BRANCH   1   2
ATOM      2  O   UNL     1       3.209   2.516  21.630  0.00  0.00    +0.000 OA
ATOM      3  H   UNL     1       4.006   1.959  21.627  0.00  0.00    +0.000 HD
ENDBRANCH   1   2
BRANCH   1   4
ATOM      4  C   UNL     1       1.948   3.929  20.133  0.00  0.00    +0.000 C 
BRANCH   4   5
ATOM      5  N   UNL     1       2.662   5.090  20.669  0.00  0.00    +0.000 NA
ATOM      6  H   UNL     1       3.383   5.388  20.012  0.00  0.00    +0.000 HD
BRANCH   5   7
ATOM      7  C   UNL     1       1.745   6.212  20.894  0.00  0.00    +0.000 C 
BRANCH   7   8
ATOM      8  C   UNL     1       1.853   7.272  19.828  0.00  0.00    +0.000 A 
ATOM      9  C   UNL     1       2.636   7.112  18.672  0.00  0.00    +0.000 A 
ATOM     10  C   UNL     1       2.734   8.141  17.731  0.00  0.00    +0.000 A 
ATOM     11  C   UNL     1       2.068   9.350  17.939  0.00  0.00    +0.000 A 
ATOM     12  C   UNL     1       1.308   9.530  19.092  0.00  0.00    +0.000 A 
ATOM     13  C   UNL     1       1.211   8.500  20.023  0.00  0.00    +0.000 A 
ATOM     14  F   UNL     1       0.484   8.702  21.132  0.00  0.00    +0.000 F 
ENDBRANCH   7   8
ENDBRANCH   5   7
ENDBRANCH   4   5
ENDBRANCH   1   4
BRANCH   1  15
ATOM     15  C   UNL     1       3.961   2.617  19.325  0.00  0.00    +0.000 C 
BRANCH  15  16
ATOM     16  O   UNL     1       3.927   3.787  18.499  0.00  0.00    +0.000 OA
BRANCH  16  17
ATOM     17  C   UNL     1       5.122   4.443  18.317  0.00  0.00    +0.000 A 
ATOM     18  C   UNL     1       5.851   5.029  19.360  0.00  0.00    +0.000 A 
ATOM     19  C   UNL     1       7.056   5.677  19.104  0.00  0.00    +0.000 A 
ATOM     20  C   UNL     1       7.545   5.743  17.802  0.00  0.00    +0.000 A 
ATOM     21  C   UNL     1       6.837   5.169  16.738  0.00  0.00    +0.000 A 
ATOM     22  C   UNL     1       7.342   5.235  15.429  0.00  0.00    +0.000 A 
ATOM     23  C   UNL     1       6.645   4.671  14.361  0.00  0.00    +0.000 A 
ATOM     24  C   UNL     1       5.430   4.035  14.588  0.00  0.00    +0.000 A 
ATOM     25  C   UNL     1       4.916   3.958  15.884  0.00  0.00    +0.000 A 
ATOM     26  C   UNL     1       5.605   4.516  16.985  0.00  0.00    +0.000 A 
ENDBRANCH  16  17
ENDBRANCH  15  16
ENDBRANCH   1  15
TORSDOF 8
ENDMDL
MODEL 8
REMARK VINA RESULT:      -6.9      2.970      6.058
REMARK  Name = 
REMARK  8 active torsions:
REMARK  status: ('A' for Active; 'I' for Inactive)
REMARK    1  A    between atoms: O_1  and  C_2
REMARK    2  A    between atoms: C_2  and  C_3
REMARK    3  A    between atoms: C_2  and  C_13
REMARK    4  A    between atoms: C_3  and  N_4
REMARK    5  A    between atoms: N_4  and  C_5
REMARK    6  A    between atoms: C_5  and  C_6
REMARK    7  A    between atoms: C_13  and  O_14
REMARK    8  A    between atoms: O_14  and  C_15
REMARK                            x       y       z     vdW  Elec       q    Type
REMARK                         _______ _______ _______ _____ _____    ______ ____
ROOT
ATOM      1  C   UNL     1       7.130   5.575  19.119  0.00  0.00    +0.000 C 
ENDROOT
BRANCH   1   2
ATOM      2  O   UNL     1       7.951   5.619  20.295  0.00  0.00    +0.000 OA
ATOM      3  H   UNL     1       7.357   5.672  21.063  0.00  0.00    +0.000 HD
ENDBRANCH   1   2
BRANCH   1   4
ATOM      4  C   UNL     1       7.896   4.818  18.018  0.00  0.00    +0.000 C 
BRANCH   4   5
ATOM      5  N   UNL     1       7.022   4.372  16.931  0.00  0.00    +0.000 NA
ATOM      6  H   UNL     1       6.073   4.238  17.282  0.00  0.00    +0.000 HD
BRANCH   5   7
ATOM      7  C   UNL     1       6.983   5.360  15.849  0.00  0.00    +0.000 C 
BRANCH   7   8
ATOM      8  C   UNL     1       6.707   4.737  14.504  0.00  0.00    +0.000 A 
ATOM      9  C   UNL     1       7.594   4.845  13.419  0.00  0.00    +0.000 A 
ATOM     10  C   UNL     1       7.275   4.282  12.180  0.00  0.00    +0.000 A 
ATOM     11  C   UNL     1       6.059   3.620  12.002  0.00  0.00    +0.000 A 
ATOM     12  C   UNL     1       5.162   3.526  13.063  0.00  0.00    +0.000 A 
ATOM     13  C   UNL     1       5.487   4.084  14.294  0.00  0.00    +0.000 A 
ATOM     14  F   UNL     1       4.601   3.993  15.296  0.00  0.00    +0.000 F 
ENDBRANCH   7   8
ENDBRANCH   5   7
ENDBRANCH   4   5
ENDBRANCH   1   4
BRANCH   1  15
ATOM     15  C   UNL     1       5.803   4.876  19.446  0.00  0.00    +0.000 C 
BRANCH  15  16
ATOM     16  O   UNL     1       4.732   5.541  18.765  0.00  0.00    +0.000 OA
BRANCH  16  17
ATOM     17  C   UNL     1       3.475   5.392  19.306  0.00  0.00    +0.000 A 
ATOM     18  C   UNL     1       2.849   6.368  20.092  0.00  0.00    +0.000 A 
ATOM     19  C   UNL     1       1.574   6.151  20.607  0.00  0.00    +0.000 A 
ATOM     20  C   UNL     1       0.911   4.957  20.336  0.00  0.00    +0.000 A 
ATOM     21  C   UNL     1       1.513   3.961  19.555  0.00  0.00    +0.000 A 
ATOM     22  C   UNL     1       0.833   2.762  19.282  0.00  0.00    +0.000 A 
ATOM     23  C   UNL     1       1.423   1.763  18.509  0.00  0.00    +0.000 A 
ATOM     24  C   UNL     1       2.703   1.947  18.001  0.00  0.00    +0.000 A 
ATOM     25  C   UNL     1       3.391   3.135  18.260  0.00  0.00    +0.000 A 
ATOM     26  C   UNL     1       2.814   4.167  19.035  0.00  0.00    +0.000 A 
ENDBRANCH  16  17
ENDBRANCH  15  16
ENDBRANCH   1  15
TORSDOF 8
ENDMDL
MODEL 9
REMARK VINA RESULT:      -6.9      4.896      7.949
REMARK  Name = 
REMARK  8 active torsions:
REMARK  status: ('A' for Active; 'I' for Inactive)
REMARK    1  A    between atoms: O_1  and  C_2
REMARK    2  A    between atoms: C_2  and  C_3
REMARK    3  A    between atoms: C_2  and  C_13
REMARK    4  A    between atoms: C_3  and  N_4
REMARK    5  A    between atoms: N_4  and  C_5
REMARK    6  A    between atoms: C_5  and  C_6
REMARK    7  A    between atoms: C_13  and  O_14
REMARK    8  A    between atoms: O_14  and  C_15
REMARK                            x       y       z     vdW  Elec       q    Type
REMARK                         _______ _______ _______ _____ _____    ______ ____
ROOT
ATOM      1  C   UNL     1       7.309   6.280  18.677  0.00  0.00    +0.000 C 
ENDROOT
BRANCH   1   2
ATOM      2  O   UNL     1       8.265   5.859  19.660  0.00  0.00    +0.000 OA
ATOM      3  H   UNL     1       7.894   5.083  20.114  0.00  0.00    +0.000 HD
ENDBRANCH   1   2
BRANCH   1   4
ATOM      4  C   UNL     1       7.915   7.449  17.878  0.00  0.00    +0.000 C 
BRANCH   4   5
ATOM      5  N   UNL     1       8.671   8.374  18.725  0.00  0.00    +0.000 NA
ATOM      6  H   UNL     1       9.669   8.171  18.656  0.00  0.00    +0.000 HD
BRANCH   5   7
ATOM      7  C   UNL     1       8.449   9.764  18.314  0.00  0.00    +0.000 C 
BRANCH   7   8
ATOM      8  C   UNL     1       9.586  10.673  18.706  0.00  0.00    +0.000 A 
ATOM      9  C   UNL     1      10.528  11.155  17.782  0.00  0.00    +0.000 A 
ATOM     10  C   UNL     1      11.587  11.966  18.203  0.00  0.00    +0.000 A 
ATOM     11  C   UNL     1      11.730  12.291  19.552  0.00  0.00    +0.000 A 
ATOM     12  C   UNL     1      10.816  11.800  20.482  0.00  0.00    +0.000 A 
ATOM     13  C   UNL     1       9.762  10.998  20.056  0.00  0.00    +0.000 A 
ATOM     14  F   UNL     1       8.902  10.526  20.971  0.00  0.00    +0.000 F 
ENDBRANCH   7   8
ENDBRANCH   5   7
ENDBRANCH   4   5
ENDBRANCH   1   4
BRANCH   1  15
ATOM     15  C   UNL     1       6.967   5.101  17.755  0.00  0.00    +0.000 C 
BRANCH  15  16
ATOM     16  O   UNL     1       6.011   5.522  16.775  0.00  0.00    +0.000 OA
BRANCH  16  17
ATOM     17  C   UNL     1       4.754   5.837  17.239  0.00  0.00    +0.000 A 
ATOM     18  C   UNL     1       4.313   7.149  17.453  0.00  0.00    +0.000 A 
ATOM     19  C   UNL     1       3.026   7.394  17.924  0.00  0.00    +0.000 A 
ATOM     20  C   UNL     1       2.167   6.330  18.181  0.00  0.00    +0.000 A 
ATOM     21  C   UNL     1       2.581   5.006  17.979  0.00  0.00    +0.000 A 
ATOM     22  C   UNL     1       1.704   3.939  18.235  0.00  0.00    +0.000 A 
ATOM     23  C   UNL     1       2.105   2.618  18.041  0.00  0.00    +0.000 A 
ATOM     24  C   UNL     1       3.391   2.345  17.592  0.00  0.00    +0.000 A 
ATOM     25  C   UNL     1       4.275   3.395  17.329  0.00  0.00    +0.000 A 
ATOM     26  C   UNL     1       3.891   4.744  17.510  0.00  0.00    +0.000 A 
ENDBRANCH  16  17
ENDBRANCH  15  16
ENDBRANCH   1  15
TORSDOF 8
ENDMDL
