MODEL 1
REMARK VINA RESULT:      -8.0      0.000      0.000
REMARK  Name = 
REMARK  10 active torsions:
REMARK  status: ('A' for Active; 'I' for Inactive)
REMARK    1  A    between atoms: C_1  and  C_2
REMARK    2  A    between atoms: N_4  and  C_5
REMARK    3  A    between atoms: C_5  and  C_6
REMARK    4  A    between atoms: N_8  and  C_9
REMARK    5  A    between atoms: C_12  and  O_13
REMARK    6  A    between atoms: O_13  and  C_14
REMARK    7  A    between atoms: C_14  and  C_15
REMARK    8  A    between atoms: C_15  and  O_16
REMARK    9  A    between atoms: C_15  and  C_17
REMARK   10  A    between atoms: C_17  and  N_18
REMARK                            x       y       z     vdW  Elec       q    Type
REMARK                         _______ _______ _______ _____ _____    ______ ____
ROOT
ATOM      1  C   UNL     1       1.469   9.120  18.959  0.00  0.00    +0.000 A 
ATOM      2  C   UNL     1       2.296   8.871  17.856  0.00  0.00    +0.000 A 
ATOM      3  C   UNL     1       3.101   7.725  17.791  0.00  0.00    +0.000 A 
ATOM      4  C   UNL     1       3.095   6.785  18.819  0.00  0.00    +0.000 A 
ATOM      5  C   UNL     1       2.280   7.032  19.922  0.00  0.00    +0.000 A 
ATOM      6  F   UNL     1       2.216   6.170  20.948  0.00  0.00    +0.000 F 
ATOM      7  C   UNL     1       1.488   8.186  20.002  0.00  0.00    +0.000 A 
ENDROOT
BRANCH   1  10
ATOM      8  C   UNL     1      -1.132  11.690  19.429  0.00  0.00    +0.000 C 
ATOM      9  C   UNL     1      -0.780  10.248  19.113  0.00  0.00    +0.000 C 
ATOM     10  N   UNL     1       0.651  10.279  19.021  0.00  0.00    +0.000 N 
ATOM     11  C   UNL     1       1.069  11.591  18.848  0.00  0.00    +0.000 C 
ATOM     12  O   UNL     1       2.187  12.009  18.594  0.00  0.00    +0.000 OA
ATOM     13  O   UNL     1      -0.006  12.438  18.942  0.00  0.00    +0.000 OA
BRANCH   8  14
ATOM     14  C   UNL     1      -2.407  12.158  18.722  0.00  0.00    +0.000 C 
BRANCH  14  18
ATOM     15  C   UNL     1      -3.289  10.857  15.270  0.00  0.00    +0.000 C 
ATOM     16  C   UNL     1      -3.403  11.026  16.761  0.00  0.00    +0.000 C 
ATOM     17  O   UNL     1      -4.292  10.504  17.427  0.00  0.00    +0.000 OA
ATOM     18  N   UNL     1      -2.425  11.825  17.305  0.00  0.00    +0.000 N 
ATOM     19  H   UNL     1      -1.805  12.334  16.685  0.00  0.00    +0.000 HD
ENDBRANCH  14  18
ENDBRANCH   8  14
ENDBRANCH   1  10
BRANCH   4  20
ATOM     20  O   UNL     1       3.916   5.713  18.605  0.00  0.00    +0.000 OA
BRANCH  20  21
ATOM     21  C   UNL     1       4.222   5.367  17.248  0.00  0.00    +0.000 C 
BRANCH  21  22
ATOM     22  C   UNL     1       5.029   4.059  17.241  0.00  0.00    +0.000 C 
BRANCH  22  23
ATOM     23  O   UNL     1       5.897   4.015  18.389  0.00  0.00    +0.000 OA
ATOM     24  H   UNL     1       5.773   3.134  18.789  0.00  0.00    +0.000 HD
ENDBRANCH  22  23
BRANCH  22  25
ATOM     25  C   UNL     1       4.101   2.829  17.253  0.00  0.00    +0.000 C 
BRANCH  25  26
ATOM     26  N   UNL     1       2.737   3.240  17.604  0.00  0.00    +0.000 N 
ATOM     27  C   UNL     1       2.420   3.038  18.959  0.00  0.00    +0.000 A 
ATOM     28  C   UNL     1       1.135   3.355  19.393  0.00  0.00    +0.000 A 
ATOM     29  C   UNL     1       0.807   3.200  20.738  0.00  0.00    +0.000 A 
ATOM     30  C   UNL     1       1.771   2.735  21.622  0.00  0.00    +0.000 A 
ATOM     31  C   UNL     1       3.026   2.453  21.116  0.00  0.00    +0.000 A 
ATOM     32  N   UNL     1       3.364   2.600  19.818  0.00  0.00    +0.000 NA
ATOM     33  H   UNL     1       2.053   2.770  17.013  0.00  0.00    +0.000 HD
ENDBRANCH  25  26
ENDBRANCH  22  25
ENDBRANCH  21  22
ENDBRANCH  20  21
ENDBRANCH   4  20
TORSDOF 9
ENDMDL
MODEL 2
REMARK VINA RESULT:      -8.0      2.438      9.257
REMARK  Name = 
REMARK  10 active torsions:
REMARK  status: ('A' for Active; 'I' for Inactive)
REMARK    1  A    between atoms: C_1  and  C_2
REMARK    2  A    between atoms: N_4  and  C_5
REMARK    3  A    between atoms: C_5  and  C_6
REMARK    4  A    between atoms: N_8  and  C_9
REMARK    5  A    between atoms: C_12  and  O_13
REMARK    6  A    between atoms: O_13  and  C_14
REMARK    7  A    between atoms: C_14  and  C_15
REMARK    8  A    between atoms: C_15  and  O_16
REMARK    9  A    between atoms: C_15  and  C_17
REMARK   10  A    between atoms: C_17  and  N_18
REMARK                            x       y       z     vdW  Elec       q    Type
REMARK                         _______ _______ _______ _____ _____    ______ ____
ROOT
ATOM      1  C   UNL     1       2.634   7.217  18.669  0.00  0.00    +0.000 A 
ATOM      2  C   UNL     1       2.381   8.177  17.683  0.00  0.00    +0.000 A 
ATOM      3  C   UNL     1       1.608   9.315  17.954  0.00  0.00    +0.000 A 
ATOM      4  C   UNL     1       1.075   9.536  19.222  0.00  0.00    +0.000 A 
ATOM      5  C   UNL     1       1.318   8.578  20.205  0.00  0.00    +0.000 A 
ATOM      6  F   UNL     1       0.844   8.724  21.452  0.00  0.00    +0.000 F 
ATOM      7  C   UNL     1       2.074   7.428  19.935  0.00  0.00    +0.000 A 
ENDROOT
BRANCH   1  10
ATOM      8  C   UNL     1       5.179   4.569  18.341  0.00  0.00    +0.000 C 
ATOM      9  C   UNL     1       4.855   6.049  18.422  0.00  0.00    +0.000 C 
ATOM     10  N   UNL     1       3.421   6.067  18.394  0.00  0.00    +0.000 N 
ATOM     11  C   UNL     1       2.959   4.851  17.911  0.00  0.00    +0.000 C 
ATOM     12  O   UNL     1       1.819   4.530  17.612  0.00  0.00    +0.000 OA
ATOM     13  O   UNL     1       4.012   3.990  17.734  0.00  0.00    +0.000 OA
BRANCH   8  14
ATOM     14  C   UNL     1       6.409   4.276  17.478  0.00  0.00    +0.000 C 
BRANCH  14  18
ATOM     15  C   UNL     1       6.219   3.886  13.711  0.00  0.00    +0.000 C 
ATOM     16  C   UNL     1       6.649   4.480  15.025  0.00  0.00    +0.000 C 
ATOM     17  O   UNL     1       7.448   5.406  15.111  0.00  0.00    +0.000 OA
ATOM     18  N   UNL     1       6.068   3.882  16.120  0.00  0.00    +0.000 N 
ATOM     19  H   UNL     1       5.525   3.037  15.987  0.00  0.00    +0.000 HD
ENDBRANCH  14  18
ENDBRANCH   8  14
ENDBRANCH   1  10
BRANCH   4  20
ATOM     20  O   UNL     1       0.361  10.695  19.338  0.00  0.00    +0.000 OA
BRANCH  20  21
ATOM     21  C   UNL     1      -1.069  10.598  19.374  0.00  0.00    +0.000 C 
BRANCH  21  22
ATOM     22  C   UNL     1      -1.658  11.602  18.370  0.00  0.00    +0.000 C 
BRANCH  22  23
ATOM     23  O   UNL     1      -0.593  12.278  17.674  0.00  0.00    +0.000 OA
ATOM     24  H   UNL     1       0.180  11.683  17.720  0.00  0.00    +0.000 HD
ENDBRANCH  22  23
BRANCH  22  25
ATOM     25  C   UNL     1      -2.573  10.900  17.348  0.00  0.00    +0.000 C 
BRANCH  25  26
ATOM     26  N   UNL     1      -3.558  11.854  16.826  0.00  0.00    +0.000 N 
ATOM     27  C   UNL     1      -4.821  11.747  17.434  0.00  0.00    +0.000 A 
ATOM     28  C   UNL     1      -5.845  12.579  16.985  0.00  0.00    +0.000 A 
ATOM     29  C   UNL     1      -7.096  12.520  17.596  0.00  0.00    +0.000 A 
ATOM     30  C   UNL     1      -7.296  11.633  18.645  0.00  0.00    +0.000 A 
ATOM     31  C   UNL     1      -6.228  10.850  19.040  0.00  0.00    +0.000 A 
ATOM     32  N   UNL     1      -5.008  10.896  18.463  0.00  0.00    +0.000 NA
ATOM     33  H   UNL     1      -3.650  11.765  15.816  0.00  0.00    +0.000 HD
ENDBRANCH  25  26
ENDBRANCH  22  25
ENDBRANCH  21  22
ENDBRANCH  20  21
ENDBRANCH   4  20
TORSDOF 9
ENDMDL
MODEL 3
REMARK VINA RESULT:      -7.9      2.452      8.880
REMARK  Name = 
REMARK  10 active torsions:
REMARK  status: ('A' for Active; 'I' for Inactive)
REMARK    1  A    between atoms: C_1  and  C_2
REMARK    2  A    between atoms: N_4  and  C_5
REMARK    3  A    between atoms: C_5  and  C_6
REMARK    4  A    between atoms: N_8  and  C_9
REMARK    5  A    between atoms: C_12  and  O_13
REMARK    6  A    between atoms: O_13  and  C_14
REMARK    7  A    between atoms: C_14  and  C_15
REMARK    8  A    between atoms: C_15  and  O_16
REMARK    9  A    between atoms: C_15  and  C_17
REMARK   10  A    between atoms: C_17  and  N_18
REMARK                            x       y       z     vdW  Elec       q    Type
REMARK                         _______ _______ _______ _____ _____    ______ ____
ROOT
ATOM      1  C   UNL     1       2.724   6.963  18.842  0.00  0.00    +0.000 A 
ATOM      2  C   UNL     1       2.191   7.073  20.132  0.00  0.00    +0.000 A 
ATOM      3  C   UNL     1       1.390   8.164  20.500  0.00  0.00    +0.000 A 
ATOM      4  C   UNL     1       1.087   9.172  19.587  0.00  0.00    +0.000 A 
ATOM      5  C   UNL     1       1.622   9.071  18.304  0.00  0.00    +0.000 A 
ATOM      6  F   UNL     1       1.370   9.999  17.369  0.00  0.00    +0.000 F 
ATOM      7  C   UNL     1       2.439   7.992  17.936  0.00  0.00    +0.000 A 
ENDROOT
BRANCH   1  10
ATOM      8  C   UNL     1       5.325   4.414  18.265  0.00  0.00    +0.000 C 
ATOM      9  C   UNL     1       4.965   5.876  18.451  0.00  0.00    +0.000 C 
ATOM     10  N   UNL     1       3.531   5.856  18.469  0.00  0.00    +0.000 N 
ATOM     11  C   UNL     1       3.086   4.660  17.923  0.00  0.00    +0.000 C 
ATOM     12  O   UNL     1       1.946   4.328  17.639  0.00  0.00    +0.000 OA
ATOM     13  O   UNL     1       4.155   3.842  17.658  0.00  0.00    +0.000 OA
BRANCH   8  14
ATOM     14  C   UNL     1       6.534   4.212  17.348  0.00  0.00    +0.000 C 
BRANCH  14  18
ATOM     15  C   UNL     1       6.222   3.846  13.586  0.00  0.00    +0.000 C 
ATOM     16  C   UNL     1       6.672   4.448  14.890  0.00  0.00    +0.000 C 
ATOM     17  O   UNL     1       7.432   5.409  14.956  0.00  0.00    +0.000 OA
ATOM     18  N   UNL     1       6.161   3.814  15.999  0.00  0.00    +0.000 N 
ATOM     19  H   UNL     1       5.653   2.946  15.877  0.00  0.00    +0.000 HD
ENDBRANCH  14  18
ENDBRANCH   8  14
ENDBRANCH   1  10
BRANCH   4  20
ATOM     20  O   UNL     1       0.283  10.158  20.086  0.00  0.00    +0.000 OA
BRANCH  20  21
ATOM     21  C   UNL     1       0.900  11.198  20.856  0.00  0.00    +0.000 C 
BRANCH  21  22
ATOM     22  C   UNL     1       0.819  12.513  20.065  0.00  0.00    +0.000 C 
BRANCH  22  23
ATOM     23  O   UNL     1       1.753  12.481  18.970  0.00  0.00    +0.000 OA
ATOM     24  H   UNL     1       1.237  12.225  18.182  0.00  0.00    +0.000 HD
ENDBRANCH  22  23
BRANCH  22  25
ATOM     25  C   UNL     1      -0.602  12.754  19.522  0.00  0.00    +0.000 C 
BRANCH  25  26
ATOM     26  N   UNL     1      -0.731  12.154  18.189  0.00  0.00    +0.000 N 
ATOM     27  C   UNL     1      -2.030  11.702  17.899  0.00  0.00    +0.000 A 
ATOM     28  C   UNL     1      -2.257  11.077  16.675  0.00  0.00    +0.000 A 
ATOM     29  C   UNL     1      -3.543  10.653  16.348  0.00  0.00    +0.000 A 
ATOM     30  C   UNL     1      -4.577  10.866  17.250  0.00  0.00    +0.000 A 
ATOM     31  C   UNL     1      -4.274  11.502  18.438  0.00  0.00    +0.000 A 
ATOM     32  N   UNL     1      -3.035  11.924  18.772  0.00  0.00    +0.000 NA
ATOM     33  H   UNL     1      -0.063  11.395  18.066  0.00  0.00    +0.000 HD
ENDBRANCH  25  26
ENDBRANCH  22  25
ENDBRANCH  21  22
ENDBRANCH  20  21
ENDBRANCH   4  20
TORSDOF 9
ENDMDL
MODEL 4
REMARK VINA RESULT:      -7.7      2.620      8.972
REMARK  Name = 
REMARK  10 active torsions:
REMARK  status: ('A' for Active; 'I' for Inactive)
REMARK    1  A    between atoms: C_1  and  C_2
REMARK    2  A    between atoms: N_4  and  C_5
REMARK    3  A    between atoms: C_5  and  C_6
REMARK    4  A    between atoms: N_8  and  C_9
REMARK    5  A    between atoms: C_12  and  O_13
REMARK    6  A    between atoms: O_13  and  C_14
REMARK    7  A    between atoms: C_14  and  C_15
REMARK    8  A    between atoms: C_15  and  O_16
REMARK    9  A    between atoms: C_15  and  C_17
REMARK   10  A    between atoms: C_17  and  N_18
REMARK                            x       y       z     vdW  Elec       q    Type
REMARK                         _______ _______ _______ _____ _____    ______ ____
ROOT
ATOM      1  C   UNL     1       3.645   6.239  17.885  0.00  0.00    +0.000 A 
ATOM      2  C   UNL     1       3.330   7.527  17.436  0.00  0.00    +0.000 A 
ATOM      3  C   UNL     1       2.476   8.366  18.166  0.00  0.00    +0.000 A 
ATOM      4  C   UNL     1       1.921   7.949  19.374  0.00  0.00    +0.000 A 
ATOM      5  C   UNL     1       2.226   6.664  19.821  0.00  0.00    +0.000 A 
ATOM      6  F   UNL     1       1.735   6.194  20.978  0.00  0.00    +0.000 F 
ATOM      7  C   UNL     1       3.063   5.814  19.085  0.00  0.00    +0.000 A 
ENDROOT
BRANCH   1  10
ATOM      8  C   UNL     1       6.353   4.597  15.996  0.00  0.00    +0.000 C 
ATOM      9  C   UNL     1       5.587   5.866  16.320  0.00  0.00    +0.000 C 
ATOM     10  N   UNL     1       4.513   5.393  17.146  0.00  0.00    +0.000 N 
ATOM     11  C   UNL     1       4.376   4.023  16.973  0.00  0.00    +0.000 C 
ATOM     12  O   UNL     1       3.498   3.284  17.391  0.00  0.00    +0.000 OA
ATOM     13  O   UNL     1       5.383   3.551  16.169  0.00  0.00    +0.000 OA
BRANCH   8  14
ATOM     14  C   UNL     1       6.885   4.576  14.561  0.00  0.00    +0.000 C 
BRANCH  14  18
ATOM     15  C   UNL     1       5.700   2.409  11.683  0.00  0.00    +0.000 C 
ATOM     16  C   UNL     1       6.452   3.518  12.368  0.00  0.00    +0.000 C 
ATOM     17  O   UNL     1       7.224   4.266  11.777  0.00  0.00    +0.000 OA
ATOM     18  N   UNL     1       6.201   3.607  13.717  0.00  0.00    +0.000 N 
ATOM     19  H   UNL     1       5.662   2.875  14.166  0.00  0.00    +0.000 HD
ENDBRANCH  14  18
ENDBRANCH   8  14
ENDBRANCH   1  10
BRANCH   4  20
ATOM     20  O   UNL     1       1.125   8.881  19.979  0.00  0.00    +0.000 OA
BRANCH  20  21
ATOM     21  C   UNL     1       1.614  10.226  20.057  0.00  0.00    +0.000 C 
BRANCH  21  22
ATOM     22  C   UNL     1       0.544  11.176  19.495  0.00  0.00    +0.000 C 
BRANCH  22  23
ATOM     23  O   UNL     1       1.004  11.749  18.257  0.00  0.00    +0.000 OA
ATOM     24  H   UNL     1       0.937  12.717  18.366  0.00  0.00    +0.000 HD
ENDBRANCH  22  23
BRANCH  22  25
ATOM     25  C   UNL     1      -0.788  10.440  19.256  0.00  0.00    +0.000 C 
BRANCH  25  26
ATOM     26  N   UNL     1      -0.954  10.166  17.823  0.00  0.00    +0.000 N 
ATOM     27  C   UNL     1      -2.214  10.535  17.322  0.00  0.00    +0.000 A 
ATOM     28  C   UNL     1      -2.494  10.281  15.981  0.00  0.00    +0.000 A 
ATOM     29  C   UNL     1      -3.722  10.671  15.450  0.00  0.00    +0.000 A 
ATOM     30  C   UNL     1      -4.642  11.309  16.270  0.00  0.00    +0.000 A 
ATOM     31  C   UNL     1      -4.286  11.535  17.586  0.00  0.00    +0.000 A 
ATOM     32  N   UNL     1      -3.100  11.169  18.118  0.00  0.00    +0.000 NA
ATOM     33  H   UNL     1      -0.770   9.185  17.618  0.00  0.00    +0.000 HD
ENDBRANCH  25  26
ENDBRANCH  22  25
ENDBRANCH  21  22
ENDBRANCH  20  21
ENDBRANCH   4  20
TORSDOF 9
ENDMDL
MODEL 5
REMARK VINA RESULT:      -7.7      2.144      3.010
REMARK  Name = 
REMARK  10 active torsions:
REMARK  status: ('A' for Active; 'I' for Inactive)
REMARK    1  A    between atoms: C_1  and  C_2
REMARK    2  A    between atoms: N_4  and  C_5
REMARK    3  A    between atoms: C_5  and  C_6
REMARK    4  A    between atoms: N_8  and  C_9
REMARK    5  A    between atoms: C_12  and  O_13
REMARK    6  A    between atoms: O_13  and  C_14
REMARK    7  A    between atoms: C_14  and  C_15
REMARK    8  A    between atoms: C_15  and  O_16
REMARK    9  A    between atoms: C_15  and  C_17
REMARK   10  A    between atoms: C_17  and  N_18
REMARK                            x       y       z     vdW  Elec       q    Type
REMARK                         _______ _______ _______ _____ _____    ______ ____
ROOT
ATOM      1  C   UNL     1       1.342   9.054  19.376  0.00  0.00    +0.000 A 
ATOM      2  C   UNL     1       1.809   9.083  18.057  0.00  0.00    +0.000 A 
ATOM      3  C   UNL     1       2.604   8.050  17.540  0.00  0.00    +0.000 A 
ATOM      4  C   UNL     1       2.947   6.950  18.323  0.00  0.00    +0.000 A 
ATOM      5  C   UNL     1       2.492   6.920  19.640  0.00  0.00    +0.000 A 
ATOM      6  F   UNL     1       2.776   5.890  20.451  0.00  0.00    +0.000 F 
ATOM      7  C   UNL     1       1.713   7.959  20.167  0.00  0.00    +0.000 A 
ENDROOT
BRANCH   1  10
ATOM      8  C   UNL     1      -0.171  11.940  21.101  0.00  0.00    +0.000 C 
ATOM      9  C   UNL     1       0.775  10.755  21.149  0.00  0.00    +0.000 C 
ATOM     10  N   UNL     1       0.533  10.099  19.896  0.00  0.00    +0.000 N 
ATOM     11  C   UNL     1      -0.678  10.536  19.379  0.00  0.00    +0.000 C 
ATOM     12  O   UNL     1      -1.291  10.116  18.411  0.00  0.00    +0.000 OA
ATOM     13  O   UNL     1      -1.187  11.537  20.168  0.00  0.00    +0.000 OA
BRANCH   8  14
ATOM     14  C   UNL     1      -0.810  12.245  22.459  0.00  0.00    +0.000 C 
BRANCH  14  18
ATOM     15  C   UNL     1      -4.528  12.930  22.760  0.00  0.00    +0.000 C 
ATOM     16  C   UNL     1      -3.053  13.167  22.944  0.00  0.00    +0.000 C 
ATOM     17  O   UNL     1      -2.600  14.166  23.492  0.00  0.00    +0.000 OA
ATOM     18  N   UNL     1      -2.262  12.164  22.433  0.00  0.00    +0.000 N 
ATOM     19  H   UNL     1      -2.693  11.436  21.874  0.00  0.00    +0.000 HD
ENDBRANCH  14  18
ENDBRANCH   8  14
ENDBRANCH   1  10
BRANCH   4  20
ATOM     20  O   UNL     1       3.711   6.018  17.677  0.00  0.00    +0.000 OA
BRANCH  20  21
ATOM     21  C   UNL     1       5.080   5.882  18.078  0.00  0.00    +0.000 C 
BRANCH  21  22
ATOM     22  C   UNL     1       5.646   4.585  17.478  0.00  0.00    +0.000 C 
BRANCH  22  23
ATOM     23  O   UNL     1       6.891   4.254  18.121  0.00  0.00    +0.000 OA
ATOM     24  H   UNL     1       6.763   3.372  18.520  0.00  0.00    +0.000 HD
ENDBRANCH  22  23
BRANCH  22  25
ATOM     25  C   UNL     1       4.657   3.415  17.641  0.00  0.00    +0.000 C 
BRANCH  25  26
ATOM     26  N   UNL     1       4.604   3.003  19.049  0.00  0.00    +0.000 N 
ATOM     27  C   UNL     1       3.307   3.019  19.591  0.00  0.00    +0.000 A 
ATOM     28  C   UNL     1       3.146   2.685  20.934  0.00  0.00    +0.000 A 
ATOM     29  C   UNL     1       1.867   2.657  21.486  0.00  0.00    +0.000 A 
ATOM     30  C   UNL     1       0.776   2.960  20.683  0.00  0.00    +0.000 A 
ATOM     31  C   UNL     1       1.016   3.271  19.359  0.00  0.00    +0.000 A 
ATOM     32  N   UNL     1       2.247   3.300  18.804  0.00  0.00    +0.000 NA
ATOM     33  H   UNL     1       5.226   3.574  19.618  0.00  0.00    +0.000 HD
ENDBRANCH  25  26
ENDBRANCH  22  25
ENDBRANCH  21  22
ENDBRANCH  20  21
ENDBRANCH   4  20
TORSDOF 9
ENDMDL
MODEL 6
REMARK VINA RESULT:      -7.7      2.453      8.963
REMARK  Name = 
REMARK  10 active torsions:
REMARK  status: ('A' for Active; 'I' for Inactive)
REMARK    1  A    between atoms: C_1  and  C_2
REMARK    2  A    between atoms: N_4  and  C_5
REMARK    3  A    between atoms: C_5  and  C_6
REMARK    4  A    between atoms: N_8  and  C_9
REMARK    5  A    between atoms: C_12  and  O_13
REMARK    6  A    between atoms: O_13  and  C_14
REMARK    7  A    between atoms: C_14  and  C_15
REMARK    8  A    between atoms: C_15  and  O_16
REMARK    9  A    between atoms: C_15  and  C_17
REMARK   10  A    between atoms: C_17  and  N_18
REMARK                            x       y       z     vdW  Elec       q    Type
REMARK                         _______ _______ _______ _____ _____    ______ ____
ROOT
ATOM      1  C   UNL     1       3.093   6.851  18.439  0.00  0.00    +0.000 A 
ATOM      2  C   UNL     1       2.807   7.973  17.651  0.00  0.00    +0.000 A 
ATOM      3  C   UNL     1       1.990   9.009  18.126  0.00  0.00    +0.000 A 
ATOM      4  C   UNL     1       1.444   8.962  19.407  0.00  0.00    +0.000 A 
ATOM      5  C   UNL     1       1.719   7.844  20.192  0.00  0.00    +0.000 A 
ATOM      6  F   UNL     1       1.234   7.730  21.437  0.00  0.00    +0.000 F 
ATOM      7  C   UNL     1       2.519   6.796  19.715  0.00  0.00    +0.000 A 
ENDROOT
BRANCH   1  10
ATOM      8  C   UNL     1       5.783   4.515  17.489  0.00  0.00    +0.000 C 
ATOM      9  C   UNL     1       5.329   5.947  17.705  0.00  0.00    +0.000 C 
ATOM     10  N   UNL     1       3.924   5.805  17.958  0.00  0.00    +0.000 N 
ATOM     11  C   UNL     1       3.505   4.559  17.514  0.00  0.00    +0.000 C 
ATOM     12  O   UNL     1       2.368   4.122  17.427  0.00  0.00    +0.000 OA
ATOM     13  O   UNL     1       4.586   3.827  17.092  0.00  0.00    +0.000 OA
BRANCH   8  14
ATOM     14  C   UNL     1       6.840   4.388  16.389  0.00  0.00    +0.000 C 
BRANCH  14  18
ATOM     15  C   UNL     1       6.049   3.568  12.771  0.00  0.00    +0.000 C 
ATOM     16  C   UNL     1       6.637   4.336  13.924  0.00  0.00    +0.000 C 
ATOM     17  O   UNL     1       7.346   5.325  13.776  0.00  0.00    +0.000 OA
ATOM     18  N   UNL     1       6.312   3.820  15.157  0.00  0.00    +0.000 N 
ATOM     19  H   UNL     1       5.838   2.925  15.206  0.00  0.00    +0.000 HD
ENDBRANCH  14  18
ENDBRANCH   8  14
ENDBRANCH   1  10
BRANCH   4  20
ATOM     20  O   UNL     1       0.685  10.051  19.734  0.00  0.00    +0.000 OA
BRANCH  20  21
ATOM     21  C   UNL     1      -0.382   9.864  20.672  0.00  0.00    +0.000 C 
BRANCH  21  22
ATOM     22  C   UNL     1      -0.852  11.240  21.170  0.00  0.00    +0.000 C 
BRANCH  22  23
ATOM     23  O   UNL     1       0.156  11.821  22.018  0.00  0.00    +0.000 OA
ATOM     24  H   UNL     1       0.681  12.414  21.448  0.00  0.00    +0.000 HD
ENDBRANCH  22  23
BRANCH  22  25
ATOM     25  C   UNL     1      -1.143  12.191  19.994  0.00  0.00    +0.000 C 
BRANCH  25  26
ATOM     26  N   UNL     1      -2.588  12.240  19.740  0.00  0.00    +0.000 N 
ATOM     27  C   UNL     1      -2.954  11.743  18.478  0.00  0.00    +0.000 A 
ATOM     28  C   UNL     1      -4.299  11.781  18.116  0.00  0.00    +0.000 A 
ATOM     29  C   UNL     1      -4.695  11.261  16.886  0.00  0.00    +0.000 A 
ATOM     30  C   UNL     1      -3.738  10.710  16.044  0.00  0.00    +0.000 A 
ATOM     31  C   UNL     1      -2.427  10.699  16.479  0.00  0.00    +0.000 A 
ATOM     32  N   UNL     1      -2.024  11.195  17.669  0.00  0.00    +0.000 NA
ATOM     33  H   UNL     1      -2.945  13.187  19.859  0.00  0.00    +0.000 HD
ENDBRANCH  25  26
ENDBRANCH  22  25
ENDBRANCH  21  22
ENDBRANCH  20  21
ENDBRANCH   4  20
TORSDOF 9
ENDMDL
MODEL 7
REMARK VINA RESULT:      -7.7      1.757      3.101
REMARK  Name = 
REMARK  10 active torsions:
REMARK  status: ('A' for Active; 'I' for Inactive)
REMARK    1  A    between atoms: C_1  and  C_2
REMARK    2  A    between atoms: N_4  and  C_5
REMARK    3  A    between atoms: C_5  and  C_6
REMARK    4  A    between atoms: N_8  and  C_9
REMARK    5  A    between atoms: C_12  and  O_13
REMARK    6  A    between atoms: O_13  and  C_14
REMARK    7  A    between atoms: C_14  and  C_15
REMARK    8  A    between atoms: C_15  and  O_16
REMARK    9  A    between atoms: C_15  and  C_17
REMARK   10  A    between atoms: C_17  and  N_18
REMARK                            x       y       z     vdW  Elec       q    Type
REMARK                         _______ _______ _______ _____ _____    ______ ____
ROOT
ATOM      1  C   UNL     1       1.374   8.877  19.042  0.00  0.00    +0.000 A 
ATOM      2  C   UNL     1       2.119   8.314  17.999  0.00  0.00    +0.000 A 
ATOM      3  C   UNL     1       2.789   7.092  18.157  0.00  0.00    +0.000 A 
ATOM      4  C   UNL     1       2.723   6.388  19.358  0.00  0.00    +0.000 A 
ATOM      5  C   UNL     1       1.989   6.949  20.402  0.00  0.00    +0.000 A 
ATOM      6  F   UNL     1       1.874   6.327  21.585  0.00  0.00    +0.000 F 
ATOM      7  C   UNL     1       1.334   8.180  20.256  0.00  0.00    +0.000 A 
ENDROOT
BRANCH   1  10
ATOM      8  C   UNL     1      -0.951  11.736  18.908  0.00  0.00    +0.000 C 
ATOM      9  C   UNL     1      -0.733  10.238  18.793  0.00  0.00    +0.000 C 
ATOM     10  N   UNL     1       0.693  10.112  18.879  0.00  0.00    +0.000 N 
ATOM     11  C   UNL     1       1.276  11.345  18.620  0.00  0.00    +0.000 C 
ATOM     12  O   UNL     1       2.456  11.614  18.465  0.00  0.00    +0.000 OA
ATOM     13  O   UNL     1       0.302  12.302  18.489  0.00  0.00    +0.000 OA
BRANCH   8  14
ATOM     14  C   UNL     1      -2.076  12.243  18.002  0.00  0.00    +0.000 C 
BRANCH  14  18
ATOM     15  C   UNL     1      -3.098  10.406  14.845  0.00  0.00    +0.000 C 
ATOM     16  C   UNL     1      -3.248  10.978  16.229  0.00  0.00    +0.000 C 
ATOM     17  O   UNL     1      -4.295  10.920  16.866  0.00  0.00    +0.000 OA
ATOM     18  N   UNL     1      -2.106  11.577  16.709  0.00  0.00    +0.000 N 
ATOM     19  H   UNL     1      -1.321  11.711  16.081  0.00  0.00    +0.000 HD
ENDBRANCH  14  18
ENDBRANCH   8  14
ENDBRANCH   1  10
BRANCH   4  20
ATOM     20  O   UNL     1       3.411   5.207  19.355  0.00  0.00    +0.000 OA
BRANCH  20  21
ATOM     21  C   UNL     1       2.650   3.992  19.354  0.00  0.00    +0.000 C 
BRANCH  21  22
ATOM     22  C   UNL     1       3.057   3.154  18.131  0.00  0.00    +0.000 C 
BRANCH  22  23
ATOM     23  O   UNL     1       2.369   3.635  16.961  0.00  0.00    +0.000 OA
ATOM     24  H   UNL     1       1.646   4.203  17.286  0.00  0.00    +0.000 HD
ENDBRANCH  22  23
BRANCH  22  25
ATOM     25  C   UNL     1       4.578   3.214  17.892  0.00  0.00    +0.000 C 
BRANCH  25  26
ATOM     26  N   UNL     1       4.903   4.368  17.047  0.00  0.00    +0.000 N 
ATOM     27  C   UNL     1       5.926   5.178  17.569  0.00  0.00    +0.000 A 
ATOM     28  C   UNL     1       6.287   6.325  16.866  0.00  0.00    +0.000 A 
ATOM     29  C   UNL     1       7.324   7.125  17.343  0.00  0.00    +0.000 A 
ATOM     30  C   UNL     1       7.981   6.759  18.510  0.00  0.00    +0.000 A 
ATOM     31  C   UNL     1       7.572   5.601  19.143  0.00  0.00    +0.000 A 
ATOM     32  N   UNL     1       6.573   4.811  18.695  0.00  0.00    +0.000 NA
ATOM     33  H   UNL     1       4.073   4.930  16.865  0.00  0.00    +0.000 HD
ENDBRANCH  25  26
ENDBRANCH  22  25
ENDBRANCH  21  22
ENDBRANCH  20  21
ENDBRANCH   4  20
TORSDOF 9
ENDMDL
MODEL 8
REMARK VINA RESULT:      -7.6      1.540      3.282
REMARK  Name = 
REMARK  10 active torsions:
REMARK  status: ('A' for Active; 'I' for Inactive)
REMARK    1  A    between atoms: C_1  and  C_2
REMARK    2  A    between atoms: N_4  and  C_5
REMARK    3  A    between atoms: C_5  and  C_6
REMARK    4  A    between atoms: N_8  and  C_9
REMARK    5  A    between atoms: C_12  and  O_13
REMARK    6  A    between atoms: O_13  and  C_14
REMARK    7  A    between atoms: C_14  and  C_15
REMARK    8  A    between atoms: C_15  and  O_16
REMARK    9  A    between atoms: C_15  and  C_17
REMARK   10  A    between atoms: C_17  and  N_18
REMARK                            x       y       z     vdW  Elec       q    Type
REMARK                         _______ _______ _______ _____ _____    ______ ____
ROOT
ATOM      1  C   UNL     1       1.361   8.983  19.012  0.00  0.00    +0.000 A 
ATOM      2  C   UNL     1       1.342   8.267  20.215  0.00  0.00    +0.000 A 
ATOM      3  C   UNL     1       2.114   7.109  20.386  0.00  0.00    +0.000 A 
ATOM      4  C   UNL     1       2.938   6.638  19.367  0.00  0.00    +0.000 A 
ATOM      5  C   UNL     1       2.954   7.344  18.165  0.00  0.00    +0.000 A 
ATOM      6  F   UNL     1       3.727   6.956  17.140  0.00  0.00    +0.000 F 
ATOM      7  C   UNL     1       2.170   8.491  17.980  0.00  0.00    +0.000 A 
ENDROOT
BRANCH   1  10
ATOM      8  C   UNL     1      -1.205  11.623  18.793  0.00  0.00    +0.000 C 
ATOM      9  C   UNL     1      -0.838  10.159  18.636  0.00  0.00    +0.000 C 
ATOM     10  N   UNL     1       0.582  10.159  18.841  0.00  0.00    +0.000 N 
ATOM     11  C   UNL     1       1.065  11.450  18.685  0.00  0.00    +0.000 C 
ATOM     12  O   UNL     1       2.224  11.832  18.645  0.00  0.00    +0.000 OA
ATOM     13  O   UNL     1       0.019  12.320  18.509  0.00  0.00    +0.000 OA
BRANCH   8  14
ATOM     14  C   UNL     1      -2.293  12.071  17.814  0.00  0.00    +0.000 C 
BRANCH  14  18
ATOM     15  C   UNL     1      -3.144  10.280  14.581  0.00  0.00    +0.000 C 
ATOM     16  C   UNL     1      -3.395  10.943  15.908  0.00  0.00    +0.000 C 
ATOM     17  O   UNL     1      -4.519  11.111  16.370  0.00  0.00    +0.000 OA
ATOM     18  N   UNL     1      -2.249  11.352  16.550  0.00  0.00    +0.000 N 
ATOM     19  H   UNL     1      -1.366  11.307  16.053  0.00  0.00    +0.000 HD
ENDBRANCH  14  18
ENDBRANCH   8  14
ENDBRANCH   1  10
BRANCH   4  20
ATOM     20  O   UNL     1       3.642   5.511  19.688  0.00  0.00    +0.000 OA
BRANCH  20  21
ATOM     21  C   UNL     1       2.925   4.425  20.289  0.00  0.00    +0.000 C 
BRANCH  21  22
ATOM     22  C   UNL     1       2.698   3.335  19.229  0.00  0.00    +0.000 C 
BRANCH  22  23
ATOM     23  O   UNL     1       2.191   3.930  18.020  0.00  0.00    +0.000 OA
ATOM     24  H   UNL     1       2.689   3.520  17.287  0.00  0.00    +0.000 HD
ENDBRANCH  22  23
BRANCH  22  25
ATOM     25  C   UNL     1       4.001   2.575  18.919  0.00  0.00    +0.000 C 
BRANCH  25  26
ATOM     26  N   UNL     1       5.148   3.480  19.056  0.00  0.00    +0.000 N 
ATOM     27  C   UNL     1       5.592   4.014  17.833  0.00  0.00    +0.000 A 
ATOM     28  C   UNL     1       6.703   4.854  17.842  0.00  0.00    +0.000 A 
ATOM     29  C   UNL     1       7.140   5.427  16.649  0.00  0.00    +0.000 A 
ATOM     30  C   UNL     1       6.455   5.150  15.474  0.00  0.00    +0.000 A 
ATOM     31  C   UNL     1       5.356   4.316  15.549  0.00  0.00    +0.000 A 
ATOM     32  N   UNL     1       4.915   3.755  16.695  0.00  0.00    +0.000 NA
ATOM     33  H   UNL     1       5.920   3.018  19.534  0.00  0.00    +0.000 HD
ENDBRANCH  25  26
ENDBRANCH  22  25
ENDBRANCH  21  22
ENDBRANCH  20  21
ENDBRANCH   4  20
TORSDOF 9
ENDMDL
MODEL 9
REMARK VINA RESULT:      -7.6      2.642      8.950
REMARK  Name = 
REMARK  10 active torsions:
REMARK  status: ('A' for Active; 'I' for Inactive)
REMARK    1  A    between atoms: C_1  and  C_2
REMARK    2  A    between atoms: N_4  and  C_5
REMARK    3  A    between atoms: C_5  and  C_6
REMARK    4  A    between atoms: N_8  and  C_9
REMARK    5  A    between atoms: C_12  and  O_13
REMARK    6  A    between atoms: O_13  and  C_14
REMARK    7  A    between atoms: C_14  and  C_15
REMARK    8  A    between atoms: C_15  and  O_16
REMARK    9  A    between atoms: C_15  and  C_17
REMARK   10  A    between atoms: C_17  and  N_18
REMARK                            x       y       z     vdW  Elec       q    Type
REMARK                         _______ _______ _______ _____ _____    ______ ____
ROOT
ATOM      1  C   UNL     1       3.290   6.598  18.219  0.00  0.00    +0.000 A 
ATOM      2  C   UNL     1       2.779   6.425  19.511  0.00  0.00    +0.000 A 
ATOM      3  C   UNL     1       1.957   7.392  20.106  0.00  0.00    +0.000 A 
ATOM      4  C   UNL     1       1.609   8.556  19.424  0.00  0.00    +0.000 A 
ATOM      5  C   UNL     1       2.122   8.736  18.141  0.00  0.00    +0.000 A 
ATOM      6  F   UNL     1       1.826   9.828  17.419  0.00  0.00    +0.000 F 
ATOM      7  C   UNL     1       2.960   7.781  17.548  0.00  0.00    +0.000 A 
ENDROOT
BRANCH   1  10
ATOM      8  C   UNL     1       5.980   4.476  16.856  0.00  0.00    +0.000 C 
ATOM      9  C   UNL     1       5.445   5.869  17.132  0.00  0.00    +0.000 C 
ATOM     10  N   UNL     1       4.119   5.614  17.616  0.00  0.00    +0.000 N 
ATOM     11  C   UNL     1       3.742   4.328  17.258  0.00  0.00    +0.000 C 
ATOM     12  O   UNL     1       2.649   3.795  17.365  0.00  0.00    +0.000 OA
ATOM     13  O   UNL     1       4.798   3.680  16.669  0.00  0.00    +0.000 OA
BRANCH   8  14
ATOM     14  C   UNL     1       6.849   4.413  15.597  0.00  0.00    +0.000 C 
BRANCH  14  18
ATOM     15  C   UNL     1       5.812   3.139  12.179  0.00  0.00    +0.000 C 
ATOM     16  C   UNL     1       6.570   3.968  13.180  0.00  0.00    +0.000 C 
ATOM     17  O   UNL     1       7.454   4.757  12.862  0.00  0.00    +0.000 OA
ATOM     18  N   UNL     1       6.187   3.752  14.483  0.00  0.00    +0.000 N 
ATOM     19  H   UNL     1       5.550   2.990  14.687  0.00  0.00    +0.000 HD
ENDBRANCH  14  18
ENDBRANCH   8  14
ENDBRANCH   1  10
BRANCH   4  20
ATOM     20  O   UNL     1       0.788   9.395  20.125  0.00  0.00    +0.000 OA
BRANCH  20  21
ATOM     21  C   UNL     1       1.322  10.658  20.541  0.00  0.00    +0.000 C 
BRANCH  21  22
ATOM     22  C   UNL     1       0.158  11.633  20.781  0.00  0.00    +0.000 C 
BRANCH  22  23
ATOM     23  O   UNL     1       0.510  12.564  21.822  0.00  0.00    +0.000 OA
ATOM     24  H   UNL     1       1.348  12.240  22.203  0.00  0.00    +0.000 HD
ENDBRANCH  22  23
BRANCH  22  25
ATOM     25  C   UNL     1      -0.197  12.408  19.499  0.00  0.00    +0.000 C 
BRANCH  25  26
ATOM     26  N   UNL     1      -0.361  11.471  18.381  0.00  0.00    +0.000 N 
ATOM     27  C   UNL     1      -1.704  11.182  18.083  0.00  0.00    +0.000 A 
ATOM     28  C   UNL     1      -1.975  10.270  17.065  0.00  0.00    +0.000 A 
ATOM     29  C   UNL     1      -3.298   9.994  16.725  0.00  0.00    +0.000 A 
ATOM     30  C   UNL     1      -4.321  10.638  17.407  0.00  0.00    +0.000 A 
ATOM     31  C   UNL     1      -3.972  11.536  18.396  0.00  0.00    +0.000 A 
ATOM     32  N   UNL     1      -2.697  11.820  18.737  0.00  0.00    +0.000 NA
ATOM     33  H   UNL     1       0.151  10.608  18.553  0.00  0.00    +0.000 HD
ENDBRANCH  25  26
ENDBRANCH  22  25
ENDBRANCH  21  22
ENDBRANCH  20  21
ENDBRANCH   4  20
TORSDOF 9
ENDMDL
