MODEL 1
REMARK VINA RESULT:      -7.6      0.000      0.000
REMARK  Name = 
REMARK  9 active torsions:
REMARK  status: ('A' for Active; 'I' for Inactive)
REMARK    1  A    between atoms: C_2  and  C_3
REMARK    2  A    between atoms: C_3  and  N_4
REMARK    3  A    between atoms: C_5  and  C_7
REMARK    4  A    between atoms: C_7  and  S_8
REMARK    5  A    between atoms: S_8  and  C_9
REMARK    6  A    between atoms: C_12  and  C_13
REMARK    7  A    between atoms: N_19  and  C_20
REMARK    8  A    between atoms: C_20  and  C_21
REMARK    9  A    between atoms: C_21  and  C_22
REMARK                            x       y       z     vdW  Elec       q    Type
REMARK                         _______ _______ _______ _____ _____    ______ ____
ROOT
ATOM      1  C   UNL     1       4.905   4.739  16.590  0.00  0.00    +0.000 A 
ATOM      2  N   UNL     1       5.001   3.443  16.431  0.00  0.00    +0.000 NA
ATOM      3  N   UNL     1       4.271   2.839  17.413  0.00  0.00    +0.000 NA
ATOM      4  C   UNL     1       3.716   3.770  18.172  0.00  0.00    +0.000 A 
ATOM      5  N   UNL     1       4.150   5.014  17.707  0.00  0.00    +0.000 N 
ENDROOT
BRANCH   4   6
ATOM      6  C   UNL     1       2.856   3.475  19.331  0.00  0.00    +0.000 A 
ATOM      7  C   UNL     1       1.494   3.786  19.255  0.00  0.00    +0.000 A 
ATOM      8  C   UNL     1       0.673   3.511  20.339  0.00  0.00    +0.000 A 
ATOM      9  N   UNL     1       1.110   2.940  21.480  0.00  0.00    +0.000 NA
ATOM     10  C   UNL     1       2.428   2.677  21.555  0.00  0.00    +0.000 A 
ATOM     11  C   UNL     1       3.330   2.942  20.534  0.00  0.00    +0.000 A 
ENDBRANCH   4   6
BRANCH   1  12
ATOM     12  S   UNL     1       5.447   5.884  15.411  0.00  0.00    +0.000 S 
BRANCH  12  13
ATOM     13  C   UNL     1       7.042   5.243  14.833  0.00  0.00    +0.000 C 
BRANCH  13  15
ATOM     14  N   UNL     1       6.313   3.536  13.193  0.00  0.00    +0.000 N 
ATOM     15  C   UNL     1       7.093   4.642  13.437  0.00  0.00    +0.000 C 
ATOM     16  O   UNL     1       7.762   5.183  12.556  0.00  0.00    +0.000 OA
ATOM     17  H   UNL     1       6.092   2.983  14.012  0.00  0.00    +0.000 HD
BRANCH  14  18
ATOM     18  C   UNL     1       6.459   2.807  11.961  0.00  0.00    +0.000 C 
BRANCH  18  20
ATOM     19  C   UNL     1       4.135   3.381  11.226  0.00  0.00    +0.000 C 
ATOM     20  C   UNL     1       5.088   2.472  11.471  0.00  0.00    +0.000 C 
ENDBRANCH  18  20
ENDBRANCH  14  18
ENDBRANCH  13  15
ENDBRANCH  12  13
ENDBRANCH   1  12
BRANCH   5  21
ATOM     21  C   UNL     1       3.849   6.266  18.381  0.00  0.00    +0.000 C 
BRANCH  21  22
ATOM     22  C   UNL     1       2.769   7.195  17.835  0.00  0.00    +0.000 C 
BRANCH  22  23
ATOM     23  C   UNL     1       2.042   8.033  18.862  0.00  0.00    +0.000 A 
ATOM     24  C   UNL     1       1.910   7.499  20.153  0.00  0.00    +0.000 A 
ATOM     25  C   UNL     1       1.244   8.200  21.157  0.00  0.00    +0.000 A 
ATOM     26  C   UNL     1       0.719   9.459  20.892  0.00  0.00    +0.000 A 
ATOM     27  C   UNL     1       0.881  10.026  19.629  0.00  0.00    +0.000 A 
ATOM     28  C   UNL     1       1.550   9.321  18.623  0.00  0.00    +0.000 A 
ENDBRANCH  22  23
ENDBRANCH  21  22
ENDBRANCH   5  21
TORSDOF 9
ENDMDL
MODEL 2
REMARK VINA RESULT:      -7.5      1.366      1.879
REMARK  Name = 
REMARK  9 active torsions:
REMARK  status: ('A' for Active; 'I' for Inactive)
REMARK    1  A    between atoms: C_2  and  C_3
REMARK    2  A    between atoms: C_3  and  N_4
REMARK    3  A    between atoms: C_5  and  C_7
REMARK    4  A    between atoms: C_7  and  S_8
REMARK    5  A    between atoms: S_8  and  C_9
REMARK    6  A    between atoms: C_12  and  C_13
REMARK    7  A    between atoms: N_19  and  C_20
REMARK    8  A    between atoms: C_20  and  C_21
REMARK    9  A    between atoms: C_21  and  C_22
REMARK                            x       y       z     vdW  Elec       q    Type
REMARK                         _______ _______ _______ _____ _____    ______ ____
ROOT
ATOM      1  C   UNL     1       5.952   5.218  18.003  0.00  0.00    +0.000 A 
ATOM      2  N   UNL     1       6.467   4.410  18.895  0.00  0.00    +0.000 NA
ATOM      3  N   UNL     1       5.445   3.739  19.502  0.00  0.00    +0.000 NA
ATOM      4  C   UNL     1       4.298   4.130  18.972  0.00  0.00    +0.000 A 
ATOM      5  N   UNL     1       4.579   5.130  18.036  0.00  0.00    +0.000 N 
ENDROOT
BRANCH   4   6
ATOM      6  C   UNL     1       2.985   3.610  19.388  0.00  0.00    +0.000 A 
ATOM      7  C   UNL     1       2.619   3.704  20.735  0.00  0.00    +0.000 A 
ATOM      8  C   UNL     1       1.384   3.219  21.139  0.00  0.00    +0.000 A 
ATOM      9  N   UNL     1       0.489   2.663  20.298  0.00  0.00    +0.000 NA
ATOM     10  C   UNL     1       0.865   2.547  19.011  0.00  0.00    +0.000 A 
ATOM     11  C   UNL     1       2.090   2.977  18.520  0.00  0.00    +0.000 A 
ENDBRANCH   4   6
BRANCH   1  12
ATOM     12  S   UNL     1       6.897   6.052  16.818  0.00  0.00    +0.000 S 
BRANCH  12  13
ATOM     13  C   UNL     1       7.365   4.782  15.610  0.00  0.00    +0.000 C 
BRANCH  13  15
ATOM     14  N   UNL     1       6.927   3.831  13.366  0.00  0.00    +0.000 N 
ATOM     15  C   UNL     1       6.447   4.578  14.416  0.00  0.00    +0.000 C 
ATOM     16  O   UNL     1       5.297   5.018  14.438  0.00  0.00    +0.000 OA
ATOM     17  H   UNL     1       7.936   3.816  13.282  0.00  0.00    +0.000 HD
BRANCH  14  18
ATOM     18  C   UNL     1       6.190   3.761  12.132  0.00  0.00    +0.000 C 
BRANCH  18  20
ATOM     19  C   UNL     1       6.269   1.413  11.266  0.00  0.00    +0.000 C 
ATOM     20  C   UNL     1       5.673   2.366  11.995  0.00  0.00    +0.000 C 
ENDBRANCH  18  20
ENDBRANCH  14  18
ENDBRANCH  13  15
ENDBRANCH  12  13
ENDBRANCH   1  12
BRANCH   5  21
ATOM     21  C   UNL     1       3.549   5.890  17.349  0.00  0.00    +0.000 C 
BRANCH  21  22
ATOM     22  C   UNL     1       3.474   7.405  17.508  0.00  0.00    +0.000 C 
BRANCH  22  23
ATOM     23  C   UNL     1       2.535   7.908  18.583  0.00  0.00    +0.000 A 
ATOM     24  C   UNL     1       1.805   9.074  18.306  0.00  0.00    +0.000 A 
ATOM     25  C   UNL     1       0.927   9.612  19.246  0.00  0.00    +0.000 A 
ATOM     26  C   UNL     1       0.746   8.977  20.469  0.00  0.00    +0.000 A 
ATOM     27  C   UNL     1       1.426   7.792  20.742  0.00  0.00    +0.000 A 
ATOM     28  C   UNL     1       2.308   7.253  19.798  0.00  0.00    +0.000 A 
ENDBRANCH  22  23
ENDBRANCH  21  22
ENDBRANCH   5  21
TORSDOF 9
ENDMDL
MODEL 3
REMARK VINA RESULT:      -7.5      0.509      1.136
REMARK  Name = 
REMARK  9 active torsions:
REMARK  status: ('A' for Active; 'I' for Inactive)
REMARK    1  A    between atoms: C_2  and  C_3
REMARK    2  A    between atoms: C_3  and  N_4
REMARK    3  A    between atoms: C_5  and  C_7
REMARK    4  A    between atoms: C_7  and  S_8
REMARK    5  A    between atoms: S_8  and  C_9
REMARK    6  A    between atoms: C_12  and  C_13
REMARK    7  A    between atoms: N_19  and  C_20
REMARK    8  A    between atoms: C_20  and  C_21
REMARK    9  A    between atoms: C_21  and  C_22
REMARK                            x       y       z     vdW  Elec       q    Type
REMARK                         _______ _______ _______ _____ _____    ______ ____
ROOT
ATOM      1  C   UNL     1       4.904   4.742  16.714  0.00  0.00    +0.000 A 
ATOM      2  N   UNL     1       4.944   3.450  16.503  0.00  0.00    +0.000 NA
ATOM      3  N   UNL     1       4.165   2.842  17.445  0.00  0.00    +0.000 NA
ATOM      4  C   UNL     1       3.638   3.766  18.231  0.00  0.00    +0.000 A 
ATOM      5  N   UNL     1       4.138   5.007  17.826  0.00  0.00    +0.000 N 
ENDROOT
BRANCH   4   6
ATOM      6  C   UNL     1       2.739   3.466  19.359  0.00  0.00    +0.000 A 
ATOM      7  C   UNL     1       3.271   2.852  20.498  0.00  0.00    +0.000 A 
ATOM      8  C   UNL     1       2.436   2.566  21.567  0.00  0.00    +0.000 A 
ATOM      9  N   UNL     1       1.120   2.859  21.586  0.00  0.00    +0.000 NA
ATOM     10  C   UNL     1       0.613   3.419  20.472  0.00  0.00    +0.000 A 
ATOM     11  C   UNL     1       1.364   3.715  19.343  0.00  0.00    +0.000 A 
ENDBRANCH   4   6
BRANCH   1  12
ATOM     12  S   UNL     1       5.524   5.907  15.594  0.00  0.00    +0.000 S 
BRANCH  12  13
ATOM     13  C   UNL     1       7.107   5.221  15.032  0.00  0.00    +0.000 C 
BRANCH  13  15
ATOM     14  N   UNL     1       6.421   3.885  13.063  0.00  0.00    +0.000 N 
ATOM     15  C   UNL     1       7.237   4.875  13.557  0.00  0.00    +0.000 C 
ATOM     16  O   UNL     1       8.003   5.517  12.837  0.00  0.00    +0.000 OA
ATOM     17  H   UNL     1       6.106   3.212  13.750  0.00  0.00    +0.000 HD
BRANCH  14  18
ATOM     18  C   UNL     1       6.626   3.377  11.732  0.00  0.00    +0.000 C 
BRANCH  18  20
ATOM     19  C   UNL     1       6.352   0.973  11.088  0.00  0.00    +0.000 C 
ATOM     20  C   UNL     1       5.857   2.103  11.612  0.00  0.00    +0.000 C 
ENDBRANCH  18  20
ENDBRANCH  14  18
ENDBRANCH  13  15
ENDBRANCH  12  13
ENDBRANCH   1  12
BRANCH   5  21
ATOM     21  C   UNL     1       3.880   6.243  18.544  0.00  0.00    +0.000 C 
BRANCH  21  22
ATOM     22  C   UNL     1       3.004   7.327  17.923  0.00  0.00    +0.000 C 
BRANCH  22  23
ATOM     23  C   UNL     1       2.099   8.070  18.880  0.00  0.00    +0.000 A 
ATOM     24  C   UNL     1       1.948   7.536  20.169  0.00  0.00    +0.000 A 
ATOM     25  C   UNL     1       1.122   8.151  21.110  0.00  0.00    +0.000 A 
ATOM     26  C   UNL     1       0.454   9.325  20.784  0.00  0.00    +0.000 A 
ATOM     27  C   UNL     1       0.630   9.896  19.525  0.00  0.00    +0.000 A 
ATOM     28  C   UNL     1       1.458   9.278  18.581  0.00  0.00    +0.000 A 
ENDBRANCH  22  23
ENDBRANCH  21  22
ENDBRANCH   5  21
TORSDOF 9
ENDMDL
MODEL 4
REMARK VINA RESULT:      -7.4      1.185      1.520
REMARK  Name = 
REMARK  9 active torsions:
REMARK  status: ('A' for Active; 'I' for Inactive)
REMARK    1  A    between atoms: C_2  and  C_3
REMARK    2  A    between atoms: C_3  and  N_4
REMARK    3  A    between atoms: C_5  and  C_7
REMARK    4  A    between atoms: C_7  and  S_8
REMARK    5  A    between atoms: S_8  and  C_9
REMARK    6  A    between atoms: C_12  and  C_13
REMARK    7  A    between atoms: N_19  and  C_20
REMARK    8  A    between atoms: C_20  and  C_21
REMARK    9  A    between atoms: C_21  and  C_22
REMARK                            x       y       z     vdW  Elec       q    Type
REMARK                         _______ _______ _______ _____ _____    ______ ____
ROOT
ATOM      1  C   UNL     1       5.909   5.159  17.926  0.00  0.00    +0.000 A 
ATOM      2  N   UNL     1       6.512   4.379  18.788  0.00  0.00    +0.000 NA
ATOM      3  N   UNL     1       5.557   3.728  19.514  0.00  0.00    +0.000 NA
ATOM      4  C   UNL     1       4.362   4.104  19.087  0.00  0.00    +0.000 A 
ATOM      5  N   UNL     1       4.547   5.073  18.098  0.00  0.00    +0.000 N 
ENDROOT
BRANCH   4   6
ATOM      6  C   UNL     1       3.097   3.597  19.647  0.00  0.00    +0.000 A 
ATOM      7  C   UNL     1       2.850   3.768  21.014  0.00  0.00    +0.000 A 
ATOM      8  C   UNL     1       1.661   3.298  21.553  0.00  0.00    +0.000 A 
ATOM      9  N   UNL     1       0.704   2.685  20.827  0.00  0.00    +0.000 NA
ATOM     10  C   UNL     1       0.967   2.496  19.521  0.00  0.00    +0.000 A 
ATOM     11  C   UNL     1       2.139   2.906  18.900  0.00  0.00    +0.000 A 
ENDBRANCH   4   6
BRANCH   1  12
ATOM     12  S   UNL     1       6.732   5.955  16.628  0.00  0.00    +0.000 S 
BRANCH  12  13
ATOM     13  C   UNL     1       7.406   4.616  15.608  0.00  0.00    +0.000 C 
BRANCH  13  15
ATOM     14  N   UNL     1       6.055   3.610  13.792  0.00  0.00    +0.000 N 
ATOM     15  C   UNL     1       6.980   4.563  14.150  0.00  0.00    +0.000 C 
ATOM     16  O   UNL     1       7.410   5.395  13.350  0.00  0.00    +0.000 OA
ATOM     17  H   UNL     1       6.031   2.795  14.392  0.00  0.00    +0.000 HD
BRANCH  14  18
ATOM     18  C   UNL     1       5.755   3.380  12.403  0.00  0.00    +0.000 C 
BRANCH  18  20
ATOM     19  C   UNL     1       6.605   1.491  10.997  0.00  0.00    +0.000 C 
ATOM     20  C   UNL     1       6.828   2.499  11.850  0.00  0.00    +0.000 C 
ENDBRANCH  18  20
ENDBRANCH  14  18
ENDBRANCH  13  15
ENDBRANCH  12  13
ENDBRANCH   1  12
BRANCH   5  21
ATOM     21  C   UNL     1       3.453   5.812  17.492  0.00  0.00    +0.000 C 
BRANCH  21  22
ATOM     22  C   UNL     1       3.431   7.337  17.542  0.00  0.00    +0.000 C 
BRANCH  22  23
ATOM     23  C   UNL     1       2.480   7.949  18.546  0.00  0.00    +0.000 A 
ATOM     24  C   UNL     1       2.310   7.275  19.765  0.00  0.00    +0.000 A 
ATOM     25  C   UNL     1       1.443   7.763  20.742  0.00  0.00    +0.000 A 
ATOM     26  C   UNL     1       0.751   8.948  20.524  0.00  0.00    +0.000 A 
ATOM     27  C   UNL     1       0.943   9.657  19.339  0.00  0.00    +0.000 A 
ATOM     28  C   UNL     1       1.814   9.165  18.360  0.00  0.00    +0.000 A 
ENDBRANCH  22  23
ENDBRANCH  21  22
ENDBRANCH   5  21
TORSDOF 9
ENDMDL
MODEL 5
REMARK VINA RESULT:      -7.4      1.286      1.698
REMARK  Name = 
REMARK  9 active torsions:
REMARK  status: ('A' for Active; 'I' for Inactive)
REMARK    1  A    between atoms: C_2  and  C_3
REMARK    2  A    between atoms: C_3  and  N_4
REMARK    3  A    between atoms: C_5  and  C_7
REMARK    4  A    between atoms: C_7  and  S_8
REMARK    5  A    between atoms: S_8  and  C_9
REMARK    6  A    between atoms: C_12  and  C_13
REMARK    7  A    between atoms: N_19  and  C_20
REMARK    8  A    between atoms: C_20  and  C_21
REMARK    9  A    between atoms: C_21  and  C_22
REMARK                            x       y       z     vdW  Elec       q    Type
REMARK                         _______ _______ _______ _____ _____    ______ ____
ROOT
ATOM      1  C   UNL     1       6.022   5.173  17.901  0.00  0.00    +0.000 A 
ATOM      2  N   UNL     1       6.631   4.390  18.756  0.00  0.00    +0.000 NA
ATOM      3  N   UNL     1       5.683   3.771  19.518  0.00  0.00    +0.000 NA
ATOM      4  C   UNL     1       4.485   4.169  19.120  0.00  0.00    +0.000 A 
ATOM      5  N   UNL     1       4.663   5.121  18.113  0.00  0.00    +0.000 N 
ENDROOT
BRANCH   4   6
ATOM      6  C   UNL     1       3.225   3.699  19.723  0.00  0.00    +0.000 A 
ATOM      7  C   UNL     1       2.457   2.758  19.030  0.00  0.00    +0.000 A 
ATOM      8  C   UNL     1       1.270   2.306  19.588  0.00  0.00    +0.000 A 
ATOM      9  N   UNL     1       0.806   2.715  20.786  0.00  0.00    +0.000 NA
ATOM     10  C   UNL     1       1.536   3.646  21.428  0.00  0.00    +0.000 A 
ATOM     11  C   UNL     1       2.720   4.177  20.936  0.00  0.00    +0.000 A 
ENDBRANCH   4   6
BRANCH   1  12
ATOM     12  S   UNL     1       6.824   5.933  16.570  0.00  0.00    +0.000 S 
BRANCH  12  13
ATOM     13  C   UNL     1       5.864   5.454  15.107  0.00  0.00    +0.000 C 
BRANCH  13  15
ATOM     14  N   UNL     1       6.075   3.902  13.189  0.00  0.00    +0.000 N 
ATOM     15  C   UNL     1       6.632   4.938  13.902  0.00  0.00    +0.000 C 
ATOM     16  O   UNL     1       7.679   5.486  13.555  0.00  0.00    +0.000 OA
ATOM     17  H   UNL     1       5.440   3.316  13.717  0.00  0.00    +0.000 HD
BRANCH  14  18
ATOM     18  C   UNL     1       6.835   3.243  12.160  0.00  0.00    +0.000 C 
BRANCH  18  20
ATOM     19  C   UNL     1       6.389   1.017  11.103  0.00  0.00    +0.000 C 
ATOM     20  C   UNL     1       5.954   2.204  11.545  0.00  0.00    +0.000 C 
ENDBRANCH  18  20
ENDBRANCH  14  18
ENDBRANCH  13  15
ENDBRANCH  12  13
ENDBRANCH   1  12
BRANCH   5  21
ATOM     21  C   UNL     1       3.569   5.877  17.528  0.00  0.00    +0.000 C 
BRANCH  21  22
ATOM     22  C   UNL     1       3.592   7.403  17.545  0.00  0.00    +0.000 C 
BRANCH  22  23
ATOM     23  C   UNL     1       2.543   8.067  18.409  0.00  0.00    +0.000 A 
ATOM     24  C   UNL     1       1.816   9.125  17.841  0.00  0.00    +0.000 A 
ATOM     25  C   UNL     1       0.839   9.800  18.572  0.00  0.00    +0.000 A 
ATOM     26  C   UNL     1       0.557   9.411  19.876  0.00  0.00    +0.000 A 
ATOM     27  C   UNL     1       1.235   8.332  20.441  0.00  0.00    +0.000 A 
ATOM     28  C   UNL     1       2.215   7.655  19.706  0.00  0.00    +0.000 A 
ENDBRANCH  22  23
ENDBRANCH  21  22
ENDBRANCH   5  21
TORSDOF 9
ENDMDL
MODEL 6
REMARK VINA RESULT:      -7.4      1.845      4.083
REMARK  Name = 
REMARK  9 active torsions:
REMARK  status: ('A' for Active; 'I' for Inactive)
REMARK    1  A    between atoms: C_2  and  C_3
REMARK    2  A    between atoms: C_3  and  N_4
REMARK    3  A    between atoms: C_5  and  C_7
REMARK    4  A    between atoms: C_7  and  S_8
REMARK    5  A    between atoms: S_8  and  C_9
REMARK    6  A    between atoms: C_12  and  C_13
REMARK    7  A    between atoms: N_19  and  C_20
REMARK    8  A    between atoms: C_20  and  C_21
REMARK    9  A    between atoms: C_21  and  C_22
REMARK                            x       y       z     vdW  Elec       q    Type
REMARK                         _______ _______ _______ _____ _____    ______ ____
ROOT
ATOM      1  C   UNL     1       5.579   6.106  16.738  0.00  0.00    +0.000 A 
ATOM      2  N   UNL     1       5.059   6.808  15.763  0.00  0.00    +0.000 NA
ATOM      3  N   UNL     1       3.991   7.499  16.259  0.00  0.00    +0.000 NA
ATOM      4  C   UNL     1       3.862   7.227  17.547  0.00  0.00    +0.000 A 
ATOM      5  N   UNL     1       4.837   6.283  17.884  0.00  0.00    +0.000 N 
ENDROOT
BRANCH   4   6
ATOM      6  C   UNL     1       2.812   7.802  18.404  0.00  0.00    +0.000 A 
ATOM      7  C   UNL     1       2.172   8.975  17.989  0.00  0.00    +0.000 A 
ATOM      8  C   UNL     1       1.179   9.525  18.786  0.00  0.00    +0.000 A 
ATOM      9  N   UNL     1       0.774   8.985  19.953  0.00  0.00    +0.000 NA
ATOM     10  C   UNL     1       1.419   7.876  20.358  0.00  0.00    +0.000 A 
ATOM     11  C   UNL     1       2.442   7.270  19.643  0.00  0.00    +0.000 A 
ENDBRANCH   4   6
BRANCH   1  12
ATOM     12  S   UNL     1       7.106   5.300  16.619  0.00  0.00    +0.000 S 
BRANCH  12  13
ATOM     13  C   UNL     1       6.799   3.868  15.549  0.00  0.00    +0.000 C 
BRANCH  13  15
ATOM     14  N   UNL     1       5.787   3.285  13.365  0.00  0.00    +0.000 N 
ATOM     15  C   UNL     1       6.619   4.129  14.062  0.00  0.00    +0.000 C 
ATOM     16  O   UNL     1       7.155   5.106  13.537  0.00  0.00    +0.000 OA
ATOM     17  H   UNL     1       5.683   2.362  13.769  0.00  0.00    +0.000 HD
BRANCH  14  18
ATOM     18  C   UNL     1       5.723   3.357  11.929  0.00  0.00    +0.000 C 
BRANCH  18  20
ATOM     19  C   UNL     1       3.711   3.716  10.483  0.00  0.00    +0.000 C 
ATOM     20  C   UNL     1       4.302   3.125  11.529  0.00  0.00    +0.000 C 
ENDBRANCH  18  20
ENDBRANCH  14  18
ENDBRANCH  13  15
ENDBRANCH  12  13
ENDBRANCH   1  12
BRANCH   5  21
ATOM     21  C   UNL     1       4.915   5.648  19.188  0.00  0.00    +0.000 C 
BRANCH  21  22
ATOM     22  C   UNL     1       4.690   4.145  19.327  0.00  0.00    +0.000 C 
BRANCH  22  23
ATOM     23  C   UNL     1       3.246   3.699  19.402  0.00  0.00    +0.000 A 
ATOM     24  C   UNL     1       2.651   3.657  20.671  0.00  0.00    +0.000 A 
ATOM     25  C   UNL     1       1.328   3.246  20.831  0.00  0.00    +0.000 A 
ATOM     26  C   UNL     1       0.572   2.895  19.719  0.00  0.00    +0.000 A 
ATOM     27  C   UNL     1       1.132   2.976  18.446  0.00  0.00    +0.000 A 
ATOM     28  C   UNL     1       2.460   3.388  18.287  0.00  0.00    +0.000 A 
ENDBRANCH  22  23
ENDBRANCH  21  22
ENDBRANCH   5  21
TORSDOF 9
ENDMDL
MODEL 7
REMARK VINA RESULT:      -7.3      1.618      4.070
REMARK  Name = 
REMARK  9 active torsions:
REMARK  status: ('A' for Active; 'I' for Inactive)
REMARK    1  A    between atoms: C_2  and  C_3
REMARK    2  A    between atoms: C_3  and  N_4
REMARK    3  A    between atoms: C_5  and  C_7
REMARK    4  A    between atoms: C_7  and  S_8
REMARK    5  A    between atoms: S_8  and  C_9
REMARK    6  A    between atoms: C_12  and  C_13
REMARK    7  A    between atoms: N_19  and  C_20
REMARK    8  A    between atoms: C_20  and  C_21
REMARK    9  A    between atoms: C_21  and  C_22
REMARK                            x       y       z     vdW  Elec       q    Type
REMARK                         _______ _______ _______ _____ _____    ______ ____
ROOT
ATOM      1  C   UNL     1       5.192   5.020  16.333  0.00  0.00    +0.000 A 
ATOM      2  N   UNL     1       5.967   6.039  16.608  0.00  0.00    +0.000 NA
ATOM      3  N   UNL     1       5.290   6.874  17.449  0.00  0.00    +0.000 NA
ATOM      4  C   UNL     1       4.098   6.357  17.701  0.00  0.00    +0.000 A 
ATOM      5  N   UNL     1       3.974   5.184  16.951  0.00  0.00    +0.000 N 
ENDROOT
BRANCH   4   6
ATOM      6  C   UNL     1       3.099   6.994  18.576  0.00  0.00    +0.000 A 
ATOM      7  C   UNL     1       2.735   6.348  19.763  0.00  0.00    +0.000 A 
ATOM      8  C   UNL     1       1.797   6.939  20.597  0.00  0.00    +0.000 A 
ATOM      9  N   UNL     1       1.210   8.125  20.338  0.00  0.00    +0.000 NA
ATOM     10  C   UNL     1       1.543   8.720  19.178  0.00  0.00    +0.000 A 
ATOM     11  C   UNL     1       2.449   8.193  18.268  0.00  0.00    +0.000 A 
ENDBRANCH   4   6
BRANCH   1  12
ATOM     12  S   UNL     1       5.749   3.593  15.528  0.00  0.00    +0.000 S 
BRANCH  12  13
ATOM     13  C   UNL     1       6.784   4.197  14.166  0.00  0.00    +0.000 C 
BRANCH  13  15
ATOM     14  N   UNL     1       5.061   3.429  12.561  0.00  0.00    +0.000 N 
ATOM     15  C   UNL     1       6.359   3.841  12.751  0.00  0.00    +0.000 C 
ATOM     16  O   UNL     1       7.146   3.987  11.814  0.00  0.00    +0.000 OA
ATOM     17  H   UNL     1       4.622   3.020  13.377  0.00  0.00    +0.000 HD
BRANCH  14  18
ATOM     18  C   UNL     1       4.649   2.896  11.290  0.00  0.00    +0.000 C 
BRANCH  18  20
ATOM     19  C   UNL     1       3.068   3.811   9.578  0.00  0.00    +0.000 C 
ATOM     20  C   UNL     1       3.435   3.650  10.856  0.00  0.00    +0.000 C 
ENDBRANCH  18  20
ENDBRANCH  14  18
ENDBRANCH  13  15
ENDBRANCH  12  13
ENDBRANCH   1  12
BRANCH   5  21
ATOM     21  C   UNL     1       2.744   4.416  16.872  0.00  0.00    +0.000 C 
BRANCH  21  22
ATOM     22  C   UNL     1       2.677   3.007  17.454  0.00  0.00    +0.000 C 
BRANCH  22  23
ATOM     23  C   UNL     1       2.370   2.920  18.933  0.00  0.00    +0.000 A 
ATOM     24  C   UNL     1       3.456   2.765  19.807  0.00  0.00    +0.000 A 
ATOM     25  C   UNL     1       3.262   2.664  21.184  0.00  0.00    +0.000 A 
ATOM     26  C   UNL     1       1.978   2.741  21.710  0.00  0.00    +0.000 A 
ATOM     27  C   UNL     1       0.891   2.942  20.861  0.00  0.00    +0.000 A 
ATOM     28  C   UNL     1       1.088   3.043  19.479  0.00  0.00    +0.000 A 
ENDBRANCH  22  23
ENDBRANCH  21  22
ENDBRANCH   5  21
TORSDOF 9
ENDMDL
MODEL 8
REMARK VINA RESULT:      -7.1      3.713      5.159
REMARK  Name = 
REMARK  9 active torsions:
REMARK  status: ('A' for Active; 'I' for Inactive)
REMARK    1  A    between atoms: C_2  and  C_3
REMARK    2  A    between atoms: C_3  and  N_4
REMARK    3  A    between atoms: C_5  and  C_7
REMARK    4  A    between atoms: C_7  and  S_8
REMARK    5  A    between atoms: S_8  and  C_9
REMARK    6  A    between atoms: C_12  and  C_13
REMARK    7  A    between atoms: N_19  and  C_20
REMARK    8  A    between atoms: C_20  and  C_21
REMARK    9  A    between atoms: C_21  and  C_22
REMARK                            x       y       z     vdW  Elec       q    Type
REMARK                         _______ _______ _______ _____ _____    ______ ____
ROOT
ATOM      1  C   UNL     1       5.971   5.729  18.406  0.00  0.00    +0.000 A 
ATOM      2  N   UNL     1       6.456   4.974  19.360  0.00  0.00    +0.000 NA
ATOM      3  N   UNL     1       5.444   4.196  19.843  0.00  0.00    +0.000 NA
ATOM      4  C   UNL     1       4.335   4.468  19.174  0.00  0.00    +0.000 A 
ATOM      5  N   UNL     1       4.622   5.497  18.272  0.00  0.00    +0.000 N 
ENDROOT
BRANCH   4   6
ATOM      6  C   UNL     1       3.042   3.810  19.430  0.00  0.00    +0.000 A 
ATOM      7  C   UNL     1       2.541   2.916  18.477  0.00  0.00    +0.000 A 
ATOM      8  C   UNL     1       1.326   2.289  18.708  0.00  0.00    +0.000 A 
ATOM      9  N   UNL     1       0.587   2.478  19.820  0.00  0.00    +0.000 NA
ATOM     10  C   UNL     1       1.063   3.365  20.714  0.00  0.00    +0.000 A 
ATOM     11  C   UNL     1       2.253   4.061  20.556  0.00  0.00    +0.000 A 
ENDBRANCH   4   6
BRANCH   1  12
ATOM     12  S   UNL     1       6.962   6.664  17.340  0.00  0.00    +0.000 S 
BRANCH  12  13
ATOM     13  C   UNL     1       8.212   7.429  18.410  0.00  0.00    +0.000 C 
BRANCH  13  15
ATOM     14  N   UNL     1       9.310   9.520  19.155  0.00  0.00    +0.000 N 
ATOM     15  C   UNL     1       8.364   8.939  18.343  0.00  0.00    +0.000 C 
ATOM     16  O   UNL     1       7.700   9.592  17.536  0.00  0.00    +0.000 OA
ATOM     17  H   UNL     1       9.538   8.989  19.987  0.00  0.00    +0.000 HD
BRANCH  14  18
ATOM     18  C   UNL     1       9.373  10.952  19.282  0.00  0.00    +0.000 C 
BRANCH  18  20
ATOM     19  C   UNL     1      10.350  12.750  17.840  0.00  0.00    +0.000 C 
ATOM     20  C   UNL     1      10.265  11.462  18.199  0.00  0.00    +0.000 C 
ENDBRANCH  18  20
ENDBRANCH  14  18
ENDBRANCH  13  15
ENDBRANCH  12  13
ENDBRANCH   1  12
BRANCH   5  21
ATOM     21  C   UNL     1       3.610   6.148  17.459  0.00  0.00    +0.000 C 
BRANCH  21  22
ATOM     22  C   UNL     1       3.445   7.665  17.502  0.00  0.00    +0.000 C 
BRANCH  22  23
ATOM     23  C   UNL     1       2.438   8.188  18.503  0.00  0.00    +0.000 A 
ATOM     24  C   UNL     1       1.665   9.294  18.119  0.00  0.00    +0.000 A 
ATOM     25  C   UNL     1       0.722   9.848  18.985  0.00  0.00    +0.000 A 
ATOM     26  C   UNL     1       0.522   9.287  20.241  0.00  0.00    +0.000 A 
ATOM     27  C   UNL     1       1.247   8.160  20.621  0.00  0.00    +0.000 A 
ATOM     28  C   UNL     1       2.193   7.605  19.751  0.00  0.00    +0.000 A 
ENDBRANCH  22  23
ENDBRANCH  21  22
ENDBRANCH   5  21
TORSDOF 9
ENDMDL
MODEL 9
REMARK VINA RESULT:      -7.1      0.642      1.332
REMARK  Name = 
REMARK  9 active torsions:
REMARK  status: ('A' for Active; 'I' for Inactive)
REMARK    1  A    between atoms: C_2  and  C_3
REMARK    2  A    between atoms: C_3  and  N_4
REMARK    3  A    between atoms: C_5  and  C_7
REMARK    4  A    between atoms: C_7  and  S_8
REMARK    5  A    between atoms: S_8  and  C_9
REMARK    6  A    between atoms: C_12  and  C_13
REMARK    7  A    between atoms: N_19  and  C_20
REMARK    8  A    between atoms: C_20  and  C_21
REMARK    9  A    between atoms: C_21  and  C_22
REMARK                            x       y       z     vdW  Elec       q    Type
REMARK                         _______ _______ _______ _____ _____    ______ ____
ROOT
ATOM      1  C   UNL     1       4.878   4.600  16.864  0.00  0.00    +0.000 A 
ATOM      2  N   UNL     1       4.732   3.355  16.488  0.00  0.00    +0.000 NA
ATOM      3  N   UNL     1       3.956   2.719  17.414  0.00  0.00    +0.000 NA
ATOM      4  C   UNL     1       3.617   3.582  18.357  0.00  0.00    +0.000 A 
ATOM      5  N   UNL     1       4.242   4.799  18.068  0.00  0.00    +0.000 N 
ENDROOT
BRANCH   4   6
ATOM      6  C   UNL     1       2.778   3.238  19.518  0.00  0.00    +0.000 A 
ATOM      7  C   UNL     1       3.395   2.736  20.670  0.00  0.00    +0.000 A 
ATOM      8  C   UNL     1       2.617   2.411  21.770  0.00  0.00    +0.000 A 
ATOM      9  N   UNL     1       1.277   2.561  21.807  0.00  0.00    +0.000 NA
ATOM     10  C   UNL     1       0.691   3.011  20.683  0.00  0.00    +0.000 A 
ATOM     11  C   UNL     1       1.384   3.336  19.525  0.00  0.00    +0.000 A 
ENDBRANCH   4   6
BRANCH   1  12
ATOM     12  S   UNL     1       5.556   5.826  15.848  0.00  0.00    +0.000 S 
BRANCH  12  13
ATOM     13  C   UNL     1       7.023   5.062  15.105  0.00  0.00    +0.000 C 
BRANCH  13  15
ATOM     14  N   UNL     1       5.939   3.610  13.417  0.00  0.00    +0.000 N 
ATOM     15  C   UNL     1       6.903   4.555  13.677  0.00  0.00    +0.000 C 
ATOM     16  O   UNL     1       7.609   5.037  12.789  0.00  0.00    +0.000 OA
ATOM     17  H   UNL     1       5.670   3.048  14.215  0.00  0.00    +0.000 HD
BRANCH  14  18
ATOM     18  C   UNL     1       5.899   2.951  12.138  0.00  0.00    +0.000 C 
BRANCH  18  20
ATOM     19  C   UNL     1       3.637   2.966  11.066  0.00  0.00    +0.000 C 
ATOM     20  C   UNL     1       4.798   3.574  11.344  0.00  0.00    +0.000 C 
ENDBRANCH  18  20
ENDBRANCH  14  18
ENDBRANCH  13  15
ENDBRANCH  12  13
ENDBRANCH   1  12
BRANCH   5  21
ATOM     21  C   UNL     1       4.206   5.945  18.959  0.00  0.00    +0.000 C 
BRANCH  21  22
ATOM     22  C   UNL     1       2.924   6.299  19.708  0.00  0.00    +0.000 C 
BRANCH  22  23
ATOM     23  C   UNL     1       2.258   7.593  19.296  0.00  0.00    +0.000 A 
ATOM     24  C   UNL     1       1.515   8.273  20.273  0.00  0.00    +0.000 A 
ATOM     25  C   UNL     1       0.858   9.467  19.975  0.00  0.00    +0.000 A 
ATOM     26  C   UNL     1       0.955  10.012  18.701  0.00  0.00    +0.000 A 
ATOM     27  C   UNL     1       1.728   9.375  17.731  0.00  0.00    +0.000 A 
ATOM     28  C   UNL     1       2.386   8.177  18.032  0.00  0.00    +0.000 A 
ENDBRANCH  22  23
ENDBRANCH  21  22
ENDBRANCH   5  21
TORSDOF 9
ENDMDL
