MODEL 1
REMARK VINA RESULT:      -8.6      0.000      0.000
REMARK  Name = 
REMARK  8 active torsions:
REMARK  status: ('A' for Active; 'I' for Inactive)
REMARK    1  A    between atoms: C_1  and  O_2
REMARK    2  A    between atoms: O_2  and  C_3
REMARK    3  A    between atoms: C_8  and  N_9
REMARK    4  A    between atoms: C_11  and  C_12
REMARK    5  A    between atoms: C_17  and  S_18
REMARK    6  A    between atoms: S_18  and  C_19
REMARK    7  A    between atoms: C_22  and  C_23
REMARK    8  A    between atoms: C_23  and  O_25
REMARK                            x       y       z     vdW  Elec       q    Type
REMARK                         _______ _______ _______ _____ _____    ______ ____
ROOT
ATOM      1  C   UNL     1       2.325   4.808  19.500  0.00  0.00    +0.000 A 
ATOM      2  C   UNL     1       1.180   3.980  19.482  0.00  0.00    +0.000 A 
ATOM      3  C   UNL     1       1.280   2.593  19.357  0.00  0.00    +0.000 A 
ATOM      4  C   UNL     1       2.529   2.000  19.250  0.00  0.00    +0.000 A 
ATOM      5  C   UNL     1       3.671   2.795  19.260  0.00  0.00    +0.000 A 
ATOM      6  C   UNL     1       3.591   4.199  19.371  0.00  0.00    +0.000 A 
ENDROOT
BRANCH   1   9
ATOM      7  N   UNL     1       1.336   8.175  20.379  0.00  0.00    +0.000 N 
ATOM      8  C   UNL     1       1.373   6.833  20.691  0.00  0.00    +0.000 A 
ATOM      9  C   UNL     1       2.091   6.233  19.687  0.00  0.00    +0.000 A 
ATOM     10  N   UNL     1       2.462   7.190  18.783  0.00  0.00    +0.000 NA
ATOM     11  N   UNL     1       2.024   8.363  19.219  0.00  0.00    +0.000 NA
BRANCH   7  17
ATOM     12  C   UNL     1       0.646  10.572  20.511  0.00  0.00    +0.000 A 
ATOM     13  C   UNL     1       0.043  11.593  21.262  0.00  0.00    +0.000 A 
ATOM     14  C   UNL     1      -0.519  11.333  22.512  0.00  0.00    +0.000 A 
ATOM     15  C   UNL     1      -0.528  10.036  23.008  0.00  0.00    +0.000 A 
ATOM     16  C   UNL     1       0.051   9.004  22.268  0.00  0.00    +0.000 A 
ATOM     17  C   UNL     1       0.666   9.259  21.026  0.00  0.00    +0.000 A 
BRANCH  12  19
ATOM     18  C   UNL     1       1.408  12.175  18.927  0.00  0.00    +0.000 C 
ATOM     19  O   UNL     1       1.160  10.815  19.269  0.00  0.00    +0.000 OA
ENDBRANCH  12  19
ENDBRANCH   7  17
ENDBRANCH   1   9
BRANCH   6  20
ATOM     20  S   UNL     1       5.174   5.040  19.404  0.00  0.00    +0.000 S 
BRANCH  20  21
ATOM     21  C   UNL     1       5.786   4.948  17.732  0.00  0.00    +0.000 A 
ATOM     22  C   UNL     1       4.856   5.145  16.700  0.00  0.00    +0.000 A 
ATOM     23  C   UNL     1       5.249   5.112  15.358  0.00  0.00    +0.000 A 
ATOM     24  C   UNL     1       6.588   4.865  15.036  0.00  0.00    +0.000 A 
ATOM     25  C   UNL     1       7.533   4.720  16.057  0.00  0.00    +0.000 A 
ATOM     26  C   UNL     1       7.132   4.761  17.397  0.00  0.00    +0.000 A 
BRANCH  24  27
ATOM     27  C   UNL     1       7.045   4.789  13.627  0.00  0.00    +0.000 C 
ATOM     28  O   UNL     1       7.881   5.537  13.156  0.00  0.00    +0.000 OA
BRANCH  27  29
ATOM     29  O   UNL     1       6.477   3.775  12.937  0.00  0.00    +0.000 OA
ATOM     30  H   UNL     1       5.577   3.536  13.228  0.00  0.00    +0.000 HD
ENDBRANCH  27  29
ENDBRANCH  24  27
ENDBRANCH  20  21
ENDBRANCH   6  20
TORSDOF 7
ENDMDL
MODEL 2
REMARK VINA RESULT:      -8.6      1.016      1.990
REMARK  Name = 
REMARK  8 active torsions:
REMARK  status: ('A' for Active; 'I' for Inactive)
REMARK    1  A    between atoms: C_1  and  O_2
REMARK    2  A    between atoms: O_2  and  C_3
REMARK    3  A    between atoms: C_8  and  N_9
REMARK    4  A    between atoms: C_11  and  C_12
REMARK    5  A    between atoms: C_17  and  S_18
REMARK    6  A    between atoms: S_18  and  C_19
REMARK    7  A    between atoms: C_22  and  C_23
REMARK    8  A    between atoms: C_23  and  O_25
REMARK                            x       y       z     vdW  Elec       q    Type
REMARK                         _______ _______ _______ _____ _____    ______ ____
ROOT
ATOM      1  C   UNL     1       2.474   5.221  19.648  0.00  0.00    +0.000 A 
ATOM      2  C   UNL     1       1.304   4.489  19.952  0.00  0.00    +0.000 A 
ATOM      3  C   UNL     1       1.348   3.126  20.250  0.00  0.00    +0.000 A 
ATOM      4  C   UNL     1       2.566   2.461  20.252  0.00  0.00    +0.000 A 
ATOM      5  C   UNL     1       3.731   3.160  19.951  0.00  0.00    +0.000 A 
ATOM      6  C   UNL     1       3.706   4.534  19.635  0.00  0.00    +0.000 A 
ENDROOT
BRANCH   1   9
ATOM      7  N   UNL     1       1.631   8.736  19.492  0.00  0.00    +0.000 N 
ATOM      8  C   UNL     1       1.612   7.544  20.184  0.00  0.00    +0.000 A 
ATOM      9  C   UNL     1       2.301   6.647  19.407  0.00  0.00    +0.000 A 
ATOM     10  N   UNL     1       2.710   7.280  18.266  0.00  0.00    +0.000 NA
ATOM     11  N   UNL     1       2.323   8.547  18.335  0.00  0.00    +0.000 NA
BRANCH   7  17
ATOM     12  C   UNL     1       0.733  10.426  21.097  0.00  0.00    +0.000 A 
ATOM     13  C   UNL     1       0.034  11.630  21.285  0.00  0.00    +0.000 A 
ATOM     14  C   UNL     1      -0.403  12.386  20.199  0.00  0.00    +0.000 A 
ATOM     15  C   UNL     1      -0.106  11.974  18.906  0.00  0.00    +0.000 A 
ATOM     16  C   UNL     1       0.603  10.790  18.699  0.00  0.00    +0.000 A 
ATOM     17  C   UNL     1       1.009   9.989  19.786  0.00  0.00    +0.000 A 
BRANCH  12  19
ATOM     18  C   UNL     1       0.281   9.442  23.216  0.00  0.00    +0.000 C 
ATOM     19  O   UNL     1       1.199   9.704  22.159  0.00  0.00    +0.000 OA
ENDBRANCH  12  19
ENDBRANCH   7  17
ENDBRANCH   1   9
BRANCH   6  20
ATOM     20  S   UNL     1       5.314   5.260  19.314  0.00  0.00    +0.000 S 
BRANCH  20  21
ATOM     21  C   UNL     1       5.640   4.929  17.593  0.00  0.00    +0.000 A 
ATOM     22  C   UNL     1       6.936   5.194  17.126  0.00  0.00    +0.000 A 
ATOM     23  C   UNL     1       7.289   4.945  15.796  0.00  0.00    +0.000 A 
ATOM     24  C   UNL     1       6.333   4.435  14.911  0.00  0.00    +0.000 A 
ATOM     25  C   UNL     1       5.054   4.118  15.378  0.00  0.00    +0.000 A 
ATOM     26  C   UNL     1       4.711   4.364  16.711  0.00  0.00    +0.000 A 
BRANCH  24  27
ATOM     27  C   UNL     1       6.653   4.186  13.484  0.00  0.00    +0.000 C 
ATOM     28  O   UNL     1       7.446   4.858  12.852  0.00  0.00    +0.000 OA
BRANCH  27  29
ATOM     29  O   UNL     1       6.016   3.107  12.976  0.00  0.00    +0.000 OA
ATOM     30  H   UNL     1       6.330   2.249  13.316  0.00  0.00    +0.000 HD
ENDBRANCH  27  29
ENDBRANCH  24  27
ENDBRANCH  20  21
ENDBRANCH   6  20
TORSDOF 7
ENDMDL
MODEL 3
REMARK VINA RESULT:      -8.4      0.309      1.067
REMARK  Name = 
REMARK  8 active torsions:
REMARK  status: ('A' for Active; 'I' for Inactive)
REMARK    1  A    between atoms: C_1  and  O_2
REMARK    2  A    between atoms: O_2  and  C_3
REMARK    3  A    between atoms: C_8  and  N_9
REMARK    4  A    between atoms: C_11  and  C_12
REMARK    5  A    between atoms: C_17  and  S_18
REMARK    6  A    between atoms: S_18  and  C_19
REMARK    7  A    between atoms: C_22  and  C_23
REMARK    8  A    between atoms: C_23  and  O_25
REMARK                            x       y       z     vdW  Elec       q    Type
REMARK                         _______ _______ _______ _____ _____    ______ ____
ROOT
ATOM      1  C   UNL     1       2.280   4.687  19.566  0.00  0.00    +0.000 A 
ATOM      2  C   UNL     1       1.125   3.874  19.580  0.00  0.00    +0.000 A 
ATOM      3  C   UNL     1       1.203   2.485  19.452  0.00  0.00    +0.000 A 
ATOM      4  C   UNL     1       2.441   1.877  19.308  0.00  0.00    +0.000 A 
ATOM      5  C   UNL     1       3.593   2.657  19.286  0.00  0.00    +0.000 A 
ATOM      6  C   UNL     1       3.534   4.062  19.400  0.00  0.00    +0.000 A 
ENDROOT
BRANCH   1   9
ATOM      7  N   UNL     1       1.319   8.064  20.437  0.00  0.00    +0.000 N 
ATOM      8  C   UNL     1       1.305   6.717  20.729  0.00  0.00    +0.000 A 
ATOM      9  C   UNL     1       2.069   6.115  19.761  0.00  0.00    +0.000 A 
ATOM     10  N   UNL     1       2.517   7.075  18.896  0.00  0.00    +0.000 NA
ATOM     11  N   UNL     1       2.081   8.252  19.323  0.00  0.00    +0.000 NA
BRANCH   7  17
ATOM     12  C   UNL     1       0.495  10.422  20.455  0.00  0.00    +0.000 A 
ATOM     13  C   UNL     1      -0.108  11.463  21.179  0.00  0.00    +0.000 A 
ATOM     14  C   UNL     1      -0.551  11.267  22.487  0.00  0.00    +0.000 A 
ATOM     15  C   UNL     1      -0.440  10.013  23.074  0.00  0.00    +0.000 A 
ATOM     16  C   UNL     1       0.141   8.962  22.363  0.00  0.00    +0.000 A 
ATOM     17  C   UNL     1       0.637   9.156  21.058  0.00  0.00    +0.000 A 
BRANCH  12  19
ATOM     18  C   UNL     1       1.447  11.864  18.820  0.00  0.00    +0.000 C 
ATOM     19  O   UNL     1       0.891  10.598  19.159  0.00  0.00    +0.000 OA
ENDBRANCH  12  19
ENDBRANCH   7  17
ENDBRANCH   1   9
BRANCH   6  20
ATOM     20  S   UNL     1       5.128   4.884  19.389  0.00  0.00    +0.000 S 
BRANCH  20  21
ATOM     21  C   UNL     1       5.668   4.829  17.690  0.00  0.00    +0.000 A 
ATOM     22  C   UNL     1       6.992   5.213  17.428  0.00  0.00    +0.000 A 
ATOM     23  C   UNL     1       7.509   5.181  16.130  0.00  0.00    +0.000 A 
ATOM     24  C   UNL     1       6.691   4.772  15.070  0.00  0.00    +0.000 A 
ATOM     25  C   UNL     1       5.388   4.337  15.326  0.00  0.00    +0.000 A 
ATOM     26  C   UNL     1       4.880   4.366  16.630  0.00  0.00    +0.000 A 
BRANCH  24  27
ATOM     27  C   UNL     1       7.187   4.753  13.672  0.00  0.00    +0.000 C 
ATOM     28  O   UNL     1       6.694   4.063  12.799  0.00  0.00    +0.000 OA
BRANCH  27  29
ATOM     29  O   UNL     1       8.205   5.616  13.456  0.00  0.00    +0.000 OA
ATOM     30  H   UNL     1       8.872   5.309  12.813  0.00  0.00    +0.000 HD
ENDBRANCH  27  29
ENDBRANCH  24  27
ENDBRANCH  20  21
ENDBRANCH   6  20
TORSDOF 7
ENDMDL
MODEL 4
REMARK VINA RESULT:      -8.3      0.992      1.960
REMARK  Name = 
REMARK  8 active torsions:
REMARK  status: ('A' for Active; 'I' for Inactive)
REMARK    1  A    between atoms: C_1  and  O_2
REMARK    2  A    between atoms: O_2  and  C_3
REMARK    3  A    between atoms: C_8  and  N_9
REMARK    4  A    between atoms: C_11  and  C_12
REMARK    5  A    between atoms: C_17  and  S_18
REMARK    6  A    between atoms: S_18  and  C_19
REMARK    7  A    between atoms: C_22  and  C_23
REMARK    8  A    between atoms: C_23  and  O_25
REMARK                            x       y       z     vdW  Elec       q    Type
REMARK                         _______ _______ _______ _____ _____    ______ ____
ROOT
ATOM      1  C   UNL     1       2.607   5.092  19.513  0.00  0.00    +0.000 A 
ATOM      2  C   UNL     1       1.455   4.327  19.805  0.00  0.00    +0.000 A 
ATOM      3  C   UNL     1       1.539   2.977  20.151  0.00  0.00    +0.000 A 
ATOM      4  C   UNL     1       2.780   2.359  20.218  0.00  0.00    +0.000 A 
ATOM      5  C   UNL     1       3.928   3.091  19.930  0.00  0.00    +0.000 A 
ATOM      6  C   UNL     1       3.863   4.452  19.565  0.00  0.00    +0.000 A 
ENDROOT
BRANCH   1   9
ATOM      7  N   UNL     1       1.709   8.587  19.265  0.00  0.00    +0.000 N 
ATOM      8  C   UNL     1       1.784   7.435  20.018  0.00  0.00    +0.000 A 
ATOM      9  C   UNL     1       2.390   6.501  19.216  0.00  0.00    +0.000 A 
ATOM     10  N   UNL     1       2.657   7.072  18.003  0.00  0.00    +0.000 NA
ATOM     11  N   UNL     1       2.265   8.338  18.046  0.00  0.00    +0.000 NA
BRANCH   7  17
ATOM     12  C   UNL     1       0.204  10.048  20.621  0.00  0.00    +0.000 A 
ATOM     13  C   UNL     1      -0.407  11.303  20.777  0.00  0.00    +0.000 A 
ATOM     14  C   UNL     1      -0.144  12.347  19.891  0.00  0.00    +0.000 A 
ATOM     15  C   UNL     1       0.772  12.166  18.861  0.00  0.00    +0.000 A 
ATOM     16  C   UNL     1       1.402  10.932  18.701  0.00  0.00    +0.000 A 
ATOM     17  C   UNL     1       1.110   9.851  19.559  0.00  0.00    +0.000 A 
BRANCH  12  19
ATOM     18  C   UNL     1      -0.003   9.377  22.894  0.00  0.00    +0.000 C 
ATOM     19  O   UNL     1      -0.019   9.036  21.511  0.00  0.00    +0.000 OA
ENDBRANCH  12  19
ENDBRANCH   7  17
ENDBRANCH   1   9
BRANCH   6  20
ATOM     20  S   UNL     1       5.453   5.227  19.272  0.00  0.00    +0.000 S 
BRANCH  20  21
ATOM     21  C   UNL     1       5.821   4.903  17.557  0.00  0.00    +0.000 A 
ATOM     22  C   UNL     1       4.745   4.552  16.728  0.00  0.00    +0.000 A 
ATOM     23  C   UNL     1       4.935   4.300  15.366  0.00  0.00    +0.000 A 
ATOM     24  C   UNL     1       6.221   4.386  14.820  0.00  0.00    +0.000 A 
ATOM     25  C   UNL     1       7.291   4.786  15.625  0.00  0.00    +0.000 A 
ATOM     26  C   UNL     1       7.091   5.042  16.986  0.00  0.00    +0.000 A 
BRANCH  24  27
ATOM     27  C   UNL     1       6.475   4.097  13.388  0.00  0.00    +0.000 C 
ATOM     28  O   UNL     1       5.820   3.300  12.743  0.00  0.00    +0.000 OA
BRANCH  27  29
ATOM     29  O   UNL     1       7.470   4.844  12.861  0.00  0.00    +0.000 OA
ATOM     30  H   UNL     1       8.309   4.366  12.719  0.00  0.00    +0.000 HD
ENDBRANCH  27  29
ENDBRANCH  24  27
ENDBRANCH  20  21
ENDBRANCH   6  20
TORSDOF 7
ENDMDL
MODEL 5
REMARK VINA RESULT:      -8.2      1.337      1.935
REMARK  Name = 
REMARK  8 active torsions:
REMARK  status: ('A' for Active; 'I' for Inactive)
REMARK    1  A    between atoms: C_1  and  O_2
REMARK    2  A    between atoms: O_2  and  C_3
REMARK    3  A    between atoms: C_8  and  N_9
REMARK    4  A    between atoms: C_11  and  C_12
REMARK    5  A    between atoms: C_17  and  S_18
REMARK    6  A    between atoms: S_18  and  C_19
REMARK    7  A    between atoms: C_22  and  C_23
REMARK    8  A    between atoms: C_23  and  O_25
REMARK                            x       y       z     vdW  Elec       q    Type
REMARK                         _______ _______ _______ _____ _____    ______ ____
ROOT
ATOM      1  C   UNL     1       2.586   5.306  19.625  0.00  0.00    +0.000 A 
ATOM      2  C   UNL     1       1.451   4.552  20.000  0.00  0.00    +0.000 A 
ATOM      3  C   UNL     1       1.550   3.206  20.357  0.00  0.00    +0.000 A 
ATOM      4  C   UNL     1       2.788   2.581  20.349  0.00  0.00    +0.000 A 
ATOM      5  C   UNL     1       3.920   3.301  19.978  0.00  0.00    +0.000 A 
ATOM      6  C   UNL     1       3.839   4.658  19.602  0.00  0.00    +0.000 A 
ENDROOT
BRANCH   1   9
ATOM      7  N   UNL     1       1.588   8.768  19.306  0.00  0.00    +0.000 N 
ATOM      8  C   UNL     1       1.591   7.600  20.038  0.00  0.00    +0.000 A 
ATOM      9  C   UNL     1       2.359   6.713  19.326  0.00  0.00    +0.000 A 
ATOM     10  N   UNL     1       2.793   7.327  18.184  0.00  0.00    +0.000 NA
ATOM     11  N   UNL     1       2.344   8.575  18.190  0.00  0.00    +0.000 NA
BRANCH   7  17
ATOM     12  C   UNL     1      -0.089  10.498  18.649  0.00  0.00    +0.000 A 
ATOM     13  C   UNL     1      -0.650  11.762  18.896  0.00  0.00    +0.000 A 
ATOM     14  C   UNL     1      -0.235  12.534  19.980  0.00  0.00    +0.000 A 
ATOM     15  C   UNL     1       0.712  12.033  20.864  0.00  0.00    +0.000 A 
ATOM     16  C   UNL     1       1.268  10.772  20.645  0.00  0.00    +0.000 A 
ATOM     17  C   UNL     1       0.896   9.999  19.526  0.00  0.00    +0.000 A 
BRANCH  12  19
ATOM     18  C   UNL     1      -1.859   9.925  17.166  0.00  0.00    +0.000 C 
ATOM     19  O   UNL     1      -0.522   9.721  17.612  0.00  0.00    +0.000 OA
ENDBRANCH  12  19
ENDBRANCH   7  17
ENDBRANCH   1   9
BRANCH   6  20
ATOM     20  S   UNL     1       5.411   5.419  19.196  0.00  0.00    +0.000 S 
BRANCH  20  21
ATOM     21  C   UNL     1       5.686   5.033  17.477  0.00  0.00    +0.000 A 
ATOM     22  C   UNL     1       6.960   5.307  16.957  0.00  0.00    +0.000 A 
ATOM     23  C   UNL     1       7.273   5.017  15.625  0.00  0.00    +0.000 A 
ATOM     24  C   UNL     1       6.299   4.457  14.792  0.00  0.00    +0.000 A 
ATOM     25  C   UNL     1       5.044   4.131  15.314  0.00  0.00    +0.000 A 
ATOM     26  C   UNL     1       4.740   4.418  16.649  0.00  0.00    +0.000 A 
BRANCH  24  27
ATOM     27  C   UNL     1       6.576   4.163  13.365  0.00  0.00    +0.000 C 
ATOM     28  O   UNL     1       5.931   3.365  12.711  0.00  0.00    +0.000 OA
BRANCH  27  29
ATOM     29  O   UNL     1       7.582   4.907  12.853  0.00  0.00    +0.000 OA
ATOM     30  H   UNL     1       7.384   5.326  11.994  0.00  0.00    +0.000 HD
ENDBRANCH  27  29
ENDBRANCH  24  27
ENDBRANCH  20  21
ENDBRANCH   6  20
TORSDOF 7
ENDMDL
MODEL 6
REMARK VINA RESULT:      -8.2      4.033      9.600
REMARK  Name = 
REMARK  8 active torsions:
REMARK  status: ('A' for Active; 'I' for Inactive)
REMARK    1  A    between atoms: C_1  and  O_2
REMARK    2  A    between atoms: O_2  and  C_3
REMARK    3  A    between atoms: C_8  and  N_9
REMARK    4  A    between atoms: C_11  and  C_12
REMARK    5  A    between atoms: C_17  and  S_18
REMARK    6  A    between atoms: S_18  and  C_19
REMARK    7  A    between atoms: C_22  and  C_23
REMARK    8  A    between atoms: C_23  and  O_25
REMARK                            x       y       z     vdW  Elec       q    Type
REMARK                         _______ _______ _______ _____ _____    ______ ____
ROOT
ATOM      1  C   UNL     1       0.687   9.552  20.604  0.00  0.00    +0.000 A 
ATOM      2  C   UNL     1       0.829   8.918  21.859  0.00  0.00    +0.000 A 
ATOM      3  C   UNL     1       0.169   9.387  22.996  0.00  0.00    +0.000 A 
ATOM      4  C   UNL     1      -0.650  10.503  22.906  0.00  0.00    +0.000 A 
ATOM      5  C   UNL     1      -0.801  11.147  21.682  0.00  0.00    +0.000 A 
ATOM      6  C   UNL     1      -0.133  10.697  20.524  0.00  0.00    +0.000 A 
ENDROOT
BRANCH   1   9
ATOM      7  N   UNL     1       2.609   7.612  18.231  0.00  0.00    +0.000 N 
ATOM      8  C   UNL     1       1.988   7.703  19.458  0.00  0.00    +0.000 A 
ATOM      9  C   UNL     1       1.385   8.935  19.485  0.00  0.00    +0.000 A 
ATOM     10  N   UNL     1       1.652   9.578  18.308  0.00  0.00    +0.000 NA
ATOM     11  N   UNL     1       2.371   8.764  17.546  0.00  0.00    +0.000 NA
BRANCH   7  17
ATOM     12  C   UNL     1       3.206   5.212  17.878  0.00  0.00    +0.000 A 
ATOM     13  C   UNL     1       4.134   4.280  17.387  0.00  0.00    +0.000 A 
ATOM     14  C   UNL     1       5.293   4.694  16.732  0.00  0.00    +0.000 A 
ATOM     15  C   UNL     1       5.518   6.048  16.516  0.00  0.00    +0.000 A 
ATOM     16  C   UNL     1       4.598   6.989  16.981  0.00  0.00    +0.000 A 
ATOM     17  C   UNL     1       3.446   6.588  17.688  0.00  0.00    +0.000 A 
BRANCH  12  19
ATOM     18  C   UNL     1       1.495   3.569  18.055  0.00  0.00    +0.000 C 
ATOM     19  O   UNL     1       2.049   4.809  18.483  0.00  0.00    +0.000 OA
ENDBRANCH  12  19
ENDBRANCH   7  17
ENDBRANCH   1   9
BRANCH   6  20
ATOM     20  S   UNL     1      -0.487  11.638  19.039  0.00  0.00    +0.000 S 
BRANCH  20  21
ATOM     21  C   UNL     1      -2.242  11.457  18.781  0.00  0.00    +0.000 A 
ATOM     22  C   UNL     1      -3.086  12.309  19.509  0.00  0.00    +0.000 A 
ATOM     23  C   UNL     1      -4.475  12.254  19.355  0.00  0.00    +0.000 A 
ATOM     24  C   UNL     1      -5.036  11.325  18.471  0.00  0.00    +0.000 A 
ATOM     25  C   UNL     1      -4.203  10.508  17.702  0.00  0.00    +0.000 A 
ATOM     26  C   UNL     1      -2.814  10.574  17.857  0.00  0.00    +0.000 A 
BRANCH  24  27
ATOM     27  C   UNL     1      -6.505  11.209  18.300  0.00  0.00    +0.000 C 
ATOM     28  O   UNL     1      -7.168  12.012  17.671  0.00  0.00    +0.000 OA
BRANCH  27  29
ATOM     29  O   UNL     1      -7.021  10.095  18.866  0.00  0.00    +0.000 OA
ATOM     30  H   UNL     1      -7.983   9.984  18.746  0.00  0.00    +0.000 HD
ENDBRANCH  27  29
ENDBRANCH  24  27
ENDBRANCH  20  21
ENDBRANCH   6  20
TORSDOF 7
ENDMDL
MODEL 7
REMARK VINA RESULT:      -8.1      1.340      1.660
REMARK  Name = 
REMARK  8 active torsions:
REMARK  status: ('A' for Active; 'I' for Inactive)
REMARK    1  A    between atoms: C_1  and  O_2
REMARK    2  A    between atoms: O_2  and  C_3
REMARK    3  A    between atoms: C_8  and  N_9
REMARK    4  A    between atoms: C_11  and  C_12
REMARK    5  A    between atoms: C_17  and  S_18
REMARK    6  A    between atoms: S_18  and  C_19
REMARK    7  A    between atoms: C_22  and  C_23
REMARK    8  A    between atoms: C_23  and  O_25
REMARK                            x       y       z     vdW  Elec       q    Type
REMARK                         _______ _______ _______ _____ _____    ______ ____
ROOT
ATOM      1  C   UNL     1       2.930   5.219  19.459  0.00  0.00    +0.000 A 
ATOM      2  C   UNL     1       1.918   4.347  19.920  0.00  0.00    +0.000 A 
ATOM      3  C   UNL     1       2.177   3.004  20.198  0.00  0.00    +0.000 A 
ATOM      4  C   UNL     1       3.457   2.499  20.022  0.00  0.00    +0.000 A 
ATOM      5  C   UNL     1       4.470   3.337  19.564  0.00  0.00    +0.000 A 
ATOM      6  C   UNL     1       4.225   4.694  19.265  0.00  0.00    +0.000 A 
ENDROOT
BRANCH   1   9
ATOM      7  N   UNL     1       1.591   8.579  19.417  0.00  0.00    +0.000 N 
ATOM      8  C   UNL     1       1.776   7.387  20.084  0.00  0.00    +0.000 A 
ATOM      9  C   UNL     1       2.545   6.609  19.256  0.00  0.00    +0.000 A 
ATOM     10  N   UNL     1       2.801   7.309  18.110  0.00  0.00    +0.000 NA
ATOM     11  N   UNL     1       2.243   8.506  18.223  0.00  0.00    +0.000 NA
BRANCH   7  17
ATOM     12  C   UNL     1      -0.099  10.339  18.884  0.00  0.00    +0.000 A 
ATOM     13  C   UNL     1      -0.750  11.519  19.280  0.00  0.00    +0.000 A 
ATOM     14  C   UNL     1      -0.493  12.101  20.520  0.00  0.00    +0.000 A 
ATOM     15  C   UNL     1       0.383  11.484  21.405  0.00  0.00    +0.000 A 
ATOM     16  C   UNL     1       1.025  10.302  21.036  0.00  0.00    +0.000 A 
ATOM     17  C   UNL     1       0.814   9.727  19.766  0.00  0.00    +0.000 A 
BRANCH  12  19
ATOM     18  C   UNL     1      -1.698   9.911  17.174  0.00  0.00    +0.000 C 
ATOM     19  O   UNL     1      -0.380   9.743  17.686  0.00  0.00    +0.000 OA
ENDBRANCH  12  19
ENDBRANCH   7  17
ENDBRANCH   1   9
BRANCH   6  20
ATOM     20  S   UNL     1       5.666   5.615  18.726  0.00  0.00    +0.000 S 
BRANCH  20  21
ATOM     21  C   UNL     1       5.937   5.109  17.037  0.00  0.00    +0.000 A 
ATOM     22  C   UNL     1       4.819   4.660  16.318  0.00  0.00    +0.000 A 
ATOM     23  C   UNL     1       4.932   4.264  14.982  0.00  0.00    +0.000 A 
ATOM     24  C   UNL     1       6.182   4.302  14.353  0.00  0.00    +0.000 A 
ATOM     25  C   UNL     1       7.292   4.797  15.043  0.00  0.00    +0.000 A 
ATOM     26  C   UNL     1       7.169   5.198  16.378  0.00  0.00    +0.000 A 
BRANCH  24  27
ATOM     27  C   UNL     1       6.355   3.861  12.948  0.00  0.00    +0.000 C 
ATOM     28  O   UNL     1       5.643   3.029  12.417  0.00  0.00    +0.000 OA
BRANCH  27  29
ATOM     29  O   UNL     1       7.349   4.512  12.303  0.00  0.00    +0.000 OA
ATOM     30  H   UNL     1       7.683   5.306  12.762  0.00  0.00    +0.000 HD
ENDBRANCH  27  29
ENDBRANCH  24  27
ENDBRANCH  20  21
ENDBRANCH   6  20
TORSDOF 7
ENDMDL
MODEL 8
REMARK VINA RESULT:      -8.0      3.845      9.327
REMARK  Name = 
REMARK  8 active torsions:
REMARK  status: ('A' for Active; 'I' for Inactive)
REMARK    1  A    between atoms: C_1  and  O_2
REMARK    2  A    between atoms: O_2  and  C_3
REMARK    3  A    between atoms: C_8  and  N_9
REMARK    4  A    between atoms: C_11  and  C_12
REMARK    5  A    between atoms: C_17  and  S_18
REMARK    6  A    between atoms: S_18  and  C_19
REMARK    7  A    between atoms: C_22  and  C_23
REMARK    8  A    between atoms: C_23  and  O_25
REMARK                            x       y       z     vdW  Elec       q    Type
REMARK                         _______ _______ _______ _____ _____    ______ ____
ROOT
ATOM      1  C   UNL     1       0.828   9.023  20.815  0.00  0.00    +0.000 A 
ATOM      2  C   UNL     1       0.860   8.691  22.189  0.00  0.00    +0.000 A 
ATOM      3  C   UNL     1       0.219   9.478  23.148  0.00  0.00    +0.000 A 
ATOM      4  C   UNL     1      -0.471  10.615  22.757  0.00  0.00    +0.000 A 
ATOM      5  C   UNL     1      -0.513  10.965  21.410  0.00  0.00    +0.000 A 
ATOM      6  C   UNL     1       0.139  10.192  20.427  0.00  0.00    +0.000 A 
ENDROOT
BRANCH   1   9
ATOM      7  N   UNL     1       2.380   6.305  19.002  0.00  0.00    +0.000 N 
ATOM      8  C   UNL     1       1.556   6.729  20.022  0.00  0.00    +0.000 A 
ATOM      9  C   UNL     1       1.490   8.094  19.910  0.00  0.00    +0.000 A 
ATOM     10  N   UNL     1       2.270   8.485  18.857  0.00  0.00    +0.000 NA
ATOM     11  N   UNL     1       2.785   7.399  18.298  0.00  0.00    +0.000 NA
BRANCH   7  17
ATOM     12  C   UNL     1       4.179   4.573  18.958  0.00  0.00    +0.000 A 
ATOM     13  C   UNL     1       4.595   3.304  18.522  0.00  0.00    +0.000 A 
ATOM     14  C   UNL     1       3.736   2.471  17.808  0.00  0.00    +0.000 A 
ATOM     15  C   UNL     1       2.430   2.875  17.559  0.00  0.00    +0.000 A 
ATOM     16  C   UNL     1       1.993   4.124  18.000  0.00  0.00    +0.000 A 
ATOM     17  C   UNL     1       2.864   4.999  18.681  0.00  0.00    +0.000 A 
BRANCH  12  19
ATOM     18  C   UNL     1       6.337   5.540  19.221  0.00  0.00    +0.000 C 
ATOM     19  O   UNL     1       5.005   5.375  19.696  0.00  0.00    +0.000 OA
ENDBRANCH  12  19
ENDBRANCH   7  17
ENDBRANCH   1   9
BRANCH   6  20
ATOM     20  S   UNL     1      -0.064  10.786  18.748  0.00  0.00    +0.000 S 
BRANCH  20  21
ATOM     21  C   UNL     1      -1.824  10.967  18.528  0.00  0.00    +0.000 A 
ATOM     22  C   UNL     1      -2.478   9.984  17.769  0.00  0.00    +0.000 A 
ATOM     23  C   UNL     1      -3.860  10.033  17.561  0.00  0.00    +0.000 A 
ATOM     24  C   UNL     1      -4.604  11.084  18.107  0.00  0.00    +0.000 A 
ATOM     25  C   UNL     1      -3.973  12.039  18.909  0.00  0.00    +0.000 A 
ATOM     26  C   UNL     1      -2.590  11.980  19.116  0.00  0.00    +0.000 A 
BRANCH  24  27
ATOM     27  C   UNL     1      -6.067  11.194  17.886  0.00  0.00    +0.000 C 
ATOM     28  O   UNL     1      -6.891  10.637  18.588  0.00  0.00    +0.000 OA
BRANCH  27  29
ATOM     29  O   UNL     1      -6.391  12.014  16.862  0.00  0.00    +0.000 OA
ATOM     30  H   UNL     1      -7.053  11.653  16.242  0.00  0.00    +0.000 HD
ENDBRANCH  27  29
ENDBRANCH  24  27
ENDBRANCH  20  21
ENDBRANCH   6  20
TORSDOF 7
ENDMDL
MODEL 9
REMARK VINA RESULT:      -8.0      3.882      9.369
REMARK  Name = 
REMARK  8 active torsions:
REMARK  status: ('A' for Active; 'I' for Inactive)
REMARK    1  A    between atoms: C_1  and  O_2
REMARK    2  A    between atoms: O_2  and  C_3
REMARK    3  A    between atoms: C_8  and  N_9
REMARK    4  A    between atoms: C_11  and  C_12
REMARK    5  A    between atoms: C_17  and  S_18
REMARK    6  A    between atoms: S_18  and  C_19
REMARK    7  A    between atoms: C_22  and  C_23
REMARK    8  A    between atoms: C_23  and  O_25
REMARK                            x       y       z     vdW  Elec       q    Type
REMARK                         _______ _______ _______ _____ _____    ______ ____
ROOT
ATOM      1  C   UNL     1       0.871   9.340  20.596  0.00  0.00    +0.000 A 
ATOM      2  C   UNL     1       0.974   8.789  21.893  0.00  0.00    +0.000 A 
ATOM      3  C   UNL     1       0.344   9.377  22.992  0.00  0.00    +0.000 A 
ATOM      4  C   UNL     1      -0.407  10.530  22.820  0.00  0.00    +0.000 A 
ATOM      5  C   UNL     1      -0.518  11.095  21.552  0.00  0.00    +0.000 A 
ATOM      6  C   UNL     1       0.121  10.524  20.432  0.00  0.00    +0.000 A 
ENDROOT
BRANCH   1   9
ATOM      7  N   UNL     1       2.624   7.097  18.364  0.00  0.00    +0.000 N 
ATOM      8  C   UNL     1       1.966   7.304  19.558  0.00  0.00    +0.000 A 
ATOM      9  C   UNL     1       1.531   8.605  19.526  0.00  0.00    +0.000 A 
ATOM     10  N   UNL     1       1.932   9.172  18.349  0.00  0.00    +0.000 NA
ATOM     11  N   UNL     1       2.571   8.250  17.642  0.00  0.00    +0.000 NA
BRANCH   7  17
ATOM     12  C   UNL     1       4.660   6.026  17.392  0.00  0.00    +0.000 A 
ATOM     13  C   UNL     1       5.252   4.871  16.855  0.00  0.00    +0.000 A 
ATOM     14  C   UNL     1       4.552   3.668  16.788  0.00  0.00    +0.000 A 
ATOM     15  C   UNL     1       3.263   3.588  17.302  0.00  0.00    +0.000 A 
ATOM     16  C   UNL     1       2.665   4.720  17.855  0.00  0.00    +0.000 A 
ATOM     17  C   UNL     1       3.342   5.957  17.886  0.00  0.00    +0.000 A 
BRANCH  12  19
ATOM     18  C   UNL     1       6.773   7.118  17.368  0.00  0.00    +0.000 C 
ATOM     19  O   UNL     1       5.358   7.196  17.498  0.00  0.00    +0.000 OA
ENDBRANCH  12  19
ENDBRANCH   7  17
ENDBRANCH   1   9
BRANCH   6  20
ATOM     20  S   UNL     1      -0.176  11.377  18.883  0.00  0.00    +0.000 S 
BRANCH  20  21
ATOM     21  C   UNL     1      -1.931  11.235  18.603  0.00  0.00    +0.000 A 
ATOM     22  C   UNL     1      -2.762  12.136  19.287  0.00  0.00    +0.000 A 
ATOM     23  C   UNL     1      -4.149  12.113  19.113  0.00  0.00    +0.000 A 
ATOM     24  C   UNL     1      -4.722  11.170  18.252  0.00  0.00    +0.000 A 
ATOM     25  C   UNL     1      -3.901  10.303  17.525  0.00  0.00    +0.000 A 
ATOM     26  C   UNL     1      -2.514  10.337  17.701  0.00  0.00    +0.000 A 
BRANCH  24  27
ATOM     27  C   UNL     1      -6.191  11.088  18.061  0.00  0.00    +0.000 C 
ATOM     28  O   UNL     1      -6.908  10.351  18.712  0.00  0.00    +0.000 OA
BRANCH  27  29
ATOM     29  O   UNL     1      -6.656  11.950  17.130  0.00  0.00    +0.000 OA
ATOM     30  H   UNL     1      -7.560  11.762  16.815  0.00  0.00    +0.000 HD
ENDBRANCH  27  29
ENDBRANCH  24  27
ENDBRANCH  20  21
ENDBRANCH   6  20
TORSDOF 7
ENDMDL
