MODEL 1
REMARK VINA RESULT:      -6.8      0.000      0.000
REMARK  Name = 
REMARK  7 active torsions:
REMARK  status: ('A' for Active; 'I' for Inactive)
REMARK    1  A    between atoms: C_1  and  C_2
REMARK    2  A    between atoms: N_4  and  C_5
REMARK    3  A    between atoms: C_5  and  C_6
REMARK    4  A    between atoms: N_8  and  C_9
REMARK    5  A    between atoms: C_9  and  C_10
REMARK    6  A    between atoms: C_9  and  C_11
REMARK    7  A    between atoms: C_18  and  C_19
REMARK                            x       y       z     vdW  Elec       q    Type
REMARK                         _______ _______ _______ _____ _____    ______ ____
ROOT
ATOM      1  C   UNL     1       3.108   3.526  17.893  0.00  0.00    +0.000 C 
ATOM      2  O   UNL     1       2.023   3.251  17.383  0.00  0.00    +0.000 OA
ATOM      3  N   UNL     1       3.235   4.220  19.076  0.00  0.00    +0.000 N 
ATOM      4  H   UNL     1       4.160   4.461  19.405  0.00  0.00    +0.000 HD
ENDROOT
BRANCH   3   5
ATOM      5  C   UNL     1       2.086   4.680  19.837  0.00  0.00    +0.000 C 
ATOM      6  C   UNL     1       2.177   4.177  21.281  0.00  0.00    +0.000 C 
BRANCH   5   7
ATOM      7  C   UNL     1       1.942   6.187  19.706  0.00  0.00    +0.000 A 
ATOM      8  C   UNL     1       2.353   6.803  18.511  0.00  0.00    +0.000 A 
ATOM      9  C   UNL     1       2.232   8.183  18.337  0.00  0.00    +0.000 A 
ATOM     10  C   UNL     1       1.710   8.971  19.359  0.00  0.00    +0.000 A 
ATOM     11  C   UNL     1       1.317   8.380  20.558  0.00  0.00    +0.000 A 
ATOM     12  C   UNL     1       1.438   6.999  20.734  0.00  0.00    +0.000 A 
ENDBRANCH   5   7
ENDBRANCH   3   5
BRANCH   1  13
ATOM     13  C   UNL     1       4.436   3.069  17.269  0.00  0.00    +0.000 C 
BRANCH  13  17
ATOM     14  C   UNL     1       6.390   7.065  17.176  0.00  0.00    +0.000 C 
ATOM     15  C   UNL     1       7.156   5.747  17.070  0.00  0.00    +0.000 C 
ATOM     16  C   UNL     1       6.351   4.549  17.617  0.00  0.00    +0.000 C 
ATOM     17  N   UNL     1       5.196   4.223  16.746  0.00  0.00    +0.000 NA
ATOM     18  C   UNL     1       5.737   3.924  15.399  0.00  0.00    +0.000 C 
ATOM     19  C   UNL     1       6.528   5.132  14.843  0.00  0.00    +0.000 C 
ATOM     20  C   UNL     1       7.144   4.811  13.488  0.00  0.00    +0.000 C 
ATOM     21  O   UNL     1       7.601   5.503  15.724  0.00  0.00    +0.000 OA
ENDBRANCH  13  17
ENDBRANCH   1  13
TORSDOF 4
ENDMDL
MODEL 2
REMARK VINA RESULT:      -6.8      0.087      1.081
REMARK  Name = 
REMARK  7 active torsions:
REMARK  status: ('A' for Active; 'I' for Inactive)
REMARK    1  A    between atoms: C_1  and  C_2
REMARK    2  A    between atoms: N_4  and  C_5
REMARK    3  A    between atoms: C_5  and  C_6
REMARK    4  A    between atoms: N_8  and  C_9
REMARK    5  A    between atoms: C_9  and  C_10
REMARK    6  A    between atoms: C_9  and  C_11
REMARK    7  A    between atoms: C_18  and  C_19
REMARK                            x       y       z     vdW  Elec       q    Type
REMARK                         _______ _______ _______ _____ _____    ______ ____
ROOT
ATOM      1  C   UNL     1       3.124   3.590  17.857  0.00  0.00    +0.000 C 
ATOM      2  O   UNL     1       2.036   3.330  17.347  0.00  0.00    +0.000 OA
ATOM      3  N   UNL     1       3.261   4.283  19.039  0.00  0.00    +0.000 N 
ATOM      4  H   UNL     1       4.189   4.511  19.368  0.00  0.00    +0.000 HD
ENDROOT
BRANCH   3   5
ATOM      5  C   UNL     1       2.118   4.760  19.799  0.00  0.00    +0.000 C 
ATOM      6  C   UNL     1       2.226   4.297  21.255  0.00  0.00    +0.000 C 
BRANCH   5   7
ATOM      7  C   UNL     1       1.968   6.263  19.629  0.00  0.00    +0.000 A 
ATOM      8  C   UNL     1       1.442   7.013  20.695  0.00  0.00    +0.000 A 
ATOM      9  C   UNL     1       1.294   8.398  20.594  0.00  0.00    +0.000 A 
ATOM     10  C   UNL     1       1.659   9.053  19.421  0.00  0.00    +0.000 A 
ATOM     11  C   UNL     1       2.164   8.323  18.348  0.00  0.00    +0.000 A 
ATOM     12  C   UNL     1       2.311   6.936  18.447  0.00  0.00    +0.000 A 
ENDBRANCH   5   7
ENDBRANCH   3   5
BRANCH   1  13
ATOM     13  C   UNL     1       4.445   3.113  17.234  0.00  0.00    +0.000 C 
BRANCH  13  17
ATOM     14  C   UNL     1       6.460   7.079  17.143  0.00  0.00    +0.000 C 
ATOM     15  C   UNL     1       7.206   5.750  17.036  0.00  0.00    +0.000 C 
ATOM     16  C   UNL     1       6.383   4.564  17.582  0.00  0.00    +0.000 C 
ATOM     17  N   UNL     1       5.223   4.256  16.711  0.00  0.00    +0.000 NA
ATOM     18  C   UNL     1       5.759   3.950  15.364  0.00  0.00    +0.000 C 
ATOM     19  C   UNL     1       6.568   5.146  14.808  0.00  0.00    +0.000 C 
ATOM     20  C   UNL     1       7.179   4.816  13.453  0.00  0.00    +0.000 C 
ATOM     21  O   UNL     1       7.647   5.500  15.690  0.00  0.00    +0.000 OA
ENDBRANCH  13  17
ENDBRANCH   1  13
TORSDOF 4
ENDMDL
MODEL 3
REMARK VINA RESULT:      -6.6      1.860      5.970
REMARK  Name = 
REMARK  7 active torsions:
REMARK  status: ('A' for Active; 'I' for Inactive)
REMARK    1  A    between atoms: C_1  and  C_2
REMARK    2  A    between atoms: N_4  and  C_5
REMARK    3  A    between atoms: C_5  and  C_6
REMARK    4  A    between atoms: N_8  and  C_9
REMARK    5  A    between atoms: C_9  and  C_10
REMARK    6  A    between atoms: C_9  and  C_11
REMARK    7  A    between atoms: C_18  and  C_19
REMARK                            x       y       z     vdW  Elec       q    Type
REMARK                         _______ _______ _______ _____ _____    ______ ____
ROOT
ATOM      1  C   UNL     1       3.693   3.037  17.209  0.00  0.00    +0.000 C 
ATOM      2  O   UNL     1       4.196   1.954  17.501  0.00  0.00    +0.000 OA
ATOM      3  N   UNL     1       4.405   4.081  16.662  0.00  0.00    +0.000 N 
ATOM      4  H   UNL     1       3.937   4.963  16.504  0.00  0.00    +0.000 HD
ENDROOT
BRANCH   3   5
ATOM      5  C   UNL     1       5.825   3.986  16.369  0.00  0.00    +0.000 C 
ATOM      6  C   UNL     1       6.047   3.973  14.854  0.00  0.00    +0.000 C 
BRANCH   5   7
ATOM      7  C   UNL     1       6.585   5.078  17.104  0.00  0.00    +0.000 A 
ATOM      8  C   UNL     1       7.212   4.761  18.322  0.00  0.00    +0.000 A 
ATOM      9  C   UNL     1       7.931   5.726  19.030  0.00  0.00    +0.000 A 
ATOM     10  C   UNL     1       8.025   7.025  18.539  0.00  0.00    +0.000 A 
ATOM     11  C   UNL     1       7.393   7.361  17.344  0.00  0.00    +0.000 A 
ATOM     12  C   UNL     1       6.672   6.397  16.635  0.00  0.00    +0.000 A 
ENDBRANCH   5   7
ENDBRANCH   3   5
BRANCH   1  13
ATOM     13  C   UNL     1       2.190   3.306  17.387  0.00  0.00    +0.000 C 
BRANCH  13  17
ATOM     14  C   UNL     1       1.267   2.643  21.689  0.00  0.00    +0.000 C 
ATOM     15  C   UNL     1       2.539   3.329  21.194  0.00  0.00    +0.000 C 
ATOM     16  C   UNL     1       2.856   2.997  19.720  0.00  0.00    +0.000 C 
ATOM     17  N   UNL     1       1.875   3.619  18.796  0.00  0.00    +0.000 NA
ATOM     18  C   UNL     1       1.924   5.081  19.030  0.00  0.00    +0.000 C 
ATOM     19  C   UNL     1       1.589   5.416  20.503  0.00  0.00    +0.000 C 
ATOM     20  C   UNL     1       1.702   6.911  20.769  0.00  0.00    +0.000 C 
ATOM     21  O   UNL     1       2.488   4.751  21.407  0.00  0.00    +0.000 OA
ENDBRANCH  13  17
ENDBRANCH   1  13
TORSDOF 4
ENDMDL
MODEL 4
REMARK VINA RESULT:      -6.5      4.107      7.681
REMARK  Name = 
REMARK  7 active torsions:
REMARK  status: ('A' for Active; 'I' for Inactive)
REMARK    1  A    between atoms: C_1  and  C_2
REMARK    2  A    between atoms: N_4  and  C_5
REMARK    3  A    between atoms: C_5  and  C_6
REMARK    4  A    between atoms: N_8  and  C_9
REMARK    5  A    between atoms: C_9  and  C_10
REMARK    6  A    between atoms: C_9  and  C_11
REMARK    7  A    between atoms: C_18  and  C_19
REMARK                            x       y       z     vdW  Elec       q    Type
REMARK                         _______ _______ _______ _____ _____    ______ ____
ROOT
ATOM      1  C   UNL     1       1.843   8.666  18.421  0.00  0.00    +0.000 C 
ATOM      2  O   UNL     1       1.960   8.937  17.228  0.00  0.00    +0.000 OA
ATOM      3  N   UNL     1       2.165   7.437  18.954  0.00  0.00    +0.000 N 
ATOM      4  H   UNL     1       1.987   7.268  19.935  0.00  0.00    +0.000 HD
ENDROOT
BRANCH   3   5
ATOM      5  C   UNL     1       2.688   6.350  18.145  0.00  0.00    +0.000 C 
ATOM      6  C   UNL     1       4.215   6.436  18.073  0.00  0.00    +0.000 C 
BRANCH   5   7
ATOM      7  C   UNL     1       2.159   5.019  18.654  0.00  0.00    +0.000 A 
ATOM      8  C   UNL     1       2.148   3.918  17.779  0.00  0.00    +0.000 A 
ATOM      9  C   UNL     1       1.682   2.672  18.201  0.00  0.00    +0.000 A 
ATOM     10  C   UNL     1       1.209   2.508  19.500  0.00  0.00    +0.000 A 
ATOM     11  C   UNL     1       1.195   3.592  20.374  0.00  0.00    +0.000 A 
ATOM     12  C   UNL     1       1.659   4.841  19.953  0.00  0.00    +0.000 A 
ENDBRANCH   5   7
ENDBRANCH   3   5
BRANCH   1  13
ATOM     13  C   UNL     1       1.367   9.708  19.446  0.00  0.00    +0.000 C 
BRANCH  13  17
ATOM     14  C   UNL     1      -2.202  11.188  17.240  0.00  0.00    +0.000 C 
ATOM     15  C   UNL     1      -1.940  11.481  18.716  0.00  0.00    +0.000 C 
ATOM     16  C   UNL     1      -0.952  10.480  19.352  0.00  0.00    +0.000 C 
ATOM     17  N   UNL     1       0.424  10.661  18.826  0.00  0.00    +0.000 NA
ATOM     18  C   UNL     1       0.823  12.057  19.122  0.00  0.00    +0.000 C 
ATOM     19  C   UNL     1      -0.158  13.060  18.470  0.00  0.00    +0.000 C 
ATOM     20  C   UNL     1       0.205  14.497  18.824  0.00  0.00    +0.000 C 
ATOM     21  O   UNL     1      -1.506  12.838  18.916  0.00  0.00    +0.000 OA
ENDBRANCH  13  17
ENDBRANCH   1  13
TORSDOF 4
ENDMDL
MODEL 5
REMARK VINA RESULT:      -6.5      2.486      3.756
REMARK  Name = 
REMARK  7 active torsions:
REMARK  status: ('A' for Active; 'I' for Inactive)
REMARK    1  A    between atoms: C_1  and  C_2
REMARK    2  A    between atoms: N_4  and  C_5
REMARK    3  A    between atoms: C_5  and  C_6
REMARK    4  A    between atoms: N_8  and  C_9
REMARK    5  A    between atoms: C_9  and  C_10
REMARK    6  A    between atoms: C_9  and  C_11
REMARK    7  A    between atoms: C_18  and  C_19
REMARK                            x       y       z     vdW  Elec       q    Type
REMARK                         _______ _______ _______ _____ _____    ______ ____
ROOT
ATOM      1  C   UNL     1       2.683   7.678  18.305  0.00  0.00    +0.000 C 
ATOM      2  O   UNL     1       3.020   8.357  17.337  0.00  0.00    +0.000 OA
ATOM      3  N   UNL     1       1.836   8.131  19.291  0.00  0.00    +0.000 N 
ATOM      4  H   UNL     1       1.650   7.537  20.087  0.00  0.00    +0.000 HD
ENDROOT
BRANCH   3   5
ATOM      5  C   UNL     1       1.252   9.461  19.265  0.00  0.00    +0.000 C 
ATOM      6  C   UNL     1       0.328   9.605  18.051  0.00  0.00    +0.000 C 
BRANCH   5   7
ATOM      7  C   UNL     1       0.587   9.767  20.597  0.00  0.00    +0.000 A 
ATOM      8  C   UNL     1      -0.213  10.918  20.704  0.00  0.00    +0.000 A 
ATOM      9  C   UNL     1      -0.853  11.237  21.903  0.00  0.00    +0.000 A 
ATOM     10  C   UNL     1      -0.695  10.417  23.017  0.00  0.00    +0.000 A 
ATOM     11  C   UNL     1       0.110   9.283  22.934  0.00  0.00    +0.000 A 
ATOM     12  C   UNL     1       0.753   8.963  21.736  0.00  0.00    +0.000 A 
ENDBRANCH   5   7
ENDBRANCH   3   5
BRANCH   1  13
ATOM     13  C   UNL     1       3.147   6.222  18.474  0.00  0.00    +0.000 C 
BRANCH  13  17
ATOM     14  C   UNL     1       7.578   6.579  18.280  0.00  0.00    +0.000 C 
ATOM     15  C   UNL     1       6.845   5.254  18.485  0.00  0.00    +0.000 C 
ATOM     16  C   UNL     1       5.405   5.448  19.006  0.00  0.00    +0.000 C 
ATOM     17  N   UNL     1       4.526   6.049  17.972  0.00  0.00    +0.000 NA
ATOM     18  C   UNL     1       4.546   5.140  16.803  0.00  0.00    +0.000 C 
ATOM     19  C   UNL     1       5.987   4.960  16.269  0.00  0.00    +0.000 C 
ATOM     20  C   UNL     1       6.027   3.975  15.108  0.00  0.00    +0.000 C 
ATOM     21  O   UNL     1       6.862   4.452  17.291  0.00  0.00    +0.000 OA
ENDBRANCH  13  17
ENDBRANCH   1  13
TORSDOF 4
ENDMDL
MODEL 6
REMARK VINA RESULT:      -6.5      2.149      6.721
REMARK  Name = 
REMARK  7 active torsions:
REMARK  status: ('A' for Active; 'I' for Inactive)
REMARK    1  A    between atoms: C_1  and  C_2
REMARK    2  A    between atoms: N_4  and  C_5
REMARK    3  A    between atoms: C_5  and  C_6
REMARK    4  A    between atoms: N_8  and  C_9
REMARK    5  A    between atoms: C_9  and  C_10
REMARK    6  A    between atoms: C_9  and  C_11
REMARK    7  A    between atoms: C_18  and  C_19
REMARK                            x       y       z     vdW  Elec       q    Type
REMARK                         _______ _______ _______ _____ _____    ______ ____
ROOT
ATOM      1  C   UNL     1       4.781   5.902  17.534  0.00  0.00    +0.000 C 
ATOM      2  O   UNL     1       5.572   6.318  18.379  0.00  0.00    +0.000 OA
ATOM      3  N   UNL     1       5.171   5.406  16.310  0.00  0.00    +0.000 N 
ATOM      4  H   UNL     1       4.462   5.138  15.642  0.00  0.00    +0.000 HD
ENDROOT
BRANCH   3   5
ATOM      5  C   UNL     1       6.566   5.319  15.914  0.00  0.00    +0.000 C 
ATOM      6  C   UNL     1       7.348   4.479  16.928  0.00  0.00    +0.000 C 
BRANCH   5   7
ATOM      7  C   UNL     1       6.672   4.827  14.479  0.00  0.00    +0.000 A 
ATOM      8  C   UNL     1       7.629   5.416  13.633  0.00  0.00    +0.000 A 
ATOM      9  C   UNL     1       7.773   4.993  12.311  0.00  0.00    +0.000 A 
ATOM     10  C   UNL     1       6.957   3.983  11.809  0.00  0.00    +0.000 A 
ATOM     11  C   UNL     1       5.991   3.402  12.628  0.00  0.00    +0.000 A 
ATOM     12  C   UNL     1       5.844   3.826  13.952  0.00  0.00    +0.000 A 
ENDBRANCH   5   7
ENDBRANCH   3   5
BRANCH   1  13
ATOM     13  C   UNL     1       3.268   5.854  17.795  0.00  0.00    +0.000 C 
BRANCH  13  17
ATOM     14  C   UNL     1       1.187   3.422  20.886  0.00  0.00    +0.000 C 
ATOM     15  C   UNL     1       1.092   3.143  19.387  0.00  0.00    +0.000 C 
ATOM     16  C   UNL     1       1.466   4.373  18.532  0.00  0.00    +0.000 C 
ATOM     17  N   UNL     1       2.914   4.683  18.624  0.00  0.00    +0.000 NA
ATOM     18  C   UNL     1       3.647   3.480  18.167  0.00  0.00    +0.000 C 
ATOM     19  C   UNL     1       3.286   2.252  19.036  0.00  0.00    +0.000 C 
ATOM     20  C   UNL     1       3.984   0.995  18.532  0.00  0.00    +0.000 C 
ATOM     21  O   UNL     1       1.872   1.994  19.013  0.00  0.00    +0.000 OA
ENDBRANCH  13  17
ENDBRANCH   1  13
TORSDOF 4
ENDMDL
MODEL 7
REMARK VINA RESULT:      -6.5      4.157      7.741
REMARK  Name = 
REMARK  7 active torsions:
REMARK  status: ('A' for Active; 'I' for Inactive)
REMARK    1  A    between atoms: C_1  and  C_2
REMARK    2  A    between atoms: N_4  and  C_5
REMARK    3  A    between atoms: C_5  and  C_6
REMARK    4  A    between atoms: N_8  and  C_9
REMARK    5  A    between atoms: C_9  and  C_10
REMARK    6  A    between atoms: C_9  and  C_11
REMARK    7  A    between atoms: C_18  and  C_19
REMARK                            x       y       z     vdW  Elec       q    Type
REMARK                         _______ _______ _______ _____ _____    ______ ____
ROOT
ATOM      1  C   UNL     1       1.806   8.719  18.462  0.00  0.00    +0.000 C 
ATOM      2  O   UNL     1       1.814   8.981  17.260  0.00  0.00    +0.000 OA
ATOM      3  N   UNL     1       2.185   7.497  18.973  0.00  0.00    +0.000 N 
ATOM      4  H   UNL     1       2.096   7.334  19.967  0.00  0.00    +0.000 HD
ENDROOT
BRANCH   3   5
ATOM      5  C   UNL     1       2.642   6.407  18.128  0.00  0.00    +0.000 C 
ATOM      6  C   UNL     1       4.168   6.447  18.001  0.00  0.00    +0.000 C 
BRANCH   5   7
ATOM      7  C   UNL     1       2.090   5.085  18.637  0.00  0.00    +0.000 A 
ATOM      8  C   UNL     1       1.697   4.991  19.983  0.00  0.00    +0.000 A 
ATOM      9  C   UNL     1       1.175   3.803  20.497  0.00  0.00    +0.000 A 
ATOM     10  C   UNL     1       1.047   2.686  19.675  0.00  0.00    +0.000 A 
ATOM     11  C   UNL     1       1.450   2.756  18.344  0.00  0.00    +0.000 A 
ATOM     12  C   UNL     1       1.975   3.944  17.829  0.00  0.00    +0.000 A 
ENDBRANCH   5   7
ENDBRANCH   3   5
BRANCH   1  13
ATOM     13  C   UNL     1       1.414   9.765  19.517  0.00  0.00    +0.000 C 
BRANCH  13  17
ATOM     14  C   UNL     1      -2.136  11.557  17.523  0.00  0.00    +0.000 C 
ATOM     15  C   UNL     1      -1.733  11.863  18.964  0.00  0.00    +0.000 C 
ATOM     16  C   UNL     1      -0.810  10.780  19.563  0.00  0.00    +0.000 C 
ATOM     17  N   UNL     1       0.533  10.796  18.932  0.00  0.00    +0.000 NA
ATOM     18  C   UNL     1       1.098  12.149  19.147  0.00  0.00    +0.000 C 
ATOM     19  C   UNL     1       0.182  13.233  18.530  0.00  0.00    +0.000 C 
ATOM     20  C   UNL     1       0.721  14.631  18.804  0.00  0.00    +0.000 C 
ATOM     21  O   UNL     1      -1.144  13.170  19.081  0.00  0.00    +0.000 OA
ENDBRANCH  13  17
ENDBRANCH   1  13
TORSDOF 4
ENDMDL
MODEL 8
REMARK VINA RESULT:      -6.5      2.084      6.711
REMARK  Name = 
REMARK  7 active torsions:
REMARK  status: ('A' for Active; 'I' for Inactive)
REMARK    1  A    between atoms: C_1  and  C_2
REMARK    2  A    between atoms: N_4  and  C_5
REMARK    3  A    between atoms: C_5  and  C_6
REMARK    4  A    between atoms: N_8  and  C_9
REMARK    5  A    between atoms: C_9  and  C_10
REMARK    6  A    between atoms: C_9  and  C_11
REMARK    7  A    between atoms: C_18  and  C_19
REMARK                            x       y       z     vdW  Elec       q    Type
REMARK                         _______ _______ _______ _____ _____    ______ ____
ROOT
ATOM      1  C   UNL     1       4.586   6.069  17.359  0.00  0.00    +0.000 C 
ATOM      2  O   UNL     1       5.234   6.942  17.933  0.00  0.00    +0.000 OA
ATOM      3  N   UNL     1       5.116   5.242  16.394  0.00  0.00    +0.000 N 
ATOM      4  H   UNL     1       4.507   4.586  15.923  0.00  0.00    +0.000 HD
ENDROOT
BRANCH   3   5
ATOM      5  C   UNL     1       6.505   5.323  15.976  0.00  0.00    +0.000 C 
ATOM      6  C   UNL     1       7.397   4.576  16.972  0.00  0.00    +0.000 C 
BRANCH   5   7
ATOM      7  C   UNL     1       6.646   4.856  14.536  0.00  0.00    +0.000 A 
ATOM      8  C   UNL     1       5.751   3.886  14.051  0.00  0.00    +0.000 A 
ATOM      9  C   UNL     1       5.832   3.432  12.733  0.00  0.00    +0.000 A 
ATOM     10  C   UNL     1       6.814   3.931  11.883  0.00  0.00    +0.000 A 
ATOM     11  C   UNL     1       7.721   4.878  12.353  0.00  0.00    +0.000 A 
ATOM     12  C   UNL     1       7.643   5.333  13.672  0.00  0.00    +0.000 A 
ENDBRANCH   5   7
ENDBRANCH   3   5
BRANCH   1  13
ATOM     13  C   UNL     1       3.117   5.788  17.711  0.00  0.00    +0.000 C 
BRANCH  13  17
ATOM     14  C   UNL     1       2.091   3.737  21.524  0.00  0.00    +0.000 C 
ATOM     15  C   UNL     1       1.490   3.356  20.172  0.00  0.00    +0.000 C 
ATOM     16  C   UNL     1       1.606   4.490  19.132  0.00  0.00    +0.000 C 
ATOM     17  N   UNL     1       3.014   4.708  18.714  0.00  0.00    +0.000 NA
ATOM     18  C   UNL     1       3.505   3.427  18.155  0.00  0.00    +0.000 C 
ATOM     19  C   UNL     1       3.405   2.294  19.203  0.00  0.00    +0.000 C 
ATOM     20  C   UNL     1       3.845   0.959  18.616  0.00  0.00    +0.000 C 
ATOM     21  O   UNL     1       2.055   2.132  19.670  0.00  0.00    +0.000 OA
ENDBRANCH  13  17
ENDBRANCH   1  13
TORSDOF 4
ENDMDL
MODEL 9
REMARK VINA RESULT:      -6.4      1.830      6.145
REMARK  Name = 
REMARK  7 active torsions:
REMARK  status: ('A' for Active; 'I' for Inactive)
REMARK    1  A    between atoms: C_1  and  C_2
REMARK    2  A    between atoms: N_4  and  C_5
REMARK    3  A    between atoms: C_5  and  C_6
REMARK    4  A    between atoms: N_8  and  C_9
REMARK    5  A    between atoms: C_9  and  C_10
REMARK    6  A    between atoms: C_9  and  C_11
REMARK    7  A    between atoms: C_18  and  C_19
REMARK                            x       y       z     vdW  Elec       q    Type
REMARK                         _______ _______ _______ _____ _____    ______ ____
ROOT
ATOM      1  C   UNL     1       4.406   4.088  16.806  0.00  0.00    +0.000 C 
ATOM      2  O   UNL     1       4.231   5.303  16.732  0.00  0.00    +0.000 OA
ATOM      3  N   UNL     1       5.570   3.465  16.415  0.00  0.00    +0.000 N 
ATOM      4  H   UNL     1       5.620   2.456  16.451  0.00  0.00    +0.000 HD
ENDROOT
BRANCH   3   5
ATOM      5  C   UNL     1       6.707   4.199  15.887  0.00  0.00    +0.000 C 
ATOM      6  C   UNL     1       6.352   4.806  14.526  0.00  0.00    +0.000 C 
BRANCH   5   7
ATOM      7  C   UNL     1       7.201   5.206  16.913  0.00  0.00    +0.000 A 
ATOM      8  C   UNL     1       7.236   6.566  16.560  0.00  0.00    +0.000 A 
ATOM      9  C   UNL     1       7.671   7.532  17.469  0.00  0.00    +0.000 A 
ATOM     10  C   UNL     1       8.089   7.153  18.742  0.00  0.00    +0.000 A 
ATOM     11  C   UNL     1       8.079   5.807  19.102  0.00  0.00    +0.000 A 
ATOM     12  C   UNL     1       7.645   4.839  18.192  0.00  0.00    +0.000 A 
ENDBRANCH   5   7
ENDBRANCH   3   5
BRANCH   1  13
ATOM     13  C   UNL     1       3.342   3.151  17.399  0.00  0.00    +0.000 C 
BRANCH  13  17
ATOM     14  C   UNL     1       1.827   5.968  20.492  0.00  0.00    +0.000 C 
ATOM     15  C   UNL     1       1.045   4.750  20.004  0.00  0.00    +0.000 C 
ATOM     16  C   UNL     1       1.533   4.246  18.629  0.00  0.00    +0.000 C 
ATOM     17  N   UNL     1       2.885   3.641  18.716  0.00  0.00    +0.000 NA
ATOM     18  C   UNL     1       2.801   2.525  19.688  0.00  0.00    +0.000 C 
ATOM     19  C   UNL     1       2.330   3.034  21.071  0.00  0.00    +0.000 C 
ATOM     20  C   UNL     1       2.176   1.884  22.058  0.00  0.00    +0.000 C 
ATOM     21  O   UNL     1       1.055   3.692  20.978  0.00  0.00    +0.000 OA
ENDBRANCH  13  17
ENDBRANCH   1  13
TORSDOF 4
ENDMDL
