MODEL 1
REMARK VINA RESULT:      -9.1      0.000      0.000
REMARK  Name = 
REMARK  6 active torsions:
REMARK  status: ('A' for Active; 'I' for Inactive)
REMARK    1  A    between atoms: C_2  and  C_4
REMARK    2  A    between atoms: C_8  and  C_9
REMARK    3  A    between atoms: C_13  and  O_14
REMARK    4  A    between atoms: O_14  and  C_15
REMARK    5  A    between atoms: C_15  and  C_16
REMARK    6  A    between atoms: C_22  and  O_23
REMARK                            x       y       z     vdW  Elec       q    Type
REMARK                         _______ _______ _______ _____ _____    ______ ____
ROOT
ATOM      1  C   UNL     1       3.923   3.514  18.954  0.00  0.00    +0.000 A 
ATOM      2  C   UNL     1       3.138   4.196  19.899  0.00  0.00    +0.000 A 
ATOM      3  C   UNL     1       2.833   5.526  19.616  0.00  0.00    +0.000 A 
ATOM      4  N   UNL     1       2.133   6.478  20.299  0.00  0.00    +0.000 N 
ATOM      5  C   UNL     1       2.073   7.617  19.530  0.00  0.00    +0.000 A 
ATOM      6  N   UNL     1       2.766   7.451  18.413  0.00  0.00    +0.000 NA
ATOM      7  C   UNL     1       3.251   6.176  18.462  0.00  0.00    +0.000 A 
ATOM      8  C   UNL     1       4.062   5.502  17.543  0.00  0.00    +0.000 A 
ATOM      9  C   UNL     1       4.378   4.171  17.802  0.00  0.00    +0.000 A 
ATOM     10  F   UNL     1       5.134   3.529  16.893  0.00  0.00    +0.000 F 
ATOM     11  H   UNL     1       1.687   6.388  21.206  0.00  0.00    +0.000 HD
ENDROOT
BRANCH   1  13
ATOM     12  N   UNL     1       3.683   1.169  18.452  0.00  0.00    +0.000 NA
ATOM     13  C   UNL     1       4.250   2.080  19.186  0.00  0.00    +0.000 C 
ATOM     14  N   UNL     1       5.119   1.709  20.164  0.00  0.00    +0.000 N 
ATOM     15  H   UNL     1       4.032   0.248  18.714  0.00  0.00    +0.000 HD
ATOM     16  H   UNL     1       5.064   0.757  20.483  0.00  0.00    +0.000 HD
ATOM     17  H   UNL     1       5.221   2.372  20.932  0.00  0.00    +0.000 HD
ENDBRANCH   1  13
BRANCH   5  18
ATOM     18  C   UNL     1       1.342   8.821  19.911  0.00  0.00    +0.000 A 
ATOM     19  C   UNL     1       1.011   9.009  21.261  0.00  0.00    +0.000 A 
ATOM     20  C   UNL     1       0.317  10.141  21.676  0.00  0.00    +0.000 A 
ATOM     21  C   UNL     1      -0.094  11.092  20.735  0.00  0.00    +0.000 A 
ATOM     22  C   UNL     1       0.203  10.918  19.385  0.00  0.00    +0.000 A 
ATOM     23  C   UNL     1       0.945   9.797  18.986  0.00  0.00    +0.000 A 
BRANCH  23  24
ATOM     24  O   UNL     1       1.291   9.671  17.658  0.00  0.00    +0.000 OA
ATOM     25  H   UNL     1       0.996   8.774  17.407  0.00  0.00    +0.000 HD
ENDBRANCH  23  24
BRANCH  22  26
ATOM     26  O   UNL     1      -0.222  11.740  18.364  0.00  0.00    +0.000 OA
BRANCH  26  27
ATOM     27  C   UNL     1      -1.616  12.067  18.390  0.00  0.00    +0.000 C 
BRANCH  27  28
ATOM     28  C   UNL     1      -2.475  10.795  18.241  0.00  0.00    +0.000 C 
ATOM     29  C   UNL     1      -2.186  10.014  16.948  0.00  0.00    +0.000 C 
ATOM     30  C   UNL     1      -2.640  10.809  15.727  0.00  0.00    +0.000 C 
ATOM     31  C   UNL     1      -4.107  11.223  15.862  0.00  0.00    +0.000 C 
ATOM     32  N   UNL     1      -4.367  11.945  17.111  0.00  0.00    +0.000 NA
ATOM     33  C   UNL     1      -3.968  11.161  18.283  0.00  0.00    +0.000 C 
ATOM     34  H   UNL     1      -5.361  12.165  17.170  0.00  0.00    +0.000 HD
ENDBRANCH  27  28
ENDBRANCH  26  27
ENDBRANCH  22  26
ENDBRANCH   5  18
TORSDOF 6
ENDMDL
MODEL 2
REMARK VINA RESULT:      -8.7      1.056      1.491
REMARK  Name = 
REMARK  6 active torsions:
REMARK  status: ('A' for Active; 'I' for Inactive)
REMARK    1  A    between atoms: C_2  and  C_4
REMARK    2  A    between atoms: C_8  and  C_9
REMARK    3  A    between atoms: C_13  and  O_14
REMARK    4  A    between atoms: O_14  and  C_15
REMARK    5  A    between atoms: C_15  and  C_16
REMARK    6  A    between atoms: C_22  and  O_23
REMARK                            x       y       z     vdW  Elec       q    Type
REMARK                         _______ _______ _______ _____ _____    ______ ____
ROOT
ATOM      1  C   UNL     1       3.781   3.455  19.083  0.00  0.00    +0.000 A 
ATOM      2  C   UNL     1       3.118   4.042  20.175  0.00  0.00    +0.000 A 
ATOM      3  C   UNL     1       2.730   5.372  20.030  0.00  0.00    +0.000 A 
ATOM      4  N   UNL     1       2.105   6.248  20.870  0.00  0.00    +0.000 N 
ATOM      5  C   UNL     1       1.895   7.430  20.197  0.00  0.00    +0.000 A 
ATOM      6  N   UNL     1       2.425   7.364  18.984  0.00  0.00    +0.000 NA
ATOM      7  C   UNL     1       2.955   6.112  18.876  0.00  0.00    +0.000 A 
ATOM      8  C   UNL     1       3.647   5.533  17.807  0.00  0.00    +0.000 A 
ATOM      9  C   UNL     1       4.042   4.203  17.926  0.00  0.00    +0.000 A 
ATOM     10  F   UNL     1       4.680   3.653  16.878  0.00  0.00    +0.000 F 
ATOM     11  H   UNL     1       1.799   6.082  21.823  0.00  0.00    +0.000 HD
ENDROOT
BRANCH   1  13
ATOM     12  N   UNL     1       5.101   1.671  20.023  0.00  0.00    +0.000 NA
ATOM     13  C   UNL     1       4.187   2.026  19.168  0.00  0.00    +0.000 C 
ATOM     14  N   UNL     1       3.631   1.089  18.355  0.00  0.00    +0.000 N 
ATOM     15  H   UNL     1       5.244   0.663  19.979  0.00  0.00    +0.000 HD
ATOM     16  H   UNL     1       4.145   0.234  18.229  0.00  0.00    +0.000 HD
ATOM     17  H   UNL     1       3.246   1.444  17.480  0.00  0.00    +0.000 HD
ENDBRANCH   1  13
BRANCH   5  18
ATOM     18  C   UNL     1       1.187   8.574  20.760  0.00  0.00    +0.000 A 
ATOM     19  C   UNL     1       1.053   8.664  22.153  0.00  0.00    +0.000 A 
ATOM     20  C   UNL     1       0.388   9.738  22.739  0.00  0.00    +0.000 A 
ATOM     21  C   UNL     1      -0.190  10.724  21.934  0.00  0.00    +0.000 A 
ATOM     22  C   UNL     1      -0.090  10.646  20.547  0.00  0.00    +0.000 A 
ATOM     23  C   UNL     1       0.623   9.586  19.969  0.00  0.00    +0.000 A 
BRANCH  23  24
ATOM     24  O   UNL     1       0.773   9.557  18.600  0.00  0.00    +0.000 OA
ATOM     25  H   UNL     1       1.141   8.673  18.408  0.00  0.00    +0.000 HD
ENDBRANCH  23  24
BRANCH  22  26
ATOM     26  O   UNL     1      -0.691  11.509  19.655  0.00  0.00    +0.000 OA
BRANCH  26  27
ATOM     27  C   UNL     1      -2.114  11.611  19.775  0.00  0.00    +0.000 C 
BRANCH  27  28
ATOM     28  C   UNL     1      -2.737  12.091  18.448  0.00  0.00    +0.000 C 
ATOM     29  C   UNL     1      -4.048  11.370  18.096  0.00  0.00    +0.000 C 
ATOM     30  C   UNL     1      -3.784   9.903  17.770  0.00  0.00    +0.000 C 
ATOM     31  C   UNL     1      -2.715   9.770  16.684  0.00  0.00    +0.000 C 
ATOM     32  N   UNL     1      -1.482  10.483  17.028  0.00  0.00    +0.000 NA
ATOM     33  C   UNL     1      -1.734  11.902  17.298  0.00  0.00    +0.000 C 
ATOM     34  H   UNL     1      -0.819  10.395  16.257  0.00  0.00    +0.000 HD
ENDBRANCH  27  28
ENDBRANCH  26  27
ENDBRANCH  22  26
ENDBRANCH   5  18
TORSDOF 6
ENDMDL
MODEL 3
REMARK VINA RESULT:      -8.3      1.999      2.644
REMARK  Name = 
REMARK  6 active torsions:
REMARK  status: ('A' for Active; 'I' for Inactive)
REMARK    1  A    between atoms: C_2  and  C_4
REMARK    2  A    between atoms: C_8  and  C_9
REMARK    3  A    between atoms: C_13  and  O_14
REMARK    4  A    between atoms: O_14  and  C_15
REMARK    5  A    between atoms: C_15  and  C_16
REMARK    6  A    between atoms: C_22  and  O_23
REMARK                            x       y       z     vdW  Elec       q    Type
REMARK                         _______ _______ _______ _____ _____    ______ ____
ROOT
ATOM      1  C   UNL     1       5.439   5.283  16.460  0.00  0.00    +0.000 A 
ATOM      2  C   UNL     1       5.121   6.600  16.830  0.00  0.00    +0.000 A 
ATOM      3  C   UNL     1       3.996   6.770  17.635  0.00  0.00    +0.000 A 
ATOM      4  N   UNL     1       3.389   7.877  18.152  0.00  0.00    +0.000 N 
ATOM      5  C   UNL     1       2.340   7.475  18.945  0.00  0.00    +0.000 A 
ATOM      6  N   UNL     1       2.212   6.157  18.898  0.00  0.00    +0.000 NA
ATOM      7  C   UNL     1       3.213   5.714  18.084  0.00  0.00    +0.000 A 
ATOM      8  C   UNL     1       3.515   4.408  17.682  0.00  0.00    +0.000 A 
ATOM      9  C   UNL     1       4.636   4.213  16.880  0.00  0.00    +0.000 A 
ATOM     10  F   UNL     1       4.929   2.949  16.528  0.00  0.00    +0.000 F 
ATOM     11  H   UNL     1       3.658   8.848  18.025  0.00  0.00    +0.000 HD
ENDROOT
BRANCH   1  13
ATOM     12  N   UNL     1       6.609   5.283  14.353  0.00  0.00    +0.000 NA
ATOM     13  C   UNL     1       6.651   5.038  15.630  0.00  0.00    +0.000 C 
ATOM     14  N   UNL     1       7.792   4.548  16.182  0.00  0.00    +0.000 N 
ATOM     15  H   UNL     1       7.520   5.094  13.935  0.00  0.00    +0.000 HD
ATOM     16  H   UNL     1       8.449   4.113  15.556  0.00  0.00    +0.000 HD
ATOM     17  H   UNL     1       7.667   4.019  17.045  0.00  0.00    +0.000 HD
ENDBRANCH   1  13
BRANCH   5  18
ATOM     18  C   UNL     1       1.505   8.388  19.719  0.00  0.00    +0.000 A 
ATOM     19  C   UNL     1       1.271   8.103  21.072  0.00  0.00    +0.000 A 
ATOM     20  C   UNL     1       0.485   8.944  21.854  0.00  0.00    +0.000 A 
ATOM     21  C   UNL     1      -0.117  10.070  21.281  0.00  0.00    +0.000 A 
ATOM     22  C   UNL     1       0.082  10.362  19.933  0.00  0.00    +0.000 A 
ATOM     23  C   UNL     1       0.916   9.535  19.168  0.00  0.00    +0.000 A 
BRANCH  23  24
ATOM     24  O   UNL     1       1.159   9.874  17.855  0.00  0.00    +0.000 OA
ATOM     25  H   UNL     1       0.644   9.230  17.331  0.00  0.00    +0.000 HD
ENDBRANCH  23  24
BRANCH  22  26
ATOM     26  O   UNL     1      -0.525  11.390  19.244  0.00  0.00    +0.000 OA
BRANCH  26  27
ATOM     27  C   UNL     1      -1.894  11.628  19.592  0.00  0.00    +0.000 C 
BRANCH  27  28
ATOM     28  C   UNL     1      -2.698  12.075  18.354  0.00  0.00    +0.000 C 
ATOM     29  C   UNL     1      -4.047  11.351  18.211  0.00  0.00    +0.000 C 
ATOM     30  C   UNL     1      -3.833   9.874  17.893  0.00  0.00    +0.000 C 
ATOM     31  C   UNL     1      -2.930   9.706  16.670  0.00  0.00    +0.000 C 
ATOM     32  N   UNL     1      -1.659  10.423  16.815  0.00  0.00    +0.000 NA
ATOM     33  C   UNL     1      -1.869  11.849  17.079  0.00  0.00    +0.000 C 
ATOM     34  H   UNL     1      -1.112  10.310  15.961  0.00  0.00    +0.000 HD
ENDBRANCH  27  28
ENDBRANCH  26  27
ENDBRANCH  22  26
ENDBRANCH   5  18
TORSDOF 6
ENDMDL
MODEL 4
REMARK VINA RESULT:      -8.2      3.766      8.808
REMARK  Name = 
REMARK  6 active torsions:
REMARK  status: ('A' for Active; 'I' for Inactive)
REMARK    1  A    between atoms: C_2  and  C_4
REMARK    2  A    between atoms: C_8  and  C_9
REMARK    3  A    between atoms: C_13  and  O_14
REMARK    4  A    between atoms: O_14  and  C_15
REMARK    5  A    between atoms: C_15  and  C_16
REMARK    6  A    between atoms: C_22  and  O_23
REMARK                            x       y       z     vdW  Elec       q    Type
REMARK                         _______ _______ _______ _____ _____    ______ ____
ROOT
ATOM      1  C   UNL     1       0.293  11.476  19.214  0.00  0.00    +0.000 A 
ATOM      2  C   UNL     1       1.003  10.466  18.543  0.00  0.00    +0.000 A 
ATOM      3  C   UNL     1       1.273   9.305  19.265  0.00  0.00    +0.000 A 
ATOM      4  N   UNL     1       1.944   8.159  18.953  0.00  0.00    +0.000 N 
ATOM      5  C   UNL     1       1.854   7.292  20.017  0.00  0.00    +0.000 A 
ATOM      6  N   UNL     1       1.212   7.869  21.023  0.00  0.00    +0.000 NA
ATOM      7  C   UNL     1       0.864   9.111  20.579  0.00  0.00    +0.000 A 
ATOM      8  C   UNL     1       0.190  10.135  21.252  0.00  0.00    +0.000 A 
ATOM      9  C   UNL     1      -0.094  11.304  20.550  0.00  0.00    +0.000 A 
ATOM     10  F   UNL     1      -0.770  12.266  21.203  0.00  0.00    +0.000 F 
ATOM     11  H   UNL     1       2.411   7.931  18.081  0.00  0.00    +0.000 HD
ENDROOT
BRANCH   1  13
ATOM     12  N   UNL     1      -1.051  12.717  17.644  0.00  0.00    +0.000 NA
ATOM     13  C   UNL     1      -0.054  12.724  18.480  0.00  0.00    +0.000 C 
ATOM     14  N   UNL     1       0.663  13.865  18.658  0.00  0.00    +0.000 N 
ATOM     15  H   UNL     1      -1.178  13.648  17.249  0.00  0.00    +0.000 HD
ATOM     16  H   UNL     1       0.598  14.560  17.933  0.00  0.00    +0.000 HD
ATOM     17  H   UNL     1       1.620  13.732  18.985  0.00  0.00    +0.000 HD
ENDBRANCH   1  13
BRANCH   5  18
ATOM     18  C   UNL     1       2.395   5.937  20.014  0.00  0.00    +0.000 A 
ATOM     19  C   UNL     1       1.741   4.949  20.764  0.00  0.00    +0.000 A 
ATOM     20  C   UNL     1       2.216   3.641  20.792  0.00  0.00    +0.000 A 
ATOM     21  C   UNL     1       3.382   3.307  20.095  0.00  0.00    +0.000 A 
ATOM     22  C   UNL     1       4.063   4.275  19.361  0.00  0.00    +0.000 A 
ATOM     23  C   UNL     1       3.549   5.578  19.301  0.00  0.00    +0.000 A 
BRANCH  23  24
ATOM     24  O   UNL     1       4.193   6.509  18.516  0.00  0.00    +0.000 OA
ATOM     25  H   UNL     1       4.793   6.979  19.128  0.00  0.00    +0.000 HD
ENDBRANCH  23  24
BRANCH  22  26
ATOM     26  O   UNL     1       5.263   4.083  18.710  0.00  0.00    +0.000 OA
BRANCH  26  27
ATOM     27  C   UNL     1       5.198   4.168  17.282  0.00  0.00    +0.000 C 
BRANCH  27  28
ATOM     28  C   UNL     1       6.609   4.345  16.684  0.00  0.00    +0.000 C 
ATOM     29  C   UNL     1       7.695   4.575  17.748  0.00  0.00    +0.000 C 
ATOM     30  C   UNL     1       7.503   5.927  18.429  0.00  0.00    +0.000 C 
ATOM     31  C   UNL     1       7.429   7.052  17.396  0.00  0.00    +0.000 C 
ATOM     32  N   UNL     1       6.404   6.803  16.377  0.00  0.00    +0.000 NA
ATOM     33  C   UNL     1       6.616   5.523  15.696  0.00  0.00    +0.000 C 
ATOM     34  H   UNL     1       6.421   7.561  15.694  0.00  0.00    +0.000 HD
ENDBRANCH  27  28
ENDBRANCH  26  27
ENDBRANCH  22  26
ENDBRANCH   5  18
TORSDOF 6
ENDMDL
MODEL 5
REMARK VINA RESULT:      -8.2      2.425      3.045
REMARK  Name = 
REMARK  6 active torsions:
REMARK  status: ('A' for Active; 'I' for Inactive)
REMARK    1  A    between atoms: C_2  and  C_4
REMARK    2  A    between atoms: C_8  and  C_9
REMARK    3  A    between atoms: C_13  and  O_14
REMARK    4  A    between atoms: O_14  and  C_15
REMARK    5  A    between atoms: C_15  and  C_16
REMARK    6  A    between atoms: C_22  and  O_23
REMARK                            x       y       z     vdW  Elec       q    Type
REMARK                         _______ _______ _______ _____ _____    ______ ____
ROOT
ATOM      1  C   UNL     1       3.547   3.804  19.048  0.00  0.00    +0.000 A 
ATOM      2  C   UNL     1       2.800   4.336  20.113  0.00  0.00    +0.000 A 
ATOM      3  C   UNL     1       2.443   5.680  20.017  0.00  0.00    +0.000 A 
ATOM      4  N   UNL     1       1.760   6.516  20.852  0.00  0.00    +0.000 N 
ATOM      5  C   UNL     1       1.624   7.739  20.238  0.00  0.00    +0.000 A 
ATOM      6  N   UNL     1       2.256   7.736  19.072  0.00  0.00    +0.000 NA
ATOM      7  C   UNL     1       2.776   6.483  18.933  0.00  0.00    +0.000 A 
ATOM      8  C   UNL     1       3.551   5.956  17.894  0.00  0.00    +0.000 A 
ATOM      9  C   UNL     1       3.917   4.615  17.966  0.00  0.00    +0.000 A 
ATOM     10  F   UNL     1       4.635   4.117  16.944  0.00  0.00    +0.000 F 
ATOM     11  H   UNL     1       1.370   6.299  21.764  0.00  0.00    +0.000 HD
ENDROOT
BRANCH   1  13
ATOM     12  N   UNL     1       3.226   1.506  18.397  0.00  0.00    +0.000 NA
ATOM     13  C   UNL     1       3.925   2.365  19.080  0.00  0.00    +0.000 C 
ATOM     14  N   UNL     1       4.978   1.933  19.824  0.00  0.00    +0.000 N 
ATOM     15  H   UNL     1       3.628   0.575  18.499  0.00  0.00    +0.000 HD
ATOM     16  H   UNL     1       4.996   0.955  20.060  0.00  0.00    +0.000 HD
ATOM     17  H   UNL     1       5.229   2.529  20.612  0.00  0.00    +0.000 HD
ENDBRANCH   1  13
BRANCH   5  18
ATOM     18  C   UNL     1       0.885   8.861  20.807  0.00  0.00    +0.000 A 
ATOM     19  C   UNL     1       0.748   8.939  22.200  0.00  0.00    +0.000 A 
ATOM     20  C   UNL     1       0.054   9.991  22.792  0.00  0.00    +0.000 A 
ATOM     21  C   UNL     1      -0.550  10.966  21.992  0.00  0.00    +0.000 A 
ATOM     22  C   UNL     1      -0.448  10.898  20.604  0.00  0.00    +0.000 A 
ATOM     23  C   UNL     1       0.294   9.862  20.022  0.00  0.00    +0.000 A 
BRANCH  23  24
ATOM     24  O   UNL     1       0.446   9.845  18.652  0.00  0.00    +0.000 OA
ATOM     25  H   UNL     1       0.585  10.780  18.405  0.00  0.00    +0.000 HD
ENDBRANCH  23  24
BRANCH  22  26
ATOM     26  O   UNL     1      -1.071  11.750  19.718  0.00  0.00    +0.000 OA
BRANCH  26  27
ATOM     27  C   UNL     1      -0.827  13.143  19.943  0.00  0.00    +0.000 C 
BRANCH  27  28
ATOM     28  C   UNL     1      -0.163  13.784  18.707  0.00  0.00    +0.000 C 
ATOM     29  C   UNL     1       1.254  13.252  18.434  0.00  0.00    +0.000 C 
ATOM     30  C   UNL     1       2.215  13.693  19.534  0.00  0.00    +0.000 C 
ATOM     31  C   UNL     1       2.170  15.211  19.721  0.00  0.00    +0.000 C 
ATOM     32  N   UNL     1       0.808  15.701  19.956  0.00  0.00    +0.000 NA
ATOM     33  C   UNL     1      -0.102  15.311  18.876  0.00  0.00    +0.000 C 
ATOM     34  H   UNL     1       0.828  16.718  20.036  0.00  0.00    +0.000 HD
ENDBRANCH  27  28
ENDBRANCH  26  27
ENDBRANCH  22  26
ENDBRANCH   5  18
TORSDOF 6
ENDMDL
MODEL 6
REMARK VINA RESULT:      -8.1      1.277      1.856
REMARK  Name = 
REMARK  6 active torsions:
REMARK  status: ('A' for Active; 'I' for Inactive)
REMARK    1  A    between atoms: C_2  and  C_4
REMARK    2  A    between atoms: C_8  and  C_9
REMARK    3  A    between atoms: C_13  and  O_14
REMARK    4  A    between atoms: O_14  and  C_15
REMARK    5  A    between atoms: C_15  and  C_16
REMARK    6  A    between atoms: C_22  and  O_23
REMARK                            x       y       z     vdW  Elec       q    Type
REMARK                         _______ _______ _______ _____ _____    ______ ____
ROOT
ATOM      1  C   UNL     1       3.743   4.358  19.164  0.00  0.00    +0.000 A 
ATOM      2  C   UNL     1       3.598   5.679  18.709  0.00  0.00    +0.000 A 
ATOM      3  C   UNL     1       2.697   6.484  19.403  0.00  0.00    +0.000 A 
ATOM      4  N   UNL     1       2.291   7.776  19.233  0.00  0.00    +0.000 N 
ATOM      5  C   UNL     1       1.426   8.105  20.250  0.00  0.00    +0.000 A 
ATOM      6  N   UNL     1       1.209   7.051  21.023  0.00  0.00    +0.000 NA
ATOM      7  C   UNL     1       1.972   6.045  20.504  0.00  0.00    +0.000 A 
ATOM      8  C   UNL     1       2.094   4.718  20.929  0.00  0.00    +0.000 A 
ATOM      9  C   UNL     1       2.991   3.894  20.253  0.00  0.00    +0.000 A 
ATOM     10  F   UNL     1       3.120   2.630  20.694  0.00  0.00    +0.000 F 
ATOM     11  H   UNL     1       2.584   8.427  18.511  0.00  0.00    +0.000 HD
ENDROOT
BRANCH   1  13
ATOM     12  N   UNL     1       5.991   3.714  18.579  0.00  0.00    +0.000 NA
ATOM     13  C   UNL     1       4.719   3.462  18.483  0.00  0.00    +0.000 C 
ATOM     14  N   UNL     1       4.299   2.398  17.750  0.00  0.00    +0.000 N 
ATOM     15  H   UNL     1       6.523   2.998  18.086  0.00  0.00    +0.000 HD
ATOM     16  H   UNL     1       4.946   2.029  17.073  0.00  0.00    +0.000 HD
ATOM     17  H   UNL     1       3.350   2.466  17.384  0.00  0.00    +0.000 HD
ENDBRANCH   1  13
BRANCH   5  18
ATOM     18  C   UNL     1       0.845   9.431  20.430  0.00  0.00    +0.000 A 
ATOM     19  C   UNL     1       0.388   9.798  21.704  0.00  0.00    +0.000 A 
ATOM     20  C   UNL     1      -0.172  11.052  21.929  0.00  0.00    +0.000 A 
ATOM     21  C   UNL     1      -0.319  11.951  20.867  0.00  0.00    +0.000 A 
ATOM     22  C   UNL     1       0.106  11.602  19.588  0.00  0.00    +0.000 A 
ATOM     23  C   UNL     1       0.713  10.355  19.383  0.00  0.00    +0.000 A 
BRANCH  23  24
ATOM     24  O   UNL     1       1.192  10.049  18.128  0.00  0.00    +0.000 OA
ATOM     25  H   UNL     1       1.665   9.202  18.241  0.00  0.00    +0.000 HD
ENDBRANCH  23  24
BRANCH  22  26
ATOM     26  O   UNL     1      -0.065  12.369  18.455  0.00  0.00    +0.000 OA
BRANCH  26  27
ATOM     27  C   UNL     1      -1.423  12.526  18.030  0.00  0.00    +0.000 C 
BRANCH  27  28
ATOM     28  C   UNL     1      -2.209  11.213  18.228  0.00  0.00    +0.000 C 
ATOM     29  C   UNL     1      -2.066  10.235  17.051  0.00  0.00    +0.000 C 
ATOM     30  C   UNL     1      -2.750  10.789  15.805  0.00  0.00    +0.000 C 
ATOM     31  C   UNL     1      -4.203  11.162  16.101  0.00  0.00    +0.000 C 
ATOM     32  N   UNL     1      -4.320  12.077  17.241  0.00  0.00    +0.000 NA
ATOM     33  C   UNL     1      -3.700  11.522  18.447  0.00  0.00    +0.000 C 
ATOM     34  H   UNL     1      -5.307  12.264  17.419  0.00  0.00    +0.000 HD
ENDBRANCH  27  28
ENDBRANCH  26  27
ENDBRANCH  22  26
ENDBRANCH   5  18
TORSDOF 6
ENDMDL
MODEL 7
REMARK VINA RESULT:      -8.0      2.035      2.755
REMARK  Name = 
REMARK  6 active torsions:
REMARK  status: ('A' for Active; 'I' for Inactive)
REMARK    1  A    between atoms: C_2  and  C_4
REMARK    2  A    between atoms: C_8  and  C_9
REMARK    3  A    between atoms: C_13  and  O_14
REMARK    4  A    between atoms: O_14  and  C_15
REMARK    5  A    between atoms: C_15  and  C_16
REMARK    6  A    between atoms: C_22  and  O_23
REMARK                            x       y       z     vdW  Elec       q    Type
REMARK                         _______ _______ _______ _____ _____    ______ ____
ROOT
ATOM      1  C   UNL     1       3.468   3.893  18.943  0.00  0.00    +0.000 A 
ATOM      2  C   UNL     1       2.758   4.379  20.054  0.00  0.00    +0.000 A 
ATOM      3  C   UNL     1       2.398   5.724  20.028  0.00  0.00    +0.000 A 
ATOM      4  N   UNL     1       1.744   6.523  20.921  0.00  0.00    +0.000 N 
ATOM      5  C   UNL     1       1.586   7.771  20.363  0.00  0.00    +0.000 A 
ATOM      6  N   UNL     1       2.177   7.818  19.178  0.00  0.00    +0.000 NA
ATOM      7  C   UNL     1       2.693   6.573  18.968  0.00  0.00    +0.000 A 
ATOM      8  C   UNL     1       3.431   6.092  17.881  0.00  0.00    +0.000 A 
ATOM      9  C   UNL     1       3.800   4.749  17.883  0.00  0.00    +0.000 A 
ATOM     10  F   UNL     1       4.482   4.296  16.817  0.00  0.00    +0.000 F 
ATOM     11  H   UNL     1       1.386   6.267  21.835  0.00  0.00    +0.000 HD
ENDROOT
BRANCH   1  13
ATOM     12  N   UNL     1       3.135   1.626  18.195  0.00  0.00    +0.000 NA
ATOM     13  C   UNL     1       3.848   2.454  18.901  0.00  0.00    +0.000 C 
ATOM     14  N   UNL     1       4.917   1.991  19.601  0.00  0.00    +0.000 N 
ATOM     15  H   UNL     1       3.540   0.692  18.245  0.00  0.00    +0.000 HD
ATOM     16  H   UNL     1       4.941   1.003  19.792  0.00  0.00    +0.000 HD
ATOM     17  H   UNL     1       5.186   2.551  20.409  0.00  0.00    +0.000 HD
ENDBRANCH   1  13
BRANCH   5  18
ATOM     18  C   UNL     1       0.867   8.866  21.004  0.00  0.00    +0.000 A 
ATOM     19  C   UNL     1       0.736   8.859  22.400  0.00  0.00    +0.000 A 
ATOM     20  C   UNL     1       0.061   9.882  23.060  0.00  0.00    +0.000 A 
ATOM     21  C   UNL     1      -0.531  10.915  22.325  0.00  0.00    +0.000 A 
ATOM     22  C   UNL     1      -0.434  10.933  20.936  0.00  0.00    +0.000 A 
ATOM     23  C   UNL     1       0.289   9.923  20.286  0.00  0.00    +0.000 A 
BRANCH  23  24
ATOM     24  O   UNL     1       0.436   9.989  18.918  0.00  0.00    +0.000 OA
ATOM     25  H   UNL     1       0.269   9.079  18.604  0.00  0.00    +0.000 HD
ENDBRANCH  23  24
BRANCH  22  26
ATOM     26  O   UNL     1      -1.047  11.848  20.107  0.00  0.00    +0.000 OA
BRANCH  26  27
ATOM     27  C   UNL     1      -2.478  11.815  20.122  0.00  0.00    +0.000 C 
BRANCH  27  28
ATOM     28  C   UNL     1      -3.050  13.217  20.418  0.00  0.00    +0.000 C 
ATOM     29  C   UNL     1      -2.680  13.742  21.815  0.00  0.00    +0.000 C 
ATOM     30  C   UNL     1      -3.370  12.918  22.899  0.00  0.00    +0.000 C 
ATOM     31  C   UNL     1      -4.880  12.861  22.661  0.00  0.00    +0.000 C 
ATOM     32  N   UNL     1      -5.212  12.382  21.316  0.00  0.00    +0.000 NA
ATOM     33  C   UNL     1      -4.581  13.201  20.277  0.00  0.00    +0.000 C 
ATOM     34  H   UNL     1      -6.225  12.398  21.195  0.00  0.00    +0.000 HD
ENDBRANCH  27  28
ENDBRANCH  26  27
ENDBRANCH  22  26
ENDBRANCH   5  18
TORSDOF 6
ENDMDL
MODEL 8
REMARK VINA RESULT:      -8.0      3.867      9.164
REMARK  Name = 
REMARK  6 active torsions:
REMARK  status: ('A' for Active; 'I' for Inactive)
REMARK    1  A    between atoms: C_2  and  C_4
REMARK    2  A    between atoms: C_8  and  C_9
REMARK    3  A    between atoms: C_13  and  O_14
REMARK    4  A    between atoms: O_14  and  C_15
REMARK    5  A    between atoms: C_15  and  C_16
REMARK    6  A    between atoms: C_22  and  O_23
REMARK                            x       y       z     vdW  Elec       q    Type
REMARK                         _______ _______ _______ _____ _____    ______ ____
ROOT
ATOM      1  C   UNL     1      -2.493  12.955  20.980  0.00  0.00    +0.000 A 
ATOM      2  C   UNL     1      -2.096  12.190  19.870  0.00  0.00    +0.000 A 
ATOM      3  C   UNL     1      -1.006  11.341  20.054  0.00  0.00    +0.000 A 
ATOM      4  N   UNL     1      -0.346  10.492  19.214  0.00  0.00    +0.000 N 
ATOM      5  C   UNL     1       0.626   9.831  19.929  0.00  0.00    +0.000 A 
ATOM      6  N   UNL     1       0.656  10.277  21.177  0.00  0.00    +0.000 NA
ATOM      7  C   UNL     1      -0.330  11.216  21.261  0.00  0.00    +0.000 A 
ATOM      8  C   UNL     1      -0.709  12.007  22.351  0.00  0.00    +0.000 A 
ATOM      9  C   UNL     1      -1.797  12.862  22.194  0.00  0.00    +0.000 A 
ATOM     10  F   UNL     1      -2.166  13.592  23.260  0.00  0.00    +0.000 F 
ATOM     11  H   UNL     1      -0.533  10.322  18.231  0.00  0.00    +0.000 HD
ENDROOT
BRANCH   1  13
ATOM     12  N   UNL     1      -3.495  15.096  20.509  0.00  0.00    +0.000 NA
ATOM     13  C   UNL     1      -3.673  13.854  20.853  0.00  0.00    +0.000 C 
ATOM     14  N   UNL     1      -4.929  13.402  21.106  0.00  0.00    +0.000 N 
ATOM     15  H   UNL     1      -4.396  15.568  20.438  0.00  0.00    +0.000 HD
ATOM     16  H   UNL     1      -5.629  14.095  21.312  0.00  0.00    +0.000 HD
ATOM     17  H   UNL     1      -4.986  12.594  21.726  0.00  0.00    +0.000 HD
ENDBRANCH   1  13
BRANCH   5  18
ATOM     18  C   UNL     1       1.484   8.792  19.372  0.00  0.00    +0.000 A 
ATOM     19  C   UNL     1       1.967   8.946  18.065  0.00  0.00    +0.000 A 
ATOM     20  C   UNL     1       2.791   7.984  17.489  0.00  0.00    +0.000 A 
ATOM     21  C   UNL     1       3.117   6.826  18.202  0.00  0.00    +0.000 A 
ATOM     22  C   UNL     1       2.632   6.638  19.494  0.00  0.00    +0.000 A 
ATOM     23  C   UNL     1       1.843   7.636  20.082  0.00  0.00    +0.000 A 
BRANCH  23  24
ATOM     24  O   UNL     1       1.427   7.470  21.385  0.00  0.00    +0.000 OA
ATOM     25  H   UNL     1       1.655   8.310  21.829  0.00  0.00    +0.000 HD
ENDBRANCH  23  24
BRANCH  22  26
ATOM     26  O   UNL     1       2.816   5.505  20.256  0.00  0.00    +0.000 OA
BRANCH  26  27
ATOM     27  C   UNL     1       3.642   4.500  19.658  0.00  0.00    +0.000 C 
BRANCH  27  28
ATOM     28  C   UNL     1       3.246   3.098  20.168  0.00  0.00    +0.000 C 
ATOM     29  C   UNL     1       3.112   2.058  19.044  0.00  0.00    +0.000 C 
ATOM     30  C   UNL     1       1.918   2.383  18.151  0.00  0.00    +0.000 C 
ATOM     31  C   UNL     1       0.643   2.537  18.981  0.00  0.00    +0.000 C 
ATOM     32  N   UNL     1       0.798   3.515  20.062  0.00  0.00    +0.000 NA
ATOM     33  C   UNL     1       1.920   3.176  20.942  0.00  0.00    +0.000 C 
ATOM     34  H   UNL     1      -0.064   3.552  20.606  0.00  0.00    +0.000 HD
ENDBRANCH  27  28
ENDBRANCH  26  27
ENDBRANCH  22  26
ENDBRANCH   5  18
TORSDOF 6
ENDMDL
MODEL 9
REMARK VINA RESULT:      -8.0      2.993      4.146
REMARK  Name = 
REMARK  6 active torsions:
REMARK  status: ('A' for Active; 'I' for Inactive)
REMARK    1  A    between atoms: C_2  and  C_4
REMARK    2  A    between atoms: C_8  and  C_9
REMARK    3  A    between atoms: C_13  and  O_14
REMARK    4  A    between atoms: O_14  and  C_15
REMARK    5  A    between atoms: C_15  and  C_16
REMARK    6  A    between atoms: C_22  and  O_23
REMARK                            x       y       z     vdW  Elec       q    Type
REMARK                         _______ _______ _______ _____ _____    ______ ____
ROOT
ATOM      1  C   UNL     1       5.491   4.963  15.880  0.00  0.00    +0.000 A 
ATOM      2  C   UNL     1       5.119   6.293  16.142  0.00  0.00    +0.000 A 
ATOM      3  C   UNL     1       4.123   6.487  17.097  0.00  0.00    +0.000 A 
ATOM      4  N   UNL     1       3.509   7.608  17.575  0.00  0.00    +0.000 N 
ATOM      5  C   UNL     1       2.636   7.241  18.573  0.00  0.00    +0.000 A 
ATOM      6  N   UNL     1       2.618   5.922  18.701  0.00  0.00    +0.000 NA
ATOM      7  C   UNL     1       3.515   5.447  17.789  0.00  0.00    +0.000 A 
ATOM      8  C   UNL     1       3.865   4.125  17.497  0.00  0.00    +0.000 A 
ATOM      9  C   UNL     1       4.860   3.904  16.549  0.00  0.00    +0.000 A 
ATOM     10  F   UNL     1       5.206   2.628  16.303  0.00  0.00    +0.000 F 
ATOM     11  H   UNL     1       3.668   8.571  17.294  0.00  0.00    +0.000 HD
ENDROOT
BRANCH   1  13
ATOM     12  N   UNL     1       7.677   5.386  14.956  0.00  0.00    +0.000 NA
ATOM     13  C   UNL     1       6.575   4.697  14.895  0.00  0.00    +0.000 C 
ATOM     14  N   UNL     1       6.424   3.759  13.923  0.00  0.00    +0.000 N 
ATOM     15  H   UNL     1       8.325   5.066  14.237  0.00  0.00    +0.000 HD
ATOM     16  H   UNL     1       7.024   3.836  13.119  0.00  0.00    +0.000 HD
ATOM     17  H   UNL     1       5.460   3.543  13.670  0.00  0.00    +0.000 HD
ENDBRANCH   1  13
BRANCH   5  18
ATOM     18  C   UNL     1       1.855   8.187  19.363  0.00  0.00    +0.000 A 
ATOM     19  C   UNL     1       1.566   7.872  20.698  0.00  0.00    +0.000 A 
ATOM     20  C   UNL     1       0.827   8.742  21.494  0.00  0.00    +0.000 A 
ATOM     21  C   UNL     1       0.329   9.931  20.952  0.00  0.00    +0.000 A 
ATOM     22  C   UNL     1       0.583  10.257  19.622  0.00  0.00    +0.000 A 
ATOM     23  C   UNL     1       1.369   9.396  18.843  0.00  0.00    +0.000 A 
BRANCH  23  24
ATOM     24  O   UNL     1       1.670   9.763  17.550  0.00  0.00    +0.000 OA
ATOM     25  H   UNL     1       2.057   8.961  17.147  0.00  0.00    +0.000 HD
ENDBRANCH  23  24
BRANCH  22  26
ATOM     26  O   UNL     1       0.074  11.353  18.960  0.00  0.00    +0.000 OA
BRANCH  26  27
ATOM     27  C   UNL     1       0.377  12.618  19.558  0.00  0.00    +0.000 C 
BRANCH  27  28
ATOM     28  C   UNL     1       0.870  13.618  18.492  0.00  0.00    +0.000 C 
ATOM     29  C   UNL     1       2.390  13.567  18.266  0.00  0.00    +0.000 C 
ATOM     30  C   UNL     1       3.134  14.075  19.498  0.00  0.00    +0.000 C 
ATOM     31  C   UNL     1       2.635  15.463  19.902  0.00  0.00    +0.000 C 
ATOM     32  N   UNL     1       1.181  15.497  20.090  0.00  0.00    +0.000 NA
ATOM     33  C   UNL     1       0.469  15.049  18.890  0.00  0.00    +0.000 C 
ATOM     34  H   UNL     1       0.896  16.449  20.321  0.00  0.00    +0.000 HD
ENDBRANCH  27  28
ENDBRANCH  26  27
ENDBRANCH  22  26
ENDBRANCH   5  18
TORSDOF 6
ENDMDL
