MODEL 1
REMARK VINA RESULT:      -9.1      0.000      0.000
REMARK  Name = 
REMARK  9 active torsions:
REMARK  status: ('A' for Active; 'I' for Inactive)
REMARK    1  A    between atoms: C_1  and  C_2
REMARK    2  A    between atoms: C_5  and  C_6
REMARK    3  A    between atoms: N_8  and  C_9
REMARK    4  A    between atoms: C_9  and  C_10
REMARK    5  A    between atoms: N_12  and  C_13
REMARK    6  A    between atoms: C_16  and  S_17
REMARK    7  A    between atoms: S_17  and  N_20
REMARK    8  A    between atoms: C_23  and  C_24
REMARK    9  A    between atoms: C_26  and  C_27
REMARK                            x       y       z     vdW  Elec       q    Type
REMARK                         _______ _______ _______ _____ _____    ______ ____
ROOT
ATOM      1  C   UNL     1       1.875   7.061  20.303  0.00  0.00    +0.000 A 
ATOM      2  C   UNL     1       2.180   7.130  18.937  0.00  0.00    +0.000 A 
ATOM      3  C   UNL     1       2.431   5.977  18.190  0.00  0.00    +0.000 A 
ATOM      4  C   UNL     1       2.390   4.731  18.810  0.00  0.00    +0.000 A 
ATOM      5  C   UNL     1       2.057   4.632  20.165  0.00  0.00    +0.000 A 
ATOM      6  C   UNL     1       1.826   5.799  20.912  0.00  0.00    +0.000 A 
ENDROOT
BRANCH   1   9
ATOM      7  C   UNL     1       0.404   8.596  21.601  0.00  0.00    +0.000 C 
ATOM      8  O   UNL     1      -0.629   7.934  21.579  0.00  0.00    +0.000 OA
ATOM      9  N   UNL     1       1.635   8.210  21.090  0.00  0.00    +0.000 N 
ATOM     10  H   UNL     1       2.445   8.731  21.427  0.00  0.00    +0.000 HD
BRANCH   7  11
ATOM     11  C   UNL     1       0.426   9.928  22.351  0.00  0.00    +0.000 C 
BRANCH  11  14
ATOM     12  C   UNL     1      -1.142  11.808  22.545  0.00  0.00    +0.000 C 
ATOM     13  O   UNL     1      -0.226  12.625  22.489  0.00  0.00    +0.000 OA
ATOM     14  N   UNL     1      -0.920  10.453  22.477  0.00  0.00    +0.000 N 
ATOM     15  H   UNL     1      -1.678   9.792  22.574  0.00  0.00    +0.000 HD
BRANCH  12  20
ATOM     16  C   UNL     1      -6.640  13.637  22.881  0.00  0.00    +0.000 C 
ATOM     17  C   UNL     1      -5.221  13.155  22.800  0.00  0.00    +0.000 A 
ATOM     18  C   UNL     1      -4.570  13.043  21.566  0.00  0.00    +0.000 A 
ATOM     19  C   UNL     1      -3.246  12.602  21.502  0.00  0.00    +0.000 A 
ATOM     20  C   UNL     1      -2.557  12.257  22.671  0.00  0.00    +0.000 A 
ATOM     21  C   UNL     1      -3.200  12.370  23.908  0.00  0.00    +0.000 A 
ATOM     22  C   UNL     1      -4.525  12.817  23.969  0.00  0.00    +0.000 A 
ENDBRANCH  12  20
ENDBRANCH  11  14
ENDBRANCH   7  11
ENDBRANCH   1   9
BRANCH   4  23
ATOM     23  S   UNL     1       2.736   3.270  17.842  0.00  0.00    +0.000 S 
ATOM     24  O   UNL     1       2.036   2.152  18.444  0.00  0.00    +0.000 OA
ATOM     25  O   UNL     1       2.524   3.620  16.452  0.00  0.00    +0.000 OA
BRANCH  23  26
ATOM     26  N   UNL     1       4.407   3.045  18.022  0.00  0.00    +0.000 N 
ATOM     27  C   UNL     1       5.206   3.930  17.264  0.00  0.00    +0.000 A 
ATOM     28  C   UNL     1       5.574   5.153  17.766  0.00  0.00    +0.000 A 
ATOM     29  C   UNL     1       6.255   5.968  16.893  0.00  0.00    +0.000 A 
ATOM     30  C   UNL     1       6.734   7.325  17.306  0.00  0.00    +0.000 C 
ATOM     31  N   UNL     1       6.506   5.599  15.619  0.00  0.00    +0.000 NA
ATOM     32  C   UNL     1       6.093   4.379  15.230  0.00  0.00    +0.000 A 
ATOM     33  C   UNL     1       6.291   4.003  13.795  0.00  0.00    +0.000 C 
ATOM     34  N   UNL     1       5.459   3.500  16.024  0.00  0.00    +0.000 NA
ATOM     35  H   UNL     1       4.645   2.074  17.831  0.00  0.00    +0.000 HD
ENDBRANCH  23  26
ENDBRANCH   4  23
TORSDOF 6
ENDMDL
MODEL 2
REMARK VINA RESULT:      -9.0      0.275      1.233
REMARK  Name = 
REMARK  9 active torsions:
REMARK  status: ('A' for Active; 'I' for Inactive)
REMARK    1  A    between atoms: C_1  and  C_2
REMARK    2  A    between atoms: C_5  and  C_6
REMARK    3  A    between atoms: N_8  and  C_9
REMARK    4  A    between atoms: C_9  and  C_10
REMARK    5  A    between atoms: N_12  and  C_13
REMARK    6  A    between atoms: C_16  and  S_17
REMARK    7  A    between atoms: S_17  and  N_20
REMARK    8  A    between atoms: C_23  and  C_24
REMARK    9  A    between atoms: C_26  and  C_27
REMARK                            x       y       z     vdW  Elec       q    Type
REMARK                         _______ _______ _______ _____ _____    ______ ____
ROOT
ATOM      1  C   UNL     1       2.016   6.810  20.565  0.00  0.00    +0.000 A 
ATOM      2  C   UNL     1       2.031   5.492  21.041  0.00  0.00    +0.000 A 
ATOM      3  C   UNL     1       2.261   4.413  20.184  0.00  0.00    +0.000 A 
ATOM      4  C   UNL     1       2.468   4.643  18.826  0.00  0.00    +0.000 A 
ATOM      5  C   UNL     1       2.490   5.950  18.332  0.00  0.00    +0.000 A 
ATOM      6  C   UNL     1       2.238   7.028  19.198  0.00  0.00    +0.000 A 
ENDROOT
BRANCH   1   9
ATOM      7  C   UNL     1       0.523   8.478  21.656  0.00  0.00    +0.000 C 
ATOM      8  O   UNL     1      -0.562   8.012  21.321  0.00  0.00    +0.000 OA
ATOM      9  N   UNL     1       1.768   7.921  21.402  0.00  0.00    +0.000 N 
ATOM     10  H   UNL     1       2.539   8.264  21.975  0.00  0.00    +0.000 HD
BRANCH   7  11
ATOM     11  C   UNL     1       0.562   9.726  22.539  0.00  0.00    +0.000 C 
BRANCH  11  14
ATOM     12  C   UNL     1      -0.921  11.675  22.367  0.00  0.00    +0.000 C 
ATOM     13  O   UNL     1       0.019  12.409  22.073  0.00  0.00    +0.000 OA
ATOM     14  N   UNL     1      -0.753  10.332  22.608  0.00  0.00    +0.000 N 
ATOM     15  H   UNL     1      -1.528   9.750  22.897  0.00  0.00    +0.000 HD
BRANCH  12  20
ATOM     16  C   UNL     1      -6.353  13.661  22.860  0.00  0.00    +0.000 C 
ATOM     17  C   UNL     1      -4.945  13.157  22.728  0.00  0.00    +0.000 A 
ATOM     18  C   UNL     1      -4.266  12.628  23.831  0.00  0.00    +0.000 A 
ATOM     19  C   UNL     1      -2.958  12.153  23.695  0.00  0.00    +0.000 A 
ATOM     20  C   UNL     1      -2.308  12.210  22.457  0.00  0.00    +0.000 A 
ATOM     21  C   UNL     1      -2.983  12.734  21.349  0.00  0.00    +0.000 A 
ATOM     22  C   UNL     1      -4.295  13.204  21.487  0.00  0.00    +0.000 A 
ENDBRANCH  12  20
ENDBRANCH  11  14
ENDBRANCH   7  11
ENDBRANCH   1   9
BRANCH   4  23
ATOM     23  S   UNL     1       2.738   3.248  17.744  0.00  0.00    +0.000 S 
ATOM     24  O   UNL     1       1.993   2.119  18.266  0.00  0.00    +0.000 OA
ATOM     25  O   UNL     1       2.530   3.715  16.388  0.00  0.00    +0.000 OA
BRANCH  23  26
ATOM     26  N   UNL     1       4.399   2.934  17.885  0.00  0.00    +0.000 N 
ATOM     27  C   UNL     1       5.229   3.821  17.164  0.00  0.00    +0.000 A 
ATOM     28  C   UNL     1       5.662   4.995  17.725  0.00  0.00    +0.000 A 
ATOM     29  C   UNL     1       6.370   5.824  16.887  0.00  0.00    +0.000 A 
ATOM     30  C   UNL     1       6.919   7.133  17.365  0.00  0.00    +0.000 C 
ATOM     31  N   UNL     1       6.587   5.514  15.591  0.00  0.00    +0.000 NA
ATOM     32  C   UNL     1       6.110   4.338  15.143  0.00  0.00    +0.000 A 
ATOM     33  C   UNL     1       6.272   4.033  13.687  0.00  0.00    +0.000 C 
ATOM     34  N   UNL     1       5.446   3.448  15.898  0.00  0.00    +0.000 NA
ATOM     35  H   UNL     1       4.587   1.965  17.638  0.00  0.00    +0.000 HD
ENDBRANCH  23  26
ENDBRANCH   4  23
TORSDOF 6
ENDMDL
MODEL 3
REMARK VINA RESULT:      -8.9      4.025     10.651
REMARK  Name = 
REMARK  9 active torsions:
REMARK  status: ('A' for Active; 'I' for Inactive)
REMARK    1  A    between atoms: C_1  and  C_2
REMARK    2  A    between atoms: C_5  and  C_6
REMARK    3  A    between atoms: N_8  and  C_9
REMARK    4  A    between atoms: C_9  and  C_10
REMARK    5  A    between atoms: N_12  and  C_13
REMARK    6  A    between atoms: C_16  and  S_17
REMARK    7  A    between atoms: S_17  and  N_20
REMARK    8  A    between atoms: C_23  and  C_24
REMARK    9  A    between atoms: C_26  and  C_27
REMARK                            x       y       z     vdW  Elec       q    Type
REMARK                         _______ _______ _______ _____ _____    ______ ____
ROOT
ATOM      1  C   UNL     1       2.000   7.774  19.776  0.00  0.00    +0.000 A 
ATOM      2  C   UNL     1       1.407   8.212  20.968  0.00  0.00    +0.000 A 
ATOM      3  C   UNL     1       0.726   9.429  21.035  0.00  0.00    +0.000 A 
ATOM      4  C   UNL     1       0.639  10.235  19.902  0.00  0.00    +0.000 A 
ATOM      5  C   UNL     1       1.195   9.806  18.693  0.00  0.00    +0.000 A 
ATOM      6  C   UNL     1       1.895   8.589  18.640  0.00  0.00    +0.000 A 
ENDROOT
BRANCH   1   9
ATOM      7  C   UNL     1       2.291   5.334  20.184  0.00  0.00    +0.000 C 
ATOM      8  O   UNL     1       1.185   5.085  20.652  0.00  0.00    +0.000 OA
ATOM      9  N   UNL     1       2.712   6.557  19.680  0.00  0.00    +0.000 N 
ATOM     10  H   UNL     1       3.537   6.537  19.080  0.00  0.00    +0.000 HD
BRANCH   7  11
ATOM     11  C   UNL     1       3.302   4.201  20.005  0.00  0.00    +0.000 C 
BRANCH  11  14
ATOM     12  C   UNL     1       5.237   4.426  18.510  0.00  0.00    +0.000 C 
ATOM     13  O   UNL     1       6.007   4.529  19.462  0.00  0.00    +0.000 OA
ATOM     14  N   UNL     1       3.884   4.253  18.678  0.00  0.00    +0.000 N 
ATOM     15  H   UNL     1       3.257   4.220  17.886  0.00  0.00    +0.000 HD
BRANCH  12  20
ATOM     16  C   UNL     1       7.087   4.469  13.009  0.00  0.00    +0.000 C 
ATOM     17  C   UNL     1       6.613   4.468  14.433  0.00  0.00    +0.000 A 
ATOM     18  C   UNL     1       5.281   4.174  14.746  0.00  0.00    +0.000 A 
ATOM     19  C   UNL     1       4.851   4.167  16.075  0.00  0.00    +0.000 A 
ATOM     20  C   UNL     1       5.746   4.464  17.110  0.00  0.00    +0.000 A 
ATOM     21  C   UNL     1       7.080   4.755  16.805  0.00  0.00    +0.000 A 
ATOM     22  C   UNL     1       7.508   4.757  15.472  0.00  0.00    +0.000 A 
ENDBRANCH  12  20
ENDBRANCH  11  14
ENDBRANCH   7  11
ENDBRANCH   1   9
BRANCH   4  23
ATOM     23  S   UNL     1      -0.217  11.798  20.015  0.00  0.00    +0.000 S 
ATOM     24  O   UNL     1      -1.625  11.528  20.233  0.00  0.00    +0.000 OA
ATOM     25  O   UNL     1       0.533  12.630  20.934  0.00  0.00    +0.000 OA
BRANCH  23  26
ATOM     26  N   UNL     1      -0.012  12.490  18.480  0.00  0.00    +0.000 N 
ATOM     27  C   UNL     1       0.857  13.603  18.447  0.00  0.00    +0.000 A 
ATOM     28  C   UNL     1       2.207  13.439  18.273  0.00  0.00    +0.000 A 
ATOM     29  C   UNL     1       2.959  14.586  18.371  0.00  0.00    +0.000 A 
ATOM     30  C   UNL     1       4.445  14.563  18.188  0.00  0.00    +0.000 C 
ATOM     31  N   UNL     1       2.403  15.783  18.657  0.00  0.00    +0.000 NA
ATOM     32  C   UNL     1       1.067  15.827  18.815  0.00  0.00    +0.000 A 
ATOM     33  C   UNL     1       0.459  17.134  19.219  0.00  0.00    +0.000 C 
ATOM     34  N   UNL     1       0.250  14.768  18.697  0.00  0.00    +0.000 NA
ATOM     35  H   UNL     1      -0.921  12.716  18.081  0.00  0.00    +0.000 HD
ENDBRANCH  23  26
ENDBRANCH   4  23
TORSDOF 6
ENDMDL
MODEL 4
REMARK VINA RESULT:      -8.9      2.703      3.828
REMARK  Name = 
REMARK  9 active torsions:
REMARK  status: ('A' for Active; 'I' for Inactive)
REMARK    1  A    between atoms: C_1  and  C_2
REMARK    2  A    between atoms: C_5  and  C_6
REMARK    3  A    between atoms: N_8  and  C_9
REMARK    4  A    between atoms: C_9  and  C_10
REMARK    5  A    between atoms: N_12  and  C_13
REMARK    6  A    between atoms: C_16  and  S_17
REMARK    7  A    between atoms: S_17  and  N_20
REMARK    8  A    between atoms: C_23  and  C_24
REMARK    9  A    between atoms: C_26  and  C_27
REMARK                            x       y       z     vdW  Elec       q    Type
REMARK                         _______ _______ _______ _____ _____    ______ ____
ROOT
ATOM      1  C   UNL     1       1.862   7.035  20.242  0.00  0.00    +0.000 A 
ATOM      2  C   UNL     1       2.165   7.072  18.875  0.00  0.00    +0.000 A 
ATOM      3  C   UNL     1       2.437   5.904  18.159  0.00  0.00    +0.000 A 
ATOM      4  C   UNL     1       2.421   4.675  18.813  0.00  0.00    +0.000 A 
ATOM      5  C   UNL     1       2.090   4.607  20.170  0.00  0.00    +0.000 A 
ATOM      6  C   UNL     1       1.836   5.790  20.886  0.00  0.00    +0.000 A 
ENDROOT
BRANCH   1   9
ATOM      7  C   UNL     1       0.359   8.584  21.487  0.00  0.00    +0.000 C 
ATOM      8  O   UNL     1      -0.666   7.909  21.471  0.00  0.00    +0.000 OA
ATOM      9  N   UNL     1       1.600   8.200  20.998  0.00  0.00    +0.000 N 
ATOM     10  H   UNL     1       2.400   8.739  21.330  0.00  0.00    +0.000 HD
BRANCH   7  11
ATOM     11  C   UNL     1       0.357   9.935  22.202  0.00  0.00    +0.000 C 
BRANCH  11  14
ATOM     12  C   UNL     1       0.361  11.732  20.529  0.00  0.00    +0.000 C 
ATOM     13  O   UNL     1      -0.858  11.660  20.397  0.00  0.00    +0.000 OA
ATOM     14  N   UNL     1       1.051  10.926  21.403  0.00  0.00    +0.000 N 
ATOM     15  H   UNL     1       2.059  10.962  21.465  0.00  0.00    +0.000 HD
BRANCH  12  20
ATOM     16  C   UNL     1       3.339  15.717  17.540  0.00  0.00    +0.000 C 
ATOM     17  C   UNL     1       2.578  14.681  18.315  0.00  0.00    +0.000 A 
ATOM     18  C   UNL     1       1.695  15.053  19.335  0.00  0.00    +0.000 A 
ATOM     19  C   UNL     1       0.985  14.082  20.045  0.00  0.00    +0.000 A 
ATOM     20  C   UNL     1       1.156  12.724  19.752  0.00  0.00    +0.000 A 
ATOM     21  C   UNL     1       2.034  12.345  18.731  0.00  0.00    +0.000 A 
ATOM     22  C   UNL     1       2.740  13.321  18.018  0.00  0.00    +0.000 A 
ENDBRANCH  12  20
ENDBRANCH  11  14
ENDBRANCH   7  11
ENDBRANCH   1   9
BRANCH   4  23
ATOM     23  S   UNL     1       2.794   3.195  17.886  0.00  0.00    +0.000 S 
ATOM     24  O   UNL     1       2.125   2.079  18.525  0.00  0.00    +0.000 OA
ATOM     25  O   UNL     1       2.564   3.500  16.488  0.00  0.00    +0.000 OA
BRANCH  23  26
ATOM     26  N   UNL     1       4.471   3.014  18.059  0.00  0.00    +0.000 N 
ATOM     27  C   UNL     1       5.243   3.918  17.294  0.00  0.00    +0.000 A 
ATOM     28  C   UNL     1       5.581   5.151  17.789  0.00  0.00    +0.000 A 
ATOM     29  C   UNL     1       6.237   5.980  16.910  0.00  0.00    +0.000 A 
ATOM     30  C   UNL     1       6.682   7.351  17.315  0.00  0.00    +0.000 C 
ATOM     31  N   UNL     1       6.492   5.613  15.636  0.00  0.00    +0.000 NA
ATOM     32  C   UNL     1       6.109   4.381  15.254  0.00  0.00    +0.000 A 
ATOM     33  C   UNL     1       6.312   4.004  13.820  0.00  0.00    +0.000 C 
ATOM     34  N   UNL     1       5.503   3.489  16.054  0.00  0.00    +0.000 NA
ATOM     35  H   UNL     1       4.733   2.049  17.870  0.00  0.00    +0.000 HD
ENDBRANCH  23  26
ENDBRANCH   4  23
TORSDOF 6
ENDMDL
MODEL 5
REMARK VINA RESULT:      -8.8      2.700      3.877
REMARK  Name = 
REMARK  9 active torsions:
REMARK  status: ('A' for Active; 'I' for Inactive)
REMARK    1  A    between atoms: C_1  and  C_2
REMARK    2  A    between atoms: C_5  and  C_6
REMARK    3  A    between atoms: N_8  and  C_9
REMARK    4  A    between atoms: C_9  and  C_10
REMARK    5  A    between atoms: N_12  and  C_13
REMARK    6  A    between atoms: C_16  and  S_17
REMARK    7  A    between atoms: S_17  and  N_20
REMARK    8  A    between atoms: C_23  and  C_24
REMARK    9  A    between atoms: C_26  and  C_27
REMARK                            x       y       z     vdW  Elec       q    Type
REMARK                         _______ _______ _______ _____ _____    ______ ____
ROOT
ATOM      1  C   UNL     1       1.885   7.082  20.270  0.00  0.00    +0.000 A 
ATOM      2  C   UNL     1       1.865   5.825  20.890  0.00  0.00    +0.000 A 
ATOM      3  C   UNL     1       2.143   4.659  20.175  0.00  0.00    +0.000 A 
ATOM      4  C   UNL     1       2.436   4.736  18.815  0.00  0.00    +0.000 A 
ATOM      5  C   UNL     1       2.493   5.981  18.181  0.00  0.00    +0.000 A 
ATOM      6  C   UNL     1       2.193   7.147  18.904  0.00  0.00    +0.000 A 
ENDROOT
BRANCH   1   9
ATOM      7  C   UNL     1       0.345   8.638  21.458  0.00  0.00    +0.000 C 
ATOM      8  O   UNL     1      -0.650   7.922  21.507  0.00  0.00    +0.000 OA
ATOM      9  N   UNL     1       1.590   8.279  20.962  0.00  0.00    +0.000 N 
ATOM     10  H   UNL     1       2.374   8.869  21.242  0.00  0.00    +0.000 HD
BRANCH   7  11
ATOM     11  C   UNL     1       0.301  10.028  22.093  0.00  0.00    +0.000 C 
BRANCH  11  14
ATOM     12  C   UNL     1       0.344  12.145  20.849  0.00  0.00    +0.000 C 
ATOM     13  O   UNL     1      -0.799  12.419  21.204  0.00  0.00    +0.000 OA
ATOM     14  N   UNL     1       0.976  10.989  21.242  0.00  0.00    +0.000 N 
ATOM     15  H   UNL     1       1.898  10.754  20.901  0.00  0.00    +0.000 HD
BRANCH  12  20
ATOM     16  C   UNL     1       3.463  15.637  17.419  0.00  0.00    +0.000 C 
ATOM     17  C   UNL     1       2.648  14.740  18.304  0.00  0.00    +0.000 A 
ATOM     18  C   UNL     1       2.694  13.350  18.153  0.00  0.00    +0.000 A 
ATOM     19  C   UNL     1       1.937  12.522  18.988  0.00  0.00    +0.000 A 
ATOM     20  C   UNL     1       1.116  13.075  19.977  0.00  0.00    +0.000 A 
ATOM     21  C   UNL     1       1.068  14.464  20.136  0.00  0.00    +0.000 A 
ATOM     22  C   UNL     1       1.831  15.290  19.302  0.00  0.00    +0.000 A 
ENDBRANCH  12  20
ENDBRANCH  11  14
ENDBRANCH   7  11
ENDBRANCH   1   9
BRANCH   4  23
ATOM     23  S   UNL     1       2.766   3.230  17.914  0.00  0.00    +0.000 S 
ATOM     24  O   UNL     1       2.084   2.142  18.585  0.00  0.00    +0.000 OA
ATOM     25  O   UNL     1       2.523   3.510  16.513  0.00  0.00    +0.000 OA
BRANCH  23  26
ATOM     26  N   UNL     1       4.442   3.019  18.068  0.00  0.00    +0.000 N 
ATOM     27  C   UNL     1       5.221   3.910  17.296  0.00  0.00    +0.000 A 
ATOM     28  C   UNL     1       5.587   5.136  17.790  0.00  0.00    +0.000 A 
ATOM     29  C   UNL     1       6.248   5.956  16.905  0.00  0.00    +0.000 A 
ATOM     30  C   UNL     1       6.722   7.317  17.308  0.00  0.00    +0.000 C 
ATOM     31  N   UNL     1       6.482   5.586  15.628  0.00  0.00    +0.000 NA
ATOM     32  C   UNL     1       6.073   4.362  15.248  0.00  0.00    +0.000 A 
ATOM     33  C   UNL     1       6.252   3.986  13.810  0.00  0.00    +0.000 C 
ATOM     34  N   UNL     1       5.459   3.480  16.053  0.00  0.00    +0.000 NA
ATOM     35  H   UNL     1       4.685   2.050  17.874  0.00  0.00    +0.000 HD
ENDBRANCH  23  26
ENDBRANCH   4  23
TORSDOF 6
ENDMDL
MODEL 6
REMARK VINA RESULT:      -8.8      0.610      1.023
REMARK  Name = 
REMARK  9 active torsions:
REMARK  status: ('A' for Active; 'I' for Inactive)
REMARK    1  A    between atoms: C_1  and  C_2
REMARK    2  A    between atoms: C_5  and  C_6
REMARK    3  A    between atoms: N_8  and  C_9
REMARK    4  A    between atoms: C_9  and  C_10
REMARK    5  A    between atoms: N_12  and  C_13
REMARK    6  A    between atoms: C_16  and  S_17
REMARK    7  A    between atoms: S_17  and  N_20
REMARK    8  A    between atoms: C_23  and  C_24
REMARK    9  A    between atoms: C_26  and  C_27
REMARK                            x       y       z     vdW  Elec       q    Type
REMARK                         _______ _______ _______ _____ _____    ______ ____
ROOT
ATOM      1  C   UNL     1       1.886   7.448  19.918  0.00  0.00    +0.000 A 
ATOM      2  C   UNL     1       2.115   7.280  18.546  0.00  0.00    +0.000 A 
ATOM      3  C   UNL     1       2.362   6.018  18.001  0.00  0.00    +0.000 A 
ATOM      4  C   UNL     1       2.396   4.902  18.833  0.00  0.00    +0.000 A 
ATOM      5  C   UNL     1       2.139   5.039  20.201  0.00  0.00    +0.000 A 
ATOM      6  C   UNL     1       1.910   6.315  20.743  0.00  0.00    +0.000 A 
ENDROOT
BRANCH   1   9
ATOM      7  C   UNL     1       0.482   9.104  21.140  0.00  0.00    +0.000 C 
ATOM      8  O   UNL     1      -0.464   8.377  21.427  0.00  0.00    +0.000 OA
ATOM      9  N   UNL     1       1.651   8.714  20.502  0.00  0.00    +0.000 N 
ATOM     10  H   UNL     1       2.443   9.351  20.586  0.00  0.00    +0.000 HD
BRANCH   7  11
ATOM     11  C   UNL     1       0.478  10.560  21.606  0.00  0.00    +0.000 C 
BRANCH  11  14
ATOM     12  C   UNL     1      -1.421  12.111  21.747  0.00  0.00    +0.000 C 
ATOM     13  O   UNL     1      -0.876  12.904  20.984  0.00  0.00    +0.000 OA
ATOM     14  N   UNL     1      -0.834  10.922  22.108  0.00  0.00    +0.000 N 
ATOM     15  H   UNL     1      -1.273  10.302  22.775  0.00  0.00    +0.000 HD
BRANCH  12  20
ATOM     16  C   UNL     1      -6.644  13.118  24.068  0.00  0.00    +0.000 C 
ATOM     17  C   UNL     1      -5.294  12.868  23.463  0.00  0.00    +0.000 A 
ATOM     18  C   UNL     1      -4.224  12.429  24.252  0.00  0.00    +0.000 A 
ATOM     19  C   UNL     1      -2.973  12.190  23.678  0.00  0.00    +0.000 A 
ATOM     20  C   UNL     1      -2.771  12.397  22.308  0.00  0.00    +0.000 A 
ATOM     21  C   UNL     1      -3.836  12.832  21.513  0.00  0.00    +0.000 A 
ATOM     22  C   UNL     1      -5.090  13.066  22.090  0.00  0.00    +0.000 A 
ENDBRANCH  12  20
ENDBRANCH  11  14
ENDBRANCH   7  11
ENDBRANCH   1   9
BRANCH   4  23
ATOM     23  S   UNL     1       2.736   3.300  18.120  0.00  0.00    +0.000 S 
ATOM     24  O   UNL     1       2.076   2.295  18.930  0.00  0.00    +0.000 OA
ATOM     25  O   UNL     1       2.473   3.402  16.699  0.00  0.00    +0.000 OA
BRANCH  23  26
ATOM     26  N   UNL     1       4.416   3.129  18.278  0.00  0.00    +0.000 N 
ATOM     27  C   UNL     1       5.175   4.013  17.479  0.00  0.00    +0.000 A 
ATOM     28  C   UNL     1       5.515   5.261  17.936  0.00  0.00    +0.000 A 
ATOM     29  C   UNL     1       6.158   6.068  17.026  0.00  0.00    +0.000 A 
ATOM     30  C   UNL     1       6.602   7.451  17.387  0.00  0.00    +0.000 C 
ATOM     31  N   UNL     1       6.399   5.666  15.759  0.00  0.00    +0.000 NA
ATOM     32  C   UNL     1       6.015   4.422  15.417  0.00  0.00    +0.000 A 
ATOM     33  C   UNL     1       6.202   4.007  13.991  0.00  0.00    +0.000 C 
ATOM     34  N   UNL     1       5.422   3.551  16.249  0.00  0.00    +0.000 NA
ATOM     35  H   UNL     1       4.679   2.160  18.113  0.00  0.00    +0.000 HD
ENDBRANCH  23  26
ENDBRANCH   4  23
TORSDOF 6
ENDMDL
MODEL 7
REMARK VINA RESULT:      -8.8      2.675     11.561
REMARK  Name = 
REMARK  9 active torsions:
REMARK  status: ('A' for Active; 'I' for Inactive)
REMARK    1  A    between atoms: C_1  and  C_2
REMARK    2  A    between atoms: C_5  and  C_6
REMARK    3  A    between atoms: N_8  and  C_9
REMARK    4  A    between atoms: C_9  and  C_10
REMARK    5  A    between atoms: N_12  and  C_13
REMARK    6  A    between atoms: C_16  and  S_17
REMARK    7  A    between atoms: S_17  and  N_20
REMARK    8  A    between atoms: C_23  and  C_24
REMARK    9  A    between atoms: C_26  and  C_27
REMARK                            x       y       z     vdW  Elec       q    Type
REMARK                         _______ _______ _______ _____ _____    ______ ____
ROOT
ATOM      1  C   UNL     1       1.986   7.594  20.180  0.00  0.00    +0.000 A 
ATOM      2  C   UNL     1       1.680   8.497  19.153  0.00  0.00    +0.000 A 
ATOM      3  C   UNL     1       0.995   9.686  19.413  0.00  0.00    +0.000 A 
ATOM      4  C   UNL     1       0.596   9.982  20.714  0.00  0.00    +0.000 A 
ATOM      5  C   UNL     1       0.918   9.113  21.761  0.00  0.00    +0.000 A 
ATOM      6  C   UNL     1       1.590   7.910  21.487  0.00  0.00    +0.000 A 
ENDROOT
BRANCH   1   9
ATOM      7  C   UNL     1       2.146   5.108  20.188  0.00  0.00    +0.000 C 
ATOM      8  O   UNL     1       0.988   4.843  20.496  0.00  0.00    +0.000 OA
ATOM      9  N   UNL     1       2.661   6.374  19.946  0.00  0.00    +0.000 N 
ATOM     10  H   UNL     1       3.543   6.411  19.435  0.00  0.00    +0.000 HD
BRANCH   7  11
ATOM     11  C   UNL     1       3.130   3.969  19.917  0.00  0.00    +0.000 C 
BRANCH  11  14
ATOM     12  C   UNL     1       5.107   4.181  18.476  0.00  0.00    +0.000 C 
ATOM     13  O   UNL     1       5.864   4.073  19.437  0.00  0.00    +0.000 OA
ATOM     14  N   UNL     1       3.740   4.134  18.612  0.00  0.00    +0.000 N 
ATOM     15  H   UNL     1       3.129   4.274  17.819  0.00  0.00    +0.000 HD
BRANCH  12  20
ATOM     16  C   UNL     1       7.330   4.941  13.169  0.00  0.00    +0.000 C 
ATOM     17  C   UNL     1       6.751   4.735  14.538  0.00  0.00    +0.000 A 
ATOM     18  C   UNL     1       7.543   4.885  15.682  0.00  0.00    +0.000 A 
ATOM     19  C   UNL     1       6.993   4.699  16.953  0.00  0.00    +0.000 A 
ATOM     20  C   UNL     1       5.645   4.350  17.097  0.00  0.00    +0.000 A 
ATOM     21  C   UNL     1       4.846   4.203  15.958  0.00  0.00    +0.000 A 
ATOM     22  C   UNL     1       5.400   4.394  14.687  0.00  0.00    +0.000 A 
ENDBRANCH  12  20
ENDBRANCH  11  14
ENDBRANCH   7  11
ENDBRANCH   1   9
BRANCH   4  23
ATOM     23  S   UNL     1      -0.298  11.497  21.022  0.00  0.00    +0.000 S 
ATOM     24  O   UNL     1       0.614  12.608  20.831  0.00  0.00    +0.000 OA
ATOM     25  O   UNL     1      -1.540  11.418  20.280  0.00  0.00    +0.000 OA
BRANCH  23  26
ATOM     26  N   UNL     1      -0.721  11.398  22.661  0.00  0.00    +0.000 N 
ATOM     27  C   UNL     1      -1.563  12.438  23.116  0.00  0.00    +0.000 A 
ATOM     28  C   UNL     1      -2.927  12.334  23.020  0.00  0.00    +0.000 A 
ATOM     29  C   UNL     1      -3.632  13.455  23.392  0.00  0.00    +0.000 A 
ATOM     30  C   UNL     1      -5.128  13.483  23.354  0.00  0.00    +0.000 C 
ATOM     31  N   UNL     1      -3.014  14.589  23.787  0.00  0.00    +0.000 NA
ATOM     32  C   UNL     1      -1.670  14.581  23.838  0.00  0.00    +0.000 A 
ATOM     33  C   UNL     1      -0.981  15.863  24.190  0.00  0.00    +0.000 C 
ATOM     34  N   UNL     1      -0.901  13.522  23.534  0.00  0.00    +0.000 NA
ATOM     35  H   UNL     1       0.120  11.326  23.229  0.00  0.00    +0.000 HD
ENDBRANCH  23  26
ENDBRANCH   4  23
TORSDOF 6
ENDMDL
MODEL 8
REMARK VINA RESULT:      -8.7      0.701      1.095
REMARK  Name = 
REMARK  9 active torsions:
REMARK  status: ('A' for Active; 'I' for Inactive)
REMARK    1  A    between atoms: C_1  and  C_2
REMARK    2  A    between atoms: C_5  and  C_6
REMARK    3  A    between atoms: N_8  and  C_9
REMARK    4  A    between atoms: C_9  and  C_10
REMARK    5  A    between atoms: N_12  and  C_13
REMARK    6  A    between atoms: C_16  and  S_17
REMARK    7  A    between atoms: S_17  and  N_20
REMARK    8  A    between atoms: C_23  and  C_24
REMARK    9  A    between atoms: C_26  and  C_27
REMARK                            x       y       z     vdW  Elec       q    Type
REMARK                         _______ _______ _______ _____ _____    ______ ____
ROOT
ATOM      1  C   UNL     1       2.039   6.686  20.526  0.00  0.00    +0.000 A 
ATOM      2  C   UNL     1       2.426   7.021  19.222  0.00  0.00    +0.000 A 
ATOM      3  C   UNL     1       2.759   6.037  18.288  0.00  0.00    +0.000 A 
ATOM      4  C   UNL     1       2.718   4.695  18.655  0.00  0.00    +0.000 A 
ATOM      5  C   UNL     1       2.304   4.333  19.941  0.00  0.00    +0.000 A 
ATOM      6  C   UNL     1       1.990   5.330  20.880  0.00  0.00    +0.000 A 
ENDROOT
BRANCH   1   9
ATOM      7  C   UNL     1       0.834   8.715  21.321  0.00  0.00    +0.000 C 
ATOM      8  O   UNL     1       0.092   8.887  20.359  0.00  0.00    +0.000 OA
ATOM      9  N   UNL     1       1.715   7.658  21.499  0.00  0.00    +0.000 N 
ATOM     10  H   UNL     1       2.045   7.503  22.452  0.00  0.00    +0.000 HD
BRANCH   7  11
ATOM     11  C   UNL     1       0.737   9.659  22.520  0.00  0.00    +0.000 C 
BRANCH  11  14
ATOM     12  C   UNL     1      -0.670  11.637  22.148  0.00  0.00    +0.000 C 
ATOM     13  O   UNL     1       0.295  12.297  21.771  0.00  0.00    +0.000 OA
ATOM     14  N   UNL     1      -0.553  10.323  22.532  0.00  0.00    +0.000 N 
ATOM     15  H   UNL     1      -1.347   9.807  22.888  0.00  0.00    +0.000 HD
BRANCH  12  20
ATOM     16  C   UNL     1      -6.024  13.858  22.441  0.00  0.00    +0.000 C 
ATOM     17  C   UNL     1      -4.636  13.294  22.362  0.00  0.00    +0.000 A 
ATOM     18  C   UNL     1      -4.059  12.649  23.461  0.00  0.00    +0.000 A 
ATOM     19  C   UNL     1      -2.769  12.118  23.375  0.00  0.00    +0.000 A 
ATOM     20  C   UNL     1      -2.033  12.235  22.190  0.00  0.00    +0.000 A 
ATOM     21  C   UNL     1      -2.605  12.875  21.085  0.00  0.00    +0.000 A 
ATOM     22  C   UNL     1      -3.899  13.401  21.173  0.00  0.00    +0.000 A 
ENDBRANCH  12  20
ENDBRANCH  11  14
ENDBRANCH   7  11
ENDBRANCH   1   9
BRANCH   4  23
ATOM     23  S   UNL     1       3.169   3.453  17.453  0.00  0.00    +0.000 S 
ATOM     24  O   UNL     1       2.418   2.248  17.744  0.00  0.00    +0.000 OA
ATOM     25  O   UNL     1       3.096   4.078  16.148  0.00  0.00    +0.000 OA
BRANCH  23  26
ATOM     26  N   UNL     1       4.815   3.172  17.750  0.00  0.00    +0.000 N 
ATOM     27  C   UNL     1       5.691   4.085  17.121  0.00  0.00    +0.000 A 
ATOM     28  C   UNL     1       6.042   5.261  17.734  0.00  0.00    +0.000 A 
ATOM     29  C   UNL     1       6.810   6.115  16.976  0.00  0.00    +0.000 A 
ATOM     30  C   UNL     1       7.281   7.428  17.517  0.00  0.00    +0.000 C 
ATOM     31  N   UNL     1       7.156   5.825  15.703  0.00  0.00    +0.000 NA
ATOM     32  C   UNL     1       6.750   4.645  15.200  0.00  0.00    +0.000 A 
ATOM     33  C   UNL     1       7.058   4.360  13.763  0.00  0.00    +0.000 C 
ATOM     34  N   UNL     1       6.036   3.732  15.879  0.00  0.00    +0.000 NA
ATOM     35  H   UNL     1       5.047   2.211  17.513  0.00  0.00    +0.000 HD
ENDBRANCH  23  26
ENDBRANCH   4  23
TORSDOF 6
ENDMDL
MODEL 9
REMARK VINA RESULT:      -8.7      2.763     11.507
REMARK  Name = 
REMARK  9 active torsions:
REMARK  status: ('A' for Active; 'I' for Inactive)
REMARK    1  A    between atoms: C_1  and  C_2
REMARK    2  A    between atoms: C_5  and  C_6
REMARK    3  A    between atoms: N_8  and  C_9
REMARK    4  A    between atoms: C_9  and  C_10
REMARK    5  A    between atoms: N_12  and  C_13
REMARK    6  A    between atoms: C_16  and  S_17
REMARK    7  A    between atoms: S_17  and  N_20
REMARK    8  A    between atoms: C_23  and  C_24
REMARK    9  A    between atoms: C_26  and  C_27
REMARK                            x       y       z     vdW  Elec       q    Type
REMARK                         _______ _______ _______ _____ _____    ______ ____
ROOT
ATOM      1  C   UNL     1       1.922   7.788  19.919  0.00  0.00    +0.000 A 
ATOM      2  C   UNL     1       1.417   8.222  21.151  0.00  0.00    +0.000 A 
ATOM      3  C   UNL     1       0.735   9.435  21.269  0.00  0.00    +0.000 A 
ATOM      4  C   UNL     1       0.559  10.240  20.146  0.00  0.00    +0.000 A 
ATOM      5  C   UNL     1       1.025   9.814  18.898  0.00  0.00    +0.000 A 
ATOM      6  C   UNL     1       1.727   8.601  18.794  0.00  0.00    +0.000 A 
ENDROOT
BRANCH   1   9
ATOM      7  C   UNL     1       2.192   5.326  20.184  0.00  0.00    +0.000 C 
ATOM      8  O   UNL     1       1.071   5.055  20.602  0.00  0.00    +0.000 OA
ATOM      9  N   UNL     1       2.632   6.575  19.770  0.00  0.00    +0.000 N 
ATOM     10  H   UNL     1       3.475   6.587  19.196  0.00  0.00    +0.000 HD
BRANCH   7  11
ATOM     11  C   UNL     1       3.205   4.201  19.968  0.00  0.00    +0.000 C 
BRANCH  11  14
ATOM     12  C   UNL     1       5.192   4.303  18.529  0.00  0.00    +0.000 C 
ATOM     13  O   UNL     1       5.941   4.159  19.492  0.00  0.00    +0.000 OA
ATOM     14  N   UNL     1       3.824   4.329  18.663  0.00  0.00    +0.000 N 
ATOM     15  H   UNL     1       3.222   4.498  17.869  0.00  0.00    +0.000 HD
BRANCH  12  20
ATOM     16  C   UNL     1       7.203   4.717  13.100  0.00  0.00    +0.000 C 
ATOM     17  C   UNL     1       6.686   4.620  14.506  0.00  0.00    +0.000 A 
ATOM     18  C   UNL     1       5.374   4.207  14.762  0.00  0.00    +0.000 A 
ATOM     19  C   UNL     1       4.905   4.112  16.075  0.00  0.00    +0.000 A 
ATOM     20  C   UNL     1       5.739   4.438  17.150  0.00  0.00    +0.000 A 
ATOM     21  C   UNL     1       7.054   4.847  16.902  0.00  0.00    +0.000 A 
ATOM     22  C   UNL     1       7.522   4.937  15.586  0.00  0.00    +0.000 A 
ENDBRANCH  12  20
ENDBRANCH  11  14
ENDBRANCH   7  11
ENDBRANCH   1   9
BRANCH   4  23
ATOM     23  S   UNL     1      -0.297  11.798  20.322  0.00  0.00    +0.000 S 
ATOM     24  O   UNL     1       0.332  12.762  19.440  0.00  0.00    +0.000 OA
ATOM     25  O   UNL     1      -1.715  11.518  20.228  0.00  0.00    +0.000 OA
BRANCH  23  26
ATOM     26  N   UNL     1      -0.010  12.244  21.933  0.00  0.00    +0.000 N 
ATOM     27  C   UNL     1      -1.085  12.914  22.559  0.00  0.00    +0.000 A 
ATOM     28  C   UNL     1      -2.077  12.214  23.196  0.00  0.00    +0.000 A 
ATOM     29  C   UNL     1      -3.124  12.972  23.668  0.00  0.00    +0.000 A 
ATOM     30  C   UNL     1      -4.271  12.347  24.398  0.00  0.00    +0.000 C 
ATOM     31  N   UNL     1      -3.182  14.307  23.478  0.00  0.00    +0.000 NA
ATOM     32  C   UNL     1      -2.155  14.890  22.833  0.00  0.00    +0.000 A 
ATOM     33  C   UNL     1      -2.259  16.355  22.544  0.00  0.00    +0.000 C 
ATOM     34  N   UNL     1      -1.074  14.239  22.375  0.00  0.00    +0.000 NA
ATOM     35  H   UNL     1       0.850  12.785  21.991  0.00  0.00    +0.000 HD
ENDBRANCH  23  26
ENDBRANCH   4  23
TORSDOF 6
ENDMDL
