MODEL 1
REMARK VINA RESULT:      -8.2      0.000      0.000
REMARK  Name = 
REMARK  9 active torsions:
REMARK  status: ('A' for Active; 'I' for Inactive)
REMARK    1  A    between atoms: C_1  and  C_2
REMARK    2  A    between atoms: C_2  and  C_3
REMARK    3  A    between atoms: C_2  and  O_4
REMARK    4  A    between atoms: C_2  and  C_5
REMARK    5  A    between atoms: C_6  and  C_7
REMARK    6  A    between atoms: C_15  and  C_16
REMARK    7  A    between atoms: C_19  and  C_20
REMARK    8  A    between atoms: C_20  and  O_21
REMARK    9  A    between atoms: O_21  and  C_22
REMARK                            x       y       z     vdW  Elec       q    Type
REMARK                         _______ _______ _______ _____ _____    ______ ____
ROOT
ATOM      1  C   UNL     1       1.413   6.253  20.607  0.00  0.00    +0.000 A 
ATOM      2  C   UNL     1       0.563   5.164  20.450  0.00  0.00    +0.000 A 
ATOM      3  C   UNL     1       1.043   3.998  19.853  0.00  0.00    +0.000 A 
ATOM      4  C   UNL     1       2.362   3.909  19.377  0.00  0.00    +0.000 A 
ATOM      5  C   UNL     1       3.225   5.006  19.527  0.00  0.00    +0.000 A 
ATOM      6  C   UNL     1       2.732   6.170  20.155  0.00  0.00    +0.000 A 
ATOM      7  C   UNL     1       4.610   5.046  19.049  0.00  0.00    +0.000 A 
ATOM      8  N   UNL     1       5.607   5.716  19.600  0.00  0.00    +0.000 NA
ATOM      9  C   UNL     1       6.718   5.485  18.806  0.00  0.00    +0.000 A 
ATOM     10  C   UNL     1       6.375   4.733  17.701  0.00  0.00    +0.000 A 
ATOM     11  N   UNL     1       5.035   4.449  17.879  0.00  0.00    +0.000 N 
ATOM     12  C   UNL     1       4.117   3.673  17.060  0.00  0.00    +0.000 C 
ATOM     13  C   UNL     1       3.618   2.465  17.842  0.00  0.00    +0.000 C 
ATOM     14  O   UNL     1       2.629   2.682  18.849  0.00  0.00    +0.000 OA
ENDROOT
BRANCH   9  15
ATOM     15  C   UNL     1       8.047   6.026  19.120  0.00  0.00    +0.000 C 
ATOM     16  N   UNL     1       8.760   5.267  20.001  0.00  0.00    +0.000 N 
ATOM     17  O   UNL     1       8.494   7.067  18.667  0.00  0.00    +0.000 OA
ATOM     18  H   UNL     1       8.363   4.416  20.369  0.00  0.00    +0.000 HD
ATOM     19  H   UNL     1       9.680   5.577  20.268  0.00  0.00    +0.000 HD
ENDBRANCH   9  15
BRANCH   1  21
ATOM     20  C   UNL     1       0.505   8.494  21.883  0.00  0.00    +0.000 C 
ATOM     21  C   UNL     1       0.947   7.443  21.250  0.00  0.00    +0.000 C 
BRANCH  20  23
ATOM     22  C   UNL     1      -1.483   9.525  22.969  0.00  0.00    +0.000 C 
ATOM     23  C   UNL     1      -0.008   9.721  22.620  0.00  0.00    +0.000 C 
ATOM     24  C   UNL     1       0.185  10.960  21.747  0.00  0.00    +0.000 C 
BRANCH  23  25
ATOM     25  O   UNL     1       0.741   9.872  23.819  0.00  0.00    +0.000 OA
ATOM     26  H   UNL     1       0.233  10.452  24.410  0.00  0.00    +0.000 HD
ENDBRANCH  23  25
ENDBRANCH  20  23
ENDBRANCH   1  21
BRANCH  10  27
ATOM     27  C   UNL     1       7.262   4.277  16.589  0.00  0.00    +0.000 C 
BRANCH  27  28
ATOM     28  O   UNL     1       7.429   5.364  15.665  0.00  0.00    +0.000 OA
BRANCH  28  29
ATOM     29  C   UNL     1       7.213   4.934  14.365  0.00  0.00    +0.000 A 
ATOM     30  C   UNL     1       6.270   3.942  14.126  0.00  0.00    +0.000 A 
ATOM     31  C   UNL     1       6.095   3.498  12.807  0.00  0.00    +0.000 A 
ATOM     32  C   UNL     1       6.854   4.065  11.790  0.00  0.00    +0.000 A 
ATOM     33  C   UNL     1       7.762   5.052  12.126  0.00  0.00    +0.000 A 
ATOM     34  N   UNL     1       7.970   5.481  13.392  0.00  0.00    +0.000 NA
ENDBRANCH  28  29
ENDBRANCH  27  28
ENDBRANCH  10  27
TORSDOF 7
ENDMDL
MODEL 2
REMARK VINA RESULT:      -8.0      2.667      4.674
REMARK  Name = 
REMARK  9 active torsions:
REMARK  status: ('A' for Active; 'I' for Inactive)
REMARK    1  A    between atoms: C_1  and  C_2
REMARK    2  A    between atoms: C_2  and  C_3
REMARK    3  A    between atoms: C_2  and  O_4
REMARK    4  A    between atoms: C_2  and  C_5
REMARK    5  A    between atoms: C_6  and  C_7
REMARK    6  A    between atoms: C_15  and  C_16
REMARK    7  A    between atoms: C_19  and  C_20
REMARK    8  A    between atoms: C_20  and  O_21
REMARK    9  A    between atoms: O_21  and  C_22
REMARK                            x       y       z     vdW  Elec       q    Type
REMARK                         _______ _______ _______ _____ _____    ______ ____
ROOT
ATOM      1  C   UNL     1       0.815  10.261  19.906  0.00  0.00    +0.000 A 
ATOM      2  C   UNL     1       1.201  10.849  18.707  0.00  0.00    +0.000 A 
ATOM      3  C   UNL     1       1.910  10.098  17.769  0.00  0.00    +0.000 A 
ATOM      4  C   UNL     1       2.271   8.764  18.023  0.00  0.00    +0.000 A 
ATOM      5  C   UNL     1       1.891   8.164  19.234  0.00  0.00    +0.000 A 
ATOM      6  C   UNL     1       1.152   8.930  20.161  0.00  0.00    +0.000 A 
ATOM      7  C   UNL     1       2.230   6.794  19.626  0.00  0.00    +0.000 A 
ATOM      8  N   UNL     1       1.501   5.996  20.388  0.00  0.00    +0.000 NA
ATOM      9  C   UNL     1       2.215   4.817  20.513  0.00  0.00    +0.000 A 
ATOM     10  C   UNL     1       3.442   4.925  19.889  0.00  0.00    +0.000 A 
ATOM     11  N   UNL     1       3.428   6.182  19.318  0.00  0.00    +0.000 N 
ATOM     12  C   UNL     1       4.428   6.863  18.511  0.00  0.00    +0.000 C 
ATOM     13  C   UNL     1       3.873   7.140  17.120  0.00  0.00    +0.000 C 
ATOM     14  O   UNL     1       2.940   8.211  16.973  0.00  0.00    +0.000 OA
ENDROOT
BRANCH   9  15
ATOM     15  C   UNL     1       1.707   3.654  21.254  0.00  0.00    +0.000 C 
ATOM     16  N   UNL     1       0.643   3.041  20.662  0.00  0.00    +0.000 N 
ATOM     17  O   UNL     1       2.162   3.259  22.315  0.00  0.00    +0.000 OA
ATOM     18  H   UNL     1       0.278   3.394  19.789  0.00  0.00    +0.000 HD
ATOM     19  H   UNL     1       0.237   2.238  21.114  0.00  0.00    +0.000 HD
ENDBRANCH   9  15
BRANCH   1  21
ATOM     20  C   UNL     1      -0.643  11.730  21.692  0.00  0.00    +0.000 C 
ATOM     21  C   UNL     1       0.056  11.007  20.861  0.00  0.00    +0.000 C 
BRANCH  20  23
ATOM     22  C   UNL     1      -2.376  11.663  23.478  0.00  0.00    +0.000 C 
ATOM     23  C   UNL     1      -1.459  12.572  22.660  0.00  0.00    +0.000 C 
ATOM     24  C   UNL     1      -2.270  13.606  21.881  0.00  0.00    +0.000 C 
BRANCH  23  25
ATOM     25  O   UNL     1      -0.563  13.245  23.537  0.00  0.00    +0.000 OA
ATOM     26  H   UNL     1      -0.743  14.196  23.464  0.00  0.00    +0.000 HD
ENDBRANCH  23  25
ENDBRANCH  20  23
ENDBRANCH   1  21
BRANCH  10  27
ATOM     27  C   UNL     1       4.521   3.896  19.802  0.00  0.00    +0.000 C 
BRANCH  27  28
ATOM     28  O   UNL     1       4.402   3.217  18.541  0.00  0.00    +0.000 OA
BRANCH  28  29
ATOM     29  C   UNL     1       5.286   3.750  17.617  0.00  0.00    +0.000 A 
ATOM     30  C   UNL     1       4.923   3.796  16.277  0.00  0.00    +0.000 A 
ATOM     31  C   UNL     1       5.849   4.308  15.356  0.00  0.00    +0.000 A 
ATOM     32  C   UNL     1       7.084   4.757  15.809  0.00  0.00    +0.000 A 
ATOM     33  C   UNL     1       7.351   4.677  17.163  0.00  0.00    +0.000 A 
ATOM     34  N   UNL     1       6.487   4.165  18.069  0.00  0.00    +0.000 NA
ENDBRANCH  28  29
ENDBRANCH  27  28
ENDBRANCH  10  27
TORSDOF 7
ENDMDL
MODEL 3
REMARK VINA RESULT:      -7.9      1.117      1.225
REMARK  Name = 
REMARK  9 active torsions:
REMARK  status: ('A' for Active; 'I' for Inactive)
REMARK    1  A    between atoms: C_1  and  C_2
REMARK    2  A    between atoms: C_2  and  C_3
REMARK    3  A    between atoms: C_2  and  O_4
REMARK    4  A    between atoms: C_2  and  C_5
REMARK    5  A    between atoms: C_6  and  C_7
REMARK    6  A    between atoms: C_15  and  C_16
REMARK    7  A    between atoms: C_19  and  C_20
REMARK    8  A    between atoms: C_20  and  O_21
REMARK    9  A    between atoms: O_21  and  C_22
REMARK                            x       y       z     vdW  Elec       q    Type
REMARK                         _______ _______ _______ _____ _____    ______ ____
ROOT
ATOM      1  C   UNL     1       1.463   6.672  20.618  0.00  0.00    +0.000 A 
ATOM      2  C   UNL     1       0.817   5.510  21.026  0.00  0.00    +0.000 A 
ATOM      3  C   UNL     1       1.387   4.269  20.741  0.00  0.00    +0.000 A 
ATOM      4  C   UNL     1       2.588   4.165  20.021  0.00  0.00    +0.000 A 
ATOM      5  C   UNL     1       3.244   5.332  19.599  0.00  0.00    +0.000 A 
ATOM      6  C   UNL     1       2.668   6.580  19.917  0.00  0.00    +0.000 A 
ATOM      7  C   UNL     1       4.485   5.354  18.820  0.00  0.00    +0.000 A 
ATOM      8  N   UNL     1       5.425   6.283  18.872  0.00  0.00    +0.000 NA
ATOM      9  C   UNL     1       6.393   5.910  17.955  0.00  0.00    +0.000 A 
ATOM     10  C   UNL     1       5.998   4.781  17.266  0.00  0.00    +0.000 A 
ATOM     11  N   UNL     1       4.791   4.432  17.838  0.00  0.00    +0.000 N 
ATOM     12  C   UNL     1       3.899   3.318  17.556  0.00  0.00    +0.000 C 
ATOM     13  C   UNL     1       3.786   2.419  18.780  0.00  0.00    +0.000 C 
ATOM     14  O   UNL     1       2.978   2.868  19.868  0.00  0.00    +0.000 OA
ENDROOT
BRANCH   9  15
ATOM     15  C   UNL     1       7.633   6.672  17.754  0.00  0.00    +0.000 C 
ATOM     16  N   UNL     1       8.374   6.835  18.887  0.00  0.00    +0.000 N 
ATOM     17  O   UNL     1       7.987   7.146  16.686  0.00  0.00    +0.000 OA
ATOM     18  H   UNL     1       8.053   6.442  19.760  0.00  0.00    +0.000 HD
ATOM     19  H   UNL     1       9.236   7.351  18.828  0.00  0.00    +0.000 HD
ENDBRANCH   9  15
BRANCH   1  21
ATOM     20  C   UNL     1       0.461   9.141  21.226  0.00  0.00    +0.000 C 
ATOM     21  C   UNL     1       0.910   7.952  20.935  0.00  0.00    +0.000 C 
BRANCH  20  23
ATOM     22  C   UNL     1      -0.811  10.478  22.897  0.00  0.00    +0.000 C 
ATOM     23  C   UNL     1      -0.063  10.527  21.565  0.00  0.00    +0.000 C 
ATOM     24  C   UNL     1      -0.978  11.016  20.443  0.00  0.00    +0.000 C 
BRANCH  23  25
ATOM     25  O   UNL     1       1.045  11.412  21.683  0.00  0.00    +0.000 OA
ATOM     26  H   UNL     1       0.973  12.066  20.969  0.00  0.00    +0.000 HD
ENDBRANCH  23  25
ENDBRANCH  20  23
ENDBRANCH   1  21
BRANCH  10  27
ATOM     27  C   UNL     1       6.735   4.063  16.183  0.00  0.00    +0.000 C 
BRANCH  27  28
ATOM     28  O   UNL     1       5.830   3.835  15.090  0.00  0.00    +0.000 OA
BRANCH  28  29
ATOM     29  C   UNL     1       6.430   4.169  13.886  0.00  0.00    +0.000 A 
ATOM     30  C   UNL     1       6.144   3.418  12.753  0.00  0.00    +0.000 A 
ATOM     31  C   UNL     1       6.791   3.754  11.555  0.00  0.00    +0.000 A 
ATOM     32  C   UNL     1       7.681   4.822  11.536  0.00  0.00    +0.000 A 
ATOM     33  C   UNL     1       7.896   5.513  12.713  0.00  0.00    +0.000 A 
ATOM     34  N   UNL     1       7.305   5.195  13.888  0.00  0.00    +0.000 NA
ENDBRANCH  28  29
ENDBRANCH  27  28
ENDBRANCH  10  27
TORSDOF 7
ENDMDL
MODEL 4
REMARK VINA RESULT:      -7.6      1.292      1.497
REMARK  Name = 
REMARK  9 active torsions:
REMARK  status: ('A' for Active; 'I' for Inactive)
REMARK    1  A    between atoms: C_1  and  C_2
REMARK    2  A    between atoms: C_2  and  C_3
REMARK    3  A    between atoms: C_2  and  O_4
REMARK    4  A    between atoms: C_2  and  C_5
REMARK    5  A    between atoms: C_6  and  C_7
REMARK    6  A    between atoms: C_15  and  C_16
REMARK    7  A    between atoms: C_19  and  C_20
REMARK    8  A    between atoms: C_20  and  O_21
REMARK    9  A    between atoms: O_21  and  C_22
REMARK                            x       y       z     vdW  Elec       q    Type
REMARK                         _______ _______ _______ _____ _____    ______ ____
ROOT
ATOM      1  C   UNL     1       1.440   6.295  20.468  0.00  0.00    +0.000 A 
ATOM      2  C   UNL     1       0.801   5.091  20.741  0.00  0.00    +0.000 A 
ATOM      3  C   UNL     1       1.370   3.895  20.305  0.00  0.00    +0.000 A 
ATOM      4  C   UNL     1       2.564   3.881  19.565  0.00  0.00    +0.000 A 
ATOM      5  C   UNL     1       3.213   5.092  19.278  0.00  0.00    +0.000 A 
ATOM      6  C   UNL     1       2.637   6.292  19.749  0.00  0.00    +0.000 A 
ATOM      7  C   UNL     1       4.446   5.211  18.494  0.00  0.00    +0.000 A 
ATOM      8  N   UNL     1       5.383   6.130  18.647  0.00  0.00    +0.000 NA
ATOM      9  C   UNL     1       6.342   5.873  17.682  0.00  0.00    +0.000 A 
ATOM     10  C   UNL     1       5.943   4.832  16.868  0.00  0.00    +0.000 A 
ATOM     11  N   UNL     1       4.743   4.413  17.407  0.00  0.00    +0.000 N 
ATOM     12  C   UNL     1       3.850   3.338  17.004  0.00  0.00    +0.000 C 
ATOM     13  C   UNL     1       3.753   2.299  18.114  0.00  0.00    +0.000 C 
ATOM     14  O   UNL     1       2.955   2.613  19.256  0.00  0.00    +0.000 OA
ENDROOT
BRANCH   9  15
ATOM     15  C   UNL     1       7.578   6.658  17.560  0.00  0.00    +0.000 C 
ATOM     16  N   UNL     1       8.246   6.828  18.736  0.00  0.00    +0.000 N 
ATOM     17  O   UNL     1       7.988   7.143  16.518  0.00  0.00    +0.000 OA
ATOM     18  H   UNL     1       7.880   6.425  19.587  0.00  0.00    +0.000 HD
ATOM     19  H   UNL     1       9.101   7.359  18.732  0.00  0.00    +0.000 HD
ENDBRANCH   9  15
BRANCH   1  21
ATOM     20  C   UNL     1       0.439   8.671  21.376  0.00  0.00    +0.000 C 
ATOM     21  C   UNL     1       0.887   7.527  20.940  0.00  0.00    +0.000 C 
BRANCH  20  23
ATOM     22  C   UNL     1      -0.709   9.816  23.264  0.00  0.00    +0.000 C 
ATOM     23  C   UNL     1      -0.085  10.005  21.883  0.00  0.00    +0.000 C 
ATOM     24  C   UNL     1      -1.108  10.562  20.893  0.00  0.00    +0.000 C 
BRANCH  23  25
ATOM     25  O   UNL     1       1.008  10.910  21.983  0.00  0.00    +0.000 OA
ATOM     26  H   UNL     1       1.506  10.679  22.783  0.00  0.00    +0.000 HD
ENDBRANCH  23  25
ENDBRANCH  20  23
ENDBRANCH   1  21
BRANCH  10  27
ATOM     27  C   UNL     1       6.669   4.250  15.700  0.00  0.00    +0.000 C 
BRANCH  27  28
ATOM     28  O   UNL     1       6.334   5.012  14.529  0.00  0.00    +0.000 OA
BRANCH  28  29
ATOM     29  C   UNL     1       6.089   4.170  13.455  0.00  0.00    +0.000 A 
ATOM     30  C   UNL     1       7.159   3.692  12.709  0.00  0.00    +0.000 A 
ATOM     31  C   UNL     1       6.883   2.870  11.606  0.00  0.00    +0.000 A 
ATOM     32  C   UNL     1       5.563   2.556  11.303  0.00  0.00    +0.000 A 
ATOM     33  C   UNL     1       4.567   3.074  12.109  0.00  0.00    +0.000 A 
ATOM     34  N   UNL     1       4.803   3.889  13.163  0.00  0.00    +0.000 NA
ENDBRANCH  28  29
ENDBRANCH  27  28
ENDBRANCH  10  27
TORSDOF 7
ENDMDL
MODEL 5
REMARK VINA RESULT:      -7.6      1.163      1.339
REMARK  Name = 
REMARK  9 active torsions:
REMARK  status: ('A' for Active; 'I' for Inactive)
REMARK    1  A    between atoms: C_1  and  C_2
REMARK    2  A    between atoms: C_2  and  C_3
REMARK    3  A    between atoms: C_2  and  O_4
REMARK    4  A    between atoms: C_2  and  C_5
REMARK    5  A    between atoms: C_6  and  C_7
REMARK    6  A    between atoms: C_15  and  C_16
REMARK    7  A    between atoms: C_19  and  C_20
REMARK    8  A    between atoms: C_20  and  O_21
REMARK    9  A    between atoms: O_21  and  C_22
REMARK                            x       y       z     vdW  Elec       q    Type
REMARK                         _______ _______ _______ _____ _____    ______ ____
ROOT
ATOM      1  C   UNL     1       1.388   6.649  20.532  0.00  0.00    +0.000 A 
ATOM      2  C   UNL     1       0.711   5.464  20.796  0.00  0.00    +0.000 A 
ATOM      3  C   UNL     1       1.301   4.245  20.462  0.00  0.00    +0.000 A 
ATOM      4  C   UNL     1       2.556   4.188  19.835  0.00  0.00    +0.000 A 
ATOM      5  C   UNL     1       3.245   5.380  19.559  0.00  0.00    +0.000 A 
ATOM      6  C   UNL     1       2.645   6.604  19.925  0.00  0.00    +0.000 A 
ATOM      7  C   UNL     1       4.544   5.454  18.885  0.00  0.00    +0.000 A 
ATOM      8  N   UNL     1       5.477   6.369  19.084  0.00  0.00    +0.000 NA
ATOM      9  C   UNL     1       6.515   6.062  18.222  0.00  0.00    +0.000 A 
ATOM     10  C   UNL     1       6.177   4.992  17.418  0.00  0.00    +0.000 A 
ATOM     11  N   UNL     1       4.928   4.608  17.863  0.00  0.00    +0.000 N 
ATOM     12  C   UNL     1       4.060   3.525  17.425  0.00  0.00    +0.000 C 
ATOM     13  C   UNL     1       3.849   2.535  18.563  0.00  0.00    +0.000 C 
ATOM     14  O   UNL     1       2.956   2.904  19.614  0.00  0.00    +0.000 OA
ENDROOT
BRANCH   9  15
ATOM     15  C   UNL     1       7.768   6.829  18.180  0.00  0.00    +0.000 C 
ATOM     16  N   UNL     1       7.869   7.666  17.108  0.00  0.00    +0.000 N 
ATOM     17  O   UNL     1       8.664   6.733  19.002  0.00  0.00    +0.000 OA
ATOM     18  H   UNL     1       7.118   7.719  16.436  0.00  0.00    +0.000 HD
ATOM     19  H   UNL     1       8.703   8.223  17.009  0.00  0.00    +0.000 HD
ENDBRANCH   9  15
BRANCH   1  21
ATOM     20  C   UNL     1       0.290   9.066  21.182  0.00  0.00    +0.000 C 
ATOM     21  C   UNL     1       0.812   7.904  20.902  0.00  0.00    +0.000 C 
BRANCH  20  23
ATOM     22  C   UNL     1       0.737  11.510  21.338  0.00  0.00    +0.000 C 
ATOM     23  C   UNL     1      -0.320  10.420  21.509  0.00  0.00    +0.000 C 
ATOM     24  C   UNL     1      -0.862  10.404  22.937  0.00  0.00    +0.000 C 
BRANCH  23  25
ATOM     25  O   UNL     1      -1.392  10.661  20.606  0.00  0.00    +0.000 OA
ATOM     26  H   UNL     1      -2.006   9.912  20.673  0.00  0.00    +0.000 HD
ENDBRANCH  23  25
ENDBRANCH  20  23
ENDBRANCH   1  21
BRANCH  10  27
ATOM     27  C   UNL     1       6.997   4.354  16.345  0.00  0.00    +0.000 C 
BRANCH  27  28
ATOM     28  O   UNL     1       7.306   5.349  15.355  0.00  0.00    +0.000 OA
BRANCH  28  29
ATOM     29  C   UNL     1       7.068   4.856  14.081  0.00  0.00    +0.000 A 
ATOM     30  C   UNL     1       6.118   3.858  13.905  0.00  0.00    +0.000 A 
ATOM     31  C   UNL     1       5.921   3.351  12.612  0.00  0.00    +0.000 A 
ATOM     32  C   UNL     1       6.668   3.863  11.558  0.00  0.00    +0.000 A 
ATOM     33  C   UNL     1       7.585   4.860  11.831  0.00  0.00    +0.000 A 
ATOM     34  N   UNL     1       7.814   5.350  13.072  0.00  0.00    +0.000 NA
ENDBRANCH  28  29
ENDBRANCH  27  28
ENDBRANCH  10  27
TORSDOF 7
ENDMDL
MODEL 6
REMARK VINA RESULT:      -7.3      1.609      1.831
REMARK  Name = 
REMARK  9 active torsions:
REMARK  status: ('A' for Active; 'I' for Inactive)
REMARK    1  A    between atoms: C_1  and  C_2
REMARK    2  A    between atoms: C_2  and  C_3
REMARK    3  A    between atoms: C_2  and  O_4
REMARK    4  A    between atoms: C_2  and  C_5
REMARK    5  A    between atoms: C_6  and  C_7
REMARK    6  A    between atoms: C_15  and  C_16
REMARK    7  A    between atoms: C_19  and  C_20
REMARK    8  A    between atoms: C_20  and  O_21
REMARK    9  A    between atoms: O_21  and  C_22
REMARK                            x       y       z     vdW  Elec       q    Type
REMARK                         _______ _______ _______ _____ _____    ______ ____
ROOT
ATOM      1  C   UNL     1       1.623   6.529  20.532  0.00  0.00    +0.000 A 
ATOM      2  C   UNL     1       1.097   5.388  21.127  0.00  0.00    +0.000 A 
ATOM      3  C   UNL     1       1.629   4.139  20.810  0.00  0.00    +0.000 A 
ATOM      4  C   UNL     1       2.670   4.003  19.876  0.00  0.00    +0.000 A 
ATOM      5  C   UNL     1       3.204   5.149  19.266  0.00  0.00    +0.000 A 
ATOM      6  C   UNL     1       2.671   6.408  19.616  0.00  0.00    +0.000 A 
ATOM      7  C   UNL     1       4.268   5.137  18.258  0.00  0.00    +0.000 A 
ATOM      8  N   UNL     1       5.177   6.078  18.071  0.00  0.00    +0.000 NA
ATOM      9  C   UNL     1       5.957   5.660  17.006  0.00  0.00    +0.000 A 
ATOM     10  C   UNL     1       5.463   4.485  16.476  0.00  0.00    +0.000 A 
ATOM     11  N   UNL     1       4.399   4.159  17.293  0.00  0.00    +0.000 N 
ATOM     12  C   UNL     1       3.496   3.019  17.257  0.00  0.00    +0.000 C 
ATOM     13  C   UNL     1       3.645   2.197  18.531  0.00  0.00    +0.000 C 
ATOM     14  O   UNL     1       3.053   2.704  19.727  0.00  0.00    +0.000 OA
ENDROOT
BRANCH   9  15
ATOM     15  C   UNL     1       7.116   6.422  16.521  0.00  0.00    +0.000 C 
ATOM     16  N   UNL     1       7.360   7.566  17.222  0.00  0.00    +0.000 N 
ATOM     17  O   UNL     1       7.806   6.099  15.568  0.00  0.00    +0.000 OA
ATOM     18  H   UNL     1       6.767   7.817  18.000  0.00  0.00    +0.000 HD
ATOM     19  H   UNL     1       8.137   8.144  16.945  0.00  0.00    +0.000 HD
ENDBRANCH   9  15
BRANCH   1  21
ATOM     20  C   UNL     1       0.699   9.021  21.171  0.00  0.00    +0.000 C 
ATOM     21  C   UNL     1       1.112   7.820  20.874  0.00  0.00    +0.000 C 
BRANCH  20  23
ATOM     22  C   UNL     1      -0.515  10.392  22.857  0.00  0.00    +0.000 C 
ATOM     23  C   UNL     1       0.215  10.421  21.515  0.00  0.00    +0.000 C 
ATOM     24  C   UNL     1      -0.703  10.932  20.406  0.00  0.00    +0.000 C 
BRANCH  23  25
ATOM     25  O   UNL     1       1.347  11.277  21.616  0.00  0.00    +0.000 OA
ATOM     26  H   UNL     1       1.679  11.216  22.526  0.00  0.00    +0.000 HD
ENDBRANCH  23  25
ENDBRANCH  20  23
ENDBRANCH   1  21
BRANCH  10  27
ATOM     27  C   UNL     1       5.991   3.709  15.314  0.00  0.00    +0.000 C 
BRANCH  27  28
ATOM     28  O   UNL     1       5.618   4.389  14.104  0.00  0.00    +0.000 OA
BRANCH  28  29
ATOM     29  C   UNL     1       5.970   3.634  12.996  0.00  0.00    +0.000 A 
ATOM     30  C   UNL     1       5.018   2.816  12.401  0.00  0.00    +0.000 A 
ATOM     31  C   UNL     1       5.408   2.036  11.302  0.00  0.00    +0.000 A 
ATOM     32  C   UNL     1       6.718   2.111  10.842  0.00  0.00    +0.000 A 
ATOM     33  C   UNL     1       7.591   2.960  11.496  0.00  0.00    +0.000 A 
ATOM     34  N   UNL     1       7.249   3.704  12.573  0.00  0.00    +0.000 NA
ENDBRANCH  28  29
ENDBRANCH  27  28
ENDBRANCH  10  27
TORSDOF 7
ENDMDL
MODEL 7
REMARK VINA RESULT:      -7.1      1.315      1.491
REMARK  Name = 
REMARK  9 active torsions:
REMARK  status: ('A' for Active; 'I' for Inactive)
REMARK    1  A    between atoms: C_1  and  C_2
REMARK    2  A    between atoms: C_2  and  C_3
REMARK    3  A    between atoms: C_2  and  O_4
REMARK    4  A    between atoms: C_2  and  C_5
REMARK    5  A    between atoms: C_6  and  C_7
REMARK    6  A    between atoms: C_15  and  C_16
REMARK    7  A    between atoms: C_19  and  C_20
REMARK    8  A    between atoms: C_20  and  O_21
REMARK    9  A    between atoms: O_21  and  C_22
REMARK                            x       y       z     vdW  Elec       q    Type
REMARK                         _______ _______ _______ _____ _____    ______ ____
ROOT
ATOM      1  C   UNL     1       1.371   6.818  20.600  0.00  0.00    +0.000 A 
ATOM      2  C   UNL     1       0.639   5.684  20.935  0.00  0.00    +0.000 A 
ATOM      3  C   UNL     1       1.144   4.422  20.624  0.00  0.00    +0.000 A 
ATOM      4  C   UNL     1       2.366   4.270  19.948  0.00  0.00    +0.000 A 
ATOM      5  C   UNL     1       3.109   5.409  19.599  0.00  0.00    +0.000 A 
ATOM      6  C   UNL     1       2.596   6.678  19.944  0.00  0.00    +0.000 A 
ATOM      7  C   UNL     1       4.380   5.383  18.871  0.00  0.00    +0.000 A 
ATOM      8  N   UNL     1       5.371   6.249  18.997  0.00  0.00    +0.000 NA
ATOM      9  C   UNL     1       6.352   5.852  18.105  0.00  0.00    +0.000 A 
ATOM     10  C   UNL     1       5.919   4.776  17.356  0.00  0.00    +0.000 A 
ATOM     11  N   UNL     1       4.670   4.482  17.866  0.00  0.00    +0.000 N 
ATOM     12  C   UNL     1       3.725   3.437  17.505  0.00  0.00    +0.000 C 
ATOM     13  C   UNL     1       3.507   2.501  18.687  0.00  0.00    +0.000 C 
ATOM     14  O   UNL     1       2.682   2.958  19.759  0.00  0.00    +0.000 OA
ENDROOT
BRANCH   9  15
ATOM     15  C   UNL     1       7.643   6.543  17.983  0.00  0.00    +0.000 C 
ATOM     16  N   UNL     1       7.815   7.192  16.796  0.00  0.00    +0.000 N 
ATOM     17  O   UNL     1       8.512   6.538  18.839  0.00  0.00    +0.000 OA
ATOM     18  H   UNL     1       7.084   7.170  16.099  0.00  0.00    +0.000 HD
ATOM     19  H   UNL     1       8.678   7.685  16.637  0.00  0.00    +0.000 HD
ENDBRANCH   9  15
BRANCH   1  21
ATOM     20  C   UNL     1       0.384   9.279  21.264  0.00  0.00    +0.000 C 
ATOM     21  C   UNL     1       0.883   8.117  20.945  0.00  0.00    +0.000 C 
BRANCH  20  23
ATOM     22  C   UNL     1      -0.933  10.524  22.971  0.00  0.00    +0.000 C 
ATOM     23  C   UNL     1      -0.197  10.634  21.637  0.00  0.00    +0.000 C 
ATOM     24  C   UNL     1      -1.139  11.107  20.531  0.00  0.00    +0.000 C 
BRANCH  23  25
ATOM     25  O   UNL     1       0.873  11.562  21.767  0.00  0.00    +0.000 OA
ATOM     26  H   UNL     1       0.821  12.175  21.016  0.00  0.00    +0.000 HD
ENDBRANCH  23  25
ENDBRANCH  20  23
ENDBRANCH   1  21
BRANCH  10  27
ATOM     27  C   UNL     1       6.655   4.054  16.275  0.00  0.00    +0.000 C 
BRANCH  27  28
ATOM     28  O   UNL     1       5.739   3.785  15.201  0.00  0.00    +0.000 OA
BRANCH  28  29
ATOM     29  C   UNL     1       6.339   4.037  13.977  0.00  0.00    +0.000 A 
ATOM     30  C   UNL     1       7.294   5.041  13.883  0.00  0.00    +0.000 A 
ATOM     31  C   UNL     1       7.861   5.301  12.626  0.00  0.00    +0.000 A 
ATOM     32  C   UNL     1       7.460   4.547  11.528  0.00  0.00    +0.000 A 
ATOM     33  C   UNL     1       6.508   3.565  11.724  0.00  0.00    +0.000 A 
ATOM     34  N   UNL     1       5.927   3.311  12.919  0.00  0.00    +0.000 NA
ENDBRANCH  28  29
ENDBRANCH  27  28
ENDBRANCH  10  27
TORSDOF 7
ENDMDL
MODEL 8
REMARK VINA RESULT:      -7.1      4.441     10.884
REMARK  Name = 
REMARK  9 active torsions:
REMARK  status: ('A' for Active; 'I' for Inactive)
REMARK    1  A    between atoms: C_1  and  C_2
REMARK    2  A    between atoms: C_2  and  C_3
REMARK    3  A    between atoms: C_2  and  O_4
REMARK    4  A    between atoms: C_2  and  C_5
REMARK    5  A    between atoms: C_6  and  C_7
REMARK    6  A    between atoms: C_15  and  C_16
REMARK    7  A    between atoms: C_19  and  C_20
REMARK    8  A    between atoms: C_20  and  O_21
REMARK    9  A    between atoms: O_21  and  C_22
REMARK                            x       y       z     vdW  Elec       q    Type
REMARK                         _______ _______ _______ _____ _____    ______ ____
ROOT
ATOM      1  C   UNL     1       2.726   6.881  18.988  0.00  0.00    +0.000 A 
ATOM      2  C   UNL     1       2.246   5.930  19.881  0.00  0.00    +0.000 A 
ATOM      3  C   UNL     1       1.260   6.287  20.801  0.00  0.00    +0.000 A 
ATOM      4  C   UNL     1       0.763   7.599  20.868  0.00  0.00    +0.000 A 
ATOM      5  C   UNL     1       1.247   8.568  19.975  0.00  0.00    +0.000 A 
ATOM      6  C   UNL     1       2.226   8.184  19.032  0.00  0.00    +0.000 A 
ATOM      7  C   UNL     1       0.829   9.972  19.962  0.00  0.00    +0.000 A 
ATOM      8  N   UNL     1       0.765  10.759  18.902  0.00  0.00    +0.000 NA
ATOM      9  C   UNL     1       0.347  11.997  19.360  0.00  0.00    +0.000 A 
ATOM     10  C   UNL     1       0.238  11.992  20.736  0.00  0.00    +0.000 A 
ATOM     11  N   UNL     1       0.533  10.694  21.101  0.00  0.00    +0.000 N 
ATOM     12  C   UNL     1       0.563  10.065  22.413  0.00  0.00    +0.000 C 
ATOM     13  C   UNL     1      -0.484   8.961  22.484  0.00  0.00    +0.000 C 
ATOM     14  O   UNL     1      -0.202   7.728  21.821  0.00  0.00    +0.000 OA
ENDROOT
BRANCH   9  15
ATOM     15  C   UNL     1       0.107  13.137  18.465  0.00  0.00    +0.000 C 
ATOM     16  N   UNL     1      -0.996  13.001  17.676  0.00  0.00    +0.000 N 
ATOM     17  O   UNL     1       0.823  14.123  18.396  0.00  0.00    +0.000 OA
ATOM     18  H   UNL     1      -1.566  12.170  17.746  0.00  0.00    +0.000 HD
ATOM     19  H   UNL     1      -1.223  13.741  17.033  0.00  0.00    +0.000 HD
ENDBRANCH   9  15
BRANCH   1  21
ATOM     20  C   UNL     1       4.592   6.136  17.134  0.00  0.00    +0.000 C 
ATOM     21  C   UNL     1       3.710   6.521  18.014  0.00  0.00    +0.000 C 
BRANCH  20  23
ATOM     22  C   UNL     1       5.349   4.236  15.714  0.00  0.00    +0.000 C 
ATOM     23  C   UNL     1       5.620   5.688  16.108  0.00  0.00    +0.000 C 
ATOM     24  C   UNL     1       7.024   5.842  16.690  0.00  0.00    +0.000 C 
BRANCH  23  25
ATOM     25  O   UNL     1       5.499   6.515  14.957  0.00  0.00    +0.000 OA
ATOM     26  H   UNL     1       6.189   6.246  14.329  0.00  0.00    +0.000 HD
ENDBRANCH  23  25
ENDBRANCH  20  23
ENDBRANCH   1  21
BRANCH  10  27
ATOM     27  C   UNL     1      -0.163  13.121  21.629  0.00  0.00    +0.000 C 
BRANCH  27  28
ATOM     28  O   UNL     1      -1.495  12.872  22.108  0.00  0.00    +0.000 OA
BRANCH  28  29
ATOM     29  C   UNL     1      -1.764  13.651  23.222  0.00  0.00    +0.000 A 
ATOM     30  C   UNL     1      -3.013  13.569  23.823  0.00  0.00    +0.000 A 
ATOM     31  C   UNL     1      -3.273  14.394  24.927  0.00  0.00    +0.000 A 
ATOM     32  C   UNL     1      -2.280  15.252  25.387  0.00  0.00    +0.000 A 
ATOM     33  C   UNL     1      -1.066  15.257  24.727  0.00  0.00    +0.000 A 
ATOM     34  N   UNL     1      -0.797  14.491  23.644  0.00  0.00    +0.000 NA
ENDBRANCH  28  29
ENDBRANCH  27  28
ENDBRANCH  10  27
TORSDOF 7
ENDMDL
MODEL 9
REMARK VINA RESULT:      -7.0      7.312     12.258
REMARK  Name = 
REMARK  9 active torsions:
REMARK  status: ('A' for Active; 'I' for Inactive)
REMARK    1  A    between atoms: C_1  and  C_2
REMARK    2  A    between atoms: C_2  and  C_3
REMARK    3  A    between atoms: C_2  and  O_4
REMARK    4  A    between atoms: C_2  and  C_5
REMARK    5  A    between atoms: C_6  and  C_7
REMARK    6  A    between atoms: C_15  and  C_16
REMARK    7  A    between atoms: C_19  and  C_20
REMARK    8  A    between atoms: C_20  and  O_21
REMARK    9  A    between atoms: O_21  and  C_22
REMARK                            x       y       z     vdW  Elec       q    Type
REMARK                         _______ _______ _______ _____ _____    ______ ____
ROOT
ATOM      1  C   UNL     1       9.139  10.286  18.655  0.00  0.00    +0.000 A 
ATOM      2  C   UNL     1      10.073  10.942  17.861  0.00  0.00    +0.000 A 
ATOM      3  C   UNL     1      10.696  12.095  18.340  0.00  0.00    +0.000 A 
ATOM      4  C   UNL     1      10.376  12.629  19.599  0.00  0.00    +0.000 A 
ATOM      5  C   UNL     1       9.429  11.977  20.405  0.00  0.00    +0.000 A 
ATOM      6  C   UNL     1       8.827  10.798  19.917  0.00  0.00    +0.000 A 
ATOM      7  C   UNL     1       8.991  12.449  21.722  0.00  0.00    +0.000 A 
ATOM      8  N   UNL     1       8.600  11.692  22.733  0.00  0.00    +0.000 NA
ATOM      9  C   UNL     1       8.257  12.558  23.758  0.00  0.00    +0.000 A 
ATOM     10  C   UNL     1       8.356  13.869  23.338  0.00  0.00    +0.000 A 
ATOM     11  N   UNL     1       8.838  13.782  22.047  0.00  0.00    +0.000 N 
ATOM     12  C   UNL     1       9.172  14.827  21.091  0.00  0.00    +0.000 C 
ATOM     13  C   UNL     1      10.657  14.773  20.759  0.00  0.00    +0.000 C 
ATOM     14  O   UNL     1      11.109  13.743  19.879  0.00  0.00    +0.000 OA
ENDROOT
BRANCH   9  15
ATOM     15  C   UNL     1       7.815  12.091  25.079  0.00  0.00    +0.000 C 
ATOM     16  N   UNL     1       8.621  12.485  26.105  0.00  0.00    +0.000 N 
ATOM     17  O   UNL     1       6.831  11.395  25.272  0.00  0.00    +0.000 OA
ATOM     18  H   UNL     1       9.436  13.052  25.917  0.00  0.00    +0.000 HD
ATOM     19  H   UNL     1       8.384  12.200  27.041  0.00  0.00    +0.000 HD
ENDBRANCH   9  15
BRANCH   1  21
ATOM     20  C   UNL     1       7.909   7.997  17.807  0.00  0.00    +0.000 C 
ATOM     21  C   UNL     1       8.520   9.083  18.193  0.00  0.00    +0.000 C 
BRANCH  20  23
ATOM     22  C   UNL     1       5.691   6.989  17.294  0.00  0.00    +0.000 C 
ATOM     23  C   UNL     1       7.196   6.733  17.356  0.00  0.00    +0.000 C 
ATOM     24  C   UNL     1       7.517   5.593  18.322  0.00  0.00    +0.000 C 
BRANCH  23  25
ATOM     25  O   UNL     1       7.666   6.390  16.057  0.00  0.00    +0.000 OA
ATOM     26  H   UNL     1       8.628   6.523  16.050  0.00  0.00    +0.000 HD
ENDBRANCH  23  25
ENDBRANCH  20  23
ENDBRANCH   1  21
BRANCH  10  27
ATOM     27  C   UNL     1       8.063  15.108  24.120  0.00  0.00    +0.000 C 
BRANCH  27  28
ATOM     28  O   UNL     1       6.638  15.232  24.259  0.00  0.00    +0.000 OA
BRANCH  28  29
ATOM     29  C   UNL     1       6.276  15.195  25.597  0.00  0.00    +0.000 A 
ATOM     30  C   UNL     1       7.063  15.856  26.531  0.00  0.00    +0.000 A 
ATOM     31  C   UNL     1       6.696  15.774  27.883  0.00  0.00    +0.000 A 
ATOM     32  C   UNL     1       5.564  15.051  28.240  0.00  0.00    +0.000 A 
ATOM     33  C   UNL     1       4.841  14.434  27.237  0.00  0.00    +0.000 A 
ATOM     34  N   UNL     1       5.186  14.475  25.929  0.00  0.00    +0.000 NA
ENDBRANCH  28  29
ENDBRANCH  27  28
ENDBRANCH  10  27
TORSDOF 7
ENDMDL
