MODEL 1
REMARK VINA RESULT:      -7.9      0.000      0.000
REMARK  Name = 
REMARK  4 active torsions:
REMARK  status: ('A' for Active; 'I' for Inactive)
REMARK    1  A    between atoms: C_1  and  S_2
REMARK    2  A    between atoms: S_2  and  C_5
REMARK    3  A    between atoms: C_8  and  C_9
REMARK    4  A    between atoms: C_16  and  C_17
REMARK                            x       y       z     vdW  Elec       q    Type
REMARK                         _______ _______ _______ _____ _____    ______ ____
ROOT
ATOM      1  C   UNL     1       4.631   3.639  19.390  0.00  0.00    +0.000 A 
ATOM      2  C   UNL     1       4.864   2.355  19.912  0.00  0.00    +0.000 A 
ATOM      3  C   UNL     1       4.001   1.806  20.852  0.00  0.00    +0.000 A 
ATOM      4  C   UNL     1       2.898   2.541  21.272  0.00  0.00    +0.000 A 
ATOM      5  C   UNL     1       2.643   3.810  20.774  0.00  0.00    +0.000 A 
ATOM      6  N   UNL     1       1.561   4.459  21.232  0.00  0.00    +0.000 NA
ATOM      7  C   UNL     1       1.352   5.704  20.749  0.00  0.00    +0.000 A 
ATOM      8  C   UNL     1       2.188   6.315  19.826  0.00  0.00    +0.000 A 
ATOM      9  N   UNL     1       3.267   5.643  19.342  0.00  0.00    +0.000 NA
ATOM     10  C   UNL     1       3.515   4.387  19.816  0.00  0.00    +0.000 A 
ENDROOT
BRANCH   1  14
ATOM     11  C   UNL     1       6.406   4.882  16.498  0.00  0.00    +0.000 A 
ATOM     12  N   UNL     1       7.374   4.911  17.390  0.00  0.00    +0.000 NA
ATOM     13  N   UNL     1       6.853   4.461  18.583  0.00  0.00    +0.000 NA
ATOM     14  C   UNL     1       5.577   4.167  18.401  0.00  0.00    +0.000 A 
ATOM     15  N   UNL     1       5.266   4.438  17.093  0.00  0.00    +0.000 N 
ATOM     16  H   UNL     1       4.355   4.314  16.669  0.00  0.00    +0.000 HD
BRANCH  11  18
ATOM     17  C   UNL     1       6.014   3.856  13.949  0.00  0.00    +0.000 C 
ATOM     18  S   UNL     1       6.518   5.319  14.813  0.00  0.00    +0.000 S 
ATOM     19  O   UNL     1       7.926   5.567  14.578  0.00  0.00    +0.000 OA
ATOM     20  O   UNL     1       5.527   6.362  14.630  0.00  0.00    +0.000 OA
ENDBRANCH  11  18
ENDBRANCH   1  14
BRANCH   8  21
ATOM     21  C   UNL     1       1.985   7.690  19.339  0.00  0.00    +0.000 A 
ATOM     22  C   UNL     1       1.309   8.652  20.114  0.00  0.00    +0.000 A 
ATOM     23  C   UNL     1       1.101   9.953  19.646  0.00  0.00    +0.000 A 
ATOM     24  C   UNL     1       1.577  10.325  18.394  0.00  0.00    +0.000 A 
ATOM     25  C   UNL     1       2.267   9.402  17.614  0.00  0.00    +0.000 A 
ATOM     26  C   UNL     1       2.467   8.098  18.082  0.00  0.00    +0.000 A 
ENDBRANCH   8  21
TORSDOF 3
ENDMDL
MODEL 2
REMARK VINA RESULT:      -7.0      9.210     12.568
REMARK  Name = 
REMARK  4 active torsions:
REMARK  status: ('A' for Active; 'I' for Inactive)
REMARK    1  A    between atoms: C_1  and  S_2
REMARK    2  A    between atoms: S_2  and  C_5
REMARK    3  A    between atoms: C_8  and  C_9
REMARK    4  A    between atoms: C_16  and  C_17
REMARK                            x       y       z     vdW  Elec       q    Type
REMARK                         _______ _______ _______ _____ _____    ______ ____
ROOT
ATOM      1  C   UNL     1      -5.260  13.937  22.900  0.00  0.00    +0.000 A 
ATOM      2  C   UNL     1      -6.050  14.985  23.404  0.00  0.00    +0.000 A 
ATOM      3  C   UNL     1      -5.480  15.999  24.164  0.00  0.00    +0.000 A 
ATOM      4  C   UNL     1      -4.114  15.969  24.420  0.00  0.00    +0.000 A 
ATOM      5  C   UNL     1      -3.310  14.948  23.935  0.00  0.00    +0.000 A 
ATOM      6  N   UNL     1      -2.001  14.986  24.229  0.00  0.00    +0.000 NA
ATOM      7  C   UNL     1      -1.247  13.964  23.766  0.00  0.00    +0.000 A 
ATOM      8  C   UNL     1      -1.760  12.913  23.021  0.00  0.00    +0.000 A 
ATOM      9  N   UNL     1      -3.082  12.893  22.700  0.00  0.00    +0.000 NA
ATOM     10  C   UNL     1      -3.876  13.903  23.161  0.00  0.00    +0.000 A 
ENDROOT
BRANCH   1  14
ATOM     11  C   UNL     1      -6.488  11.633  20.400  0.00  0.00    +0.000 A 
ATOM     12  N   UNL     1      -7.198  11.244  21.439  0.00  0.00    +0.000 NA
ATOM     13  N   UNL     1      -6.841  12.036  22.507  0.00  0.00    +0.000 NA
ATOM     14  C   UNL     1      -5.919  12.894  22.106  0.00  0.00    +0.000 A 
ATOM     15  N   UNL     1      -5.667  12.651  20.780  0.00  0.00    +0.000 N 
ATOM     16  H   UNL     1      -4.999  13.152  20.208  0.00  0.00    +0.000 HD
BRANCH  11  18
ATOM     17  C   UNL     1      -4.875  11.027  18.224  0.00  0.00    +0.000 C 
ATOM     18  S   UNL     1      -6.558  10.992  18.780  0.00  0.00    +0.000 S 
ATOM     19  O   UNL     1      -7.342  11.950  18.027  0.00  0.00    +0.000 OA
ATOM     20  O   UNL     1      -6.994   9.619  18.939  0.00  0.00    +0.000 OA
ENDBRANCH  11  18
ENDBRANCH   1  14
BRANCH   8  21
ATOM     21  C   UNL     1      -0.945  11.776  22.560  0.00  0.00    +0.000 A 
ATOM     22  C   UNL     1      -1.034  10.510  23.172  0.00  0.00    +0.000 A 
ATOM     23  C   UNL     1      -0.249   9.436  22.746  0.00  0.00    +0.000 A 
ATOM     24  C   UNL     1       0.637   9.599  21.687  0.00  0.00    +0.000 A 
ATOM     25  C   UNL     1       0.733  10.832  21.049  0.00  0.00    +0.000 A 
ATOM     26  C   UNL     1      -0.049  11.909  21.483  0.00  0.00    +0.000 A 
ENDBRANCH   8  21
TORSDOF 3
ENDMDL
MODEL 3
REMARK VINA RESULT:      -6.9      4.396      7.415
REMARK  Name = 
REMARK  4 active torsions:
REMARK  status: ('A' for Active; 'I' for Inactive)
REMARK    1  A    between atoms: C_1  and  S_2
REMARK    2  A    between atoms: S_2  and  C_5
REMARK    3  A    between atoms: C_8  and  C_9
REMARK    4  A    between atoms: C_16  and  C_17
REMARK                            x       y       z     vdW  Elec       q    Type
REMARK                         _______ _______ _______ _____ _____    ______ ____
ROOT
ATOM      1  C   UNL     1       5.499   4.684  17.743  0.00  0.00    +0.000 A 
ATOM      2  C   UNL     1       6.066   5.339  18.851  0.00  0.00    +0.000 A 
ATOM      3  C   UNL     1       7.201   6.126  18.703  0.00  0.00    +0.000 A 
ATOM      4  C   UNL     1       7.771   6.264  17.443  0.00  0.00    +0.000 A 
ATOM      5  C   UNL     1       7.234   5.631  16.333  0.00  0.00    +0.000 A 
ATOM      6  N   UNL     1       7.845   5.808  15.151  0.00  0.00    +0.000 NA
ATOM      7  C   UNL     1       7.314   5.159  14.091  0.00  0.00    +0.000 A 
ATOM      8  C   UNL     1       6.197   4.341  14.178  0.00  0.00    +0.000 A 
ATOM      9  N   UNL     1       5.563   4.187  15.372  0.00  0.00    +0.000 NA
ATOM     10  C   UNL     1       6.078   4.820  16.465  0.00  0.00    +0.000 A 
ENDROOT
BRANCH   1  14
ATOM     11  C   UNL     1       2.405   3.146  18.801  0.00  0.00    +0.000 A 
ATOM     12  N   UNL     1       2.773   2.297  17.864  0.00  0.00    +0.000 NA
ATOM     13  N   UNL     1       3.964   2.749  17.339  0.00  0.00    +0.000 NA
ATOM     14  C   UNL     1       4.303   3.865  17.962  0.00  0.00    +0.000 A 
ATOM     15  N   UNL     1       3.325   4.145  18.883  0.00  0.00    +0.000 N 
ATOM     16  H   UNL     1       3.315   4.945  19.502  0.00  0.00    +0.000 HD
BRANCH  11  18
ATOM     17  C   UNL     1       1.576   2.327  21.321  0.00  0.00    +0.000 C 
ATOM     18  S   UNL     1       0.987   3.044  19.811  0.00  0.00    +0.000 S 
ATOM     19  O   UNL     1       0.107   2.111  19.137  0.00  0.00    +0.000 OA
ATOM     20  O   UNL     1       0.593   4.420  20.043  0.00  0.00    +0.000 OA
ENDBRANCH  11  18
ENDBRANCH   1  14
BRANCH   8  21
ATOM     21  C   UNL     1       5.651   3.595  13.031  0.00  0.00    +0.000 A 
ATOM     22  C   UNL     1       6.347   2.511  12.460  0.00  0.00    +0.000 A 
ATOM     23  C   UNL     1       5.838   1.814  11.362  0.00  0.00    +0.000 A 
ATOM     24  C   UNL     1       4.611   2.176  10.816  0.00  0.00    +0.000 A 
ATOM     25  C   UNL     1       3.891   3.229  11.371  0.00  0.00    +0.000 A 
ATOM     26  C   UNL     1       4.407   3.931  12.467  0.00  0.00    +0.000 A 
ENDBRANCH   8  21
TORSDOF 3
ENDMDL
MODEL 4
REMARK VINA RESULT:      -6.9      7.286     10.104
REMARK  Name = 
REMARK  4 active torsions:
REMARK  status: ('A' for Active; 'I' for Inactive)
REMARK    1  A    between atoms: C_1  and  S_2
REMARK    2  A    between atoms: S_2  and  C_5
REMARK    3  A    between atoms: C_8  and  C_9
REMARK    4  A    between atoms: C_16  and  C_17
REMARK                            x       y       z     vdW  Elec       q    Type
REMARK                         _______ _______ _______ _____ _____    ______ ____
ROOT
ATOM      1  C   UNL     1      -2.179  10.528  17.580  0.00  0.00    +0.000 A 
ATOM      2  C   UNL     1      -1.945  10.061  16.275  0.00  0.00    +0.000 A 
ATOM      3  C   UNL     1      -2.890  10.253  15.275  0.00  0.00    +0.000 A 
ATOM      4  C   UNL     1      -4.073  10.916  15.578  0.00  0.00    +0.000 A 
ATOM      5  C   UNL     1      -4.330  11.388  16.856  0.00  0.00    +0.000 A 
ATOM      6  N   UNL     1      -5.498  12.014  17.071  0.00  0.00    +0.000 NA
ATOM      7  C   UNL     1      -5.733  12.441  18.332  0.00  0.00    +0.000 A 
ATOM      8  C   UNL     1      -4.840  12.261  19.378  0.00  0.00    +0.000 A 
ATOM      9  N   UNL     1      -3.645  11.651  19.150  0.00  0.00    +0.000 NA
ATOM     10  C   UNL     1      -3.379  11.199  17.890  0.00  0.00    +0.000 A 
ENDROOT
BRANCH   1  14
ATOM     11  C   UNL     1      -0.193   9.864  20.527  0.00  0.00    +0.000 A 
ATOM     12  N   UNL     1       0.765  10.083  19.649  0.00  0.00    +0.000 NA
ATOM     13  N   UNL     1       0.166  10.354  18.439  0.00  0.00    +0.000 NA
ATOM     14  C   UNL     1      -1.145  10.295  18.595  0.00  0.00    +0.000 A 
ATOM     15  N   UNL     1      -1.398   9.973  19.904  0.00  0.00    +0.000 N 
ATOM     16  H   UNL     1      -2.317   9.853  20.311  0.00  0.00    +0.000 HD
BRANCH  11  18
ATOM     17  C   UNL     1      -0.918  10.780  23.045  0.00  0.00    +0.000 C 
ATOM     18  S   UNL     1      -0.003   9.504  22.222  0.00  0.00    +0.000 S 
ATOM     19  O   UNL     1       1.412   9.668  22.488  0.00  0.00    +0.000 OA
ATOM     20  O   UNL     1      -0.663   8.228  22.410  0.00  0.00    +0.000 OA
ENDBRANCH  11  18
ENDBRANCH   1  14
BRANCH   8  21
ATOM     21  C   UNL     1      -5.121  12.682  20.762  0.00  0.00    +0.000 A 
ATOM     22  C   UNL     1      -4.081  12.965  21.669  0.00  0.00    +0.000 A 
ATOM     23  C   UNL     1      -4.346  13.348  22.986  0.00  0.00    +0.000 A 
ATOM     24  C   UNL     1      -5.661  13.470  23.424  0.00  0.00    +0.000 A 
ATOM     25  C   UNL     1      -6.709  13.217  22.544  0.00  0.00    +0.000 A 
ATOM     26  C   UNL     1      -6.440  12.826  21.227  0.00  0.00    +0.000 A 
ENDBRANCH   8  21
TORSDOF 3
ENDMDL
MODEL 5
REMARK VINA RESULT:      -6.9      8.481     11.045
REMARK  Name = 
REMARK  4 active torsions:
REMARK  status: ('A' for Active; 'I' for Inactive)
REMARK    1  A    between atoms: C_1  and  S_2
REMARK    2  A    between atoms: S_2  and  C_5
REMARK    3  A    between atoms: C_8  and  C_9
REMARK    4  A    between atoms: C_16  and  C_17
REMARK                            x       y       z     vdW  Elec       q    Type
REMARK                         _______ _______ _______ _____ _____    ______ ____
ROOT
ATOM      1  C   UNL     1      -0.659  11.270  20.396  0.00  0.00    +0.000 A 
ATOM      2  C   UNL     1       0.625  10.699  20.374  0.00  0.00    +0.000 A 
ATOM      3  C   UNL     1       1.060   9.979  19.269  0.00  0.00    +0.000 A 
ATOM      4  C   UNL     1       0.210   9.828  18.180  0.00  0.00    +0.000 A 
ATOM      5  C   UNL     1      -1.062  10.380  18.174  0.00  0.00    +0.000 A 
ATOM      6  N   UNL     1      -1.826  10.186  17.087  0.00  0.00    +0.000 NA
ATOM      7  C   UNL     1      -3.070  10.713  17.119  0.00  0.00    +0.000 A 
ATOM      8  C   UNL     1      -3.570  11.424  18.201  0.00  0.00    +0.000 A 
ATOM      9  N   UNL     1      -2.783  11.643  19.289  0.00  0.00    +0.000 NA
ATOM     10  C   UNL     1      -1.524  11.116  19.294  0.00  0.00    +0.000 A 
ENDROOT
BRANCH   1  14
ATOM     11  C   UNL     1      -2.318  12.879  23.176  0.00  0.00    +0.000 A 
ATOM     12  N   UNL     1      -1.084  13.295  23.373  0.00  0.00    +0.000 NA
ATOM     13  N   UNL     1      -0.299  12.756  22.378  0.00  0.00    +0.000 NA
ATOM     14  C   UNL     1      -1.063  12.019  21.591  0.00  0.00    +0.000 A 
ATOM     15  N   UNL     1      -2.343  12.069  22.082  0.00  0.00    +0.000 N 
ATOM     16  H   UNL     1      -3.143  11.592  21.685  0.00  0.00    +0.000 HD
BRANCH  11  18
ATOM     17  C   UNL     1      -4.824  14.054  22.965  0.00  0.00    +0.000 C 
ATOM     18  S   UNL     1      -3.726  13.280  24.122  0.00  0.00    +0.000 S 
ATOM     19  O   UNL     1      -3.267  14.257  25.089  0.00  0.00    +0.000 OA
ATOM     20  O   UNL     1      -4.273  12.004  24.539  0.00  0.00    +0.000 OA
ENDBRANCH  11  18
ENDBRANCH   1  14
BRANCH   8  21
ATOM     21  C   UNL     1      -4.944  11.954  18.253  0.00  0.00    +0.000 A 
ATOM     22  C   UNL     1      -5.624  12.349  17.085  0.00  0.00    +0.000 A 
ATOM     23  C   UNL     1      -6.921  12.868  17.136  0.00  0.00    +0.000 A 
ATOM     24  C   UNL     1      -7.573  12.992  18.358  0.00  0.00    +0.000 A 
ATOM     25  C   UNL     1      -6.933  12.591  19.527  0.00  0.00    +0.000 A 
ATOM     26  C   UNL     1      -5.632  12.079  19.474  0.00  0.00    +0.000 A 
ENDBRANCH   8  21
TORSDOF 3
ENDMDL
MODEL 6
REMARK VINA RESULT:      -6.9      7.962     10.951
REMARK  Name = 
REMARK  4 active torsions:
REMARK  status: ('A' for Active; 'I' for Inactive)
REMARK    1  A    between atoms: C_1  and  S_2
REMARK    2  A    between atoms: S_2  and  C_5
REMARK    3  A    between atoms: C_8  and  C_9
REMARK    4  A    between atoms: C_16  and  C_17
REMARK                            x       y       z     vdW  Elec       q    Type
REMARK                         _______ _______ _______ _____ _____    ______ ____
ROOT
ATOM      1  C   UNL     1      -4.021  12.977  21.951  0.00  0.00    +0.000 A 
ATOM      2  C   UNL     1      -4.638  13.762  22.941  0.00  0.00    +0.000 A 
ATOM      3  C   UNL     1      -5.846  14.400  22.686  0.00  0.00    +0.000 A 
ATOM      4  C   UNL     1      -6.442  14.252  21.440  0.00  0.00    +0.000 A 
ATOM      5  C   UNL     1      -5.856  13.484  20.445  0.00  0.00    +0.000 A 
ATOM      6  N   UNL     1      -6.490  13.394  19.265  0.00  0.00    +0.000 NA
ATOM      7  C   UNL     1      -5.883  12.660  18.306  0.00  0.00    +0.000 A 
ATOM      8  C   UNL     1      -4.668  12.017  18.491  0.00  0.00    +0.000 A 
ATOM      9  N   UNL     1      -4.042  12.087  19.697  0.00  0.00    +0.000 NA
ATOM     10  C   UNL     1      -4.622  12.828  20.686  0.00  0.00    +0.000 A 
ENDROOT
BRANCH   1  14
ATOM     11  C   UNL     1      -0.722  11.505  22.061  0.00  0.00    +0.000 A 
ATOM     12  N   UNL     1      -1.112  11.285  23.300  0.00  0.00    +0.000 NA
ATOM     13  N   UNL     1      -2.381  11.802  23.434  0.00  0.00    +0.000 NA
ATOM     14  C   UNL     1      -2.746  12.330  22.278  0.00  0.00    +0.000 A 
ATOM     15  N   UNL     1      -1.708  12.167  21.396  0.00  0.00    +0.000 N 
ATOM     16  H   UNL     1      -1.701  12.480  20.433  0.00  0.00    +0.000 HD
BRANCH  11  18
ATOM     17  C   UNL     1       0.333  10.350  19.768  0.00  0.00    +0.000 C 
ATOM     18  S   UNL     1       0.793  11.033  21.337  0.00  0.00    +0.000 S 
ATOM     19  O   UNL     1       1.313   9.986  22.194  0.00  0.00    +0.000 OA
ATOM     20  O   UNL     1       1.516  12.274  21.139  0.00  0.00    +0.000 OA
ENDBRANCH  11  18
ENDBRANCH   1  14
BRANCH   8  21
ATOM     21  C   UNL     1      -3.985  11.259  17.428  0.00  0.00    +0.000 A 
ATOM     22  C   UNL     1      -4.428  11.306  16.092  0.00  0.00    +0.000 A 
ATOM     23  C   UNL     1      -3.791  10.574  15.086  0.00  0.00    +0.000 A 
ATOM     24  C   UNL     1      -2.686   9.787  15.392  0.00  0.00    +0.000 A 
ATOM     25  C   UNL     1      -2.214   9.737  16.700  0.00  0.00    +0.000 A 
ATOM     26  C   UNL     1      -2.858  10.465  17.707  0.00  0.00    +0.000 A 
ENDBRANCH   8  21
TORSDOF 3
ENDMDL
MODEL 7
REMARK VINA RESULT:      -6.8      3.404      5.833
REMARK  Name = 
REMARK  4 active torsions:
REMARK  status: ('A' for Active; 'I' for Inactive)
REMARK    1  A    between atoms: C_1  and  S_2
REMARK    2  A    between atoms: S_2  and  C_5
REMARK    3  A    between atoms: C_8  and  C_9
REMARK    4  A    between atoms: C_16  and  C_17
REMARK                            x       y       z     vdW  Elec       q    Type
REMARK                         _______ _______ _______ _____ _____    ______ ____
ROOT
ATOM      1  C   UNL     1       1.778   5.195  20.192  0.00  0.00    +0.000 A 
ATOM      2  C   UNL     1       0.774   4.269  20.526  0.00  0.00    +0.000 A 
ATOM      3  C   UNL     1       0.995   2.905  20.384  0.00  0.00    +0.000 A 
ATOM      4  C   UNL     1       2.223   2.462  19.910  0.00  0.00    +0.000 A 
ATOM      5  C   UNL     1       3.232   3.352  19.573  0.00  0.00    +0.000 A 
ATOM      6  N   UNL     1       4.389   2.847  19.117  0.00  0.00    +0.000 NA
ATOM      7  C   UNL     1       5.345   3.738  18.773  0.00  0.00    +0.000 A 
ATOM      8  C   UNL     1       5.178   5.112  18.871  0.00  0.00    +0.000 A 
ATOM      9  N   UNL     1       4.015   5.619  19.360  0.00  0.00    +0.000 NA
ATOM     10  C   UNL     1       3.024   4.748  19.708  0.00  0.00    +0.000 A 
ENDROOT
BRANCH   1  14
ATOM     11  C   UNL     1       1.220   8.754  19.905  0.00  0.00    +0.000 A 
ATOM     12  N   UNL     1       0.988   8.589  21.191  0.00  0.00    +0.000 NA
ATOM     13  N   UNL     1       1.156   7.253  21.475  0.00  0.00    +0.000 NA
ATOM     14  C   UNL     1       1.487   6.623  20.361  0.00  0.00    +0.000 A 
ATOM     15  N   UNL     1       1.521   7.549  19.350  0.00  0.00    +0.000 N 
ATOM     16  H   UNL     1       1.739   7.351  18.381  0.00  0.00    +0.000 HD
BRANCH  11  18
ATOM     17  C   UNL     1      -0.461  10.313  18.340  0.00  0.00    +0.000 C 
ATOM     18  S   UNL     1       1.177  10.252  19.013  0.00  0.00    +0.000 S 
ATOM     19  O   UNL     1       2.140  10.085  17.944  0.00  0.00    +0.000 OA
ATOM     20  O   UNL     1       1.334  11.289  20.015  0.00  0.00    +0.000 OA
ENDBRANCH  11  18
ENDBRANCH   1  14
BRANCH   8  21
ATOM     21  C   UNL     1       6.203   6.082  18.448  0.00  0.00    +0.000 A 
ATOM     22  C   UNL     1       7.454   6.158  19.092  0.00  0.00    +0.000 A 
ATOM     23  C   UNL     1       8.420   7.089  18.702  0.00  0.00    +0.000 A 
ATOM     24  C   UNL     1       8.162   7.960  17.648  0.00  0.00    +0.000 A 
ATOM     25  C   UNL     1       6.943   7.894  16.980  0.00  0.00    +0.000 A 
ATOM     26  C   UNL     1       5.974   6.966  17.377  0.00  0.00    +0.000 A 
ENDBRANCH   8  21
TORSDOF 3
ENDMDL
MODEL 8
REMARK VINA RESULT:      -6.8      9.363     12.100
REMARK  Name = 
REMARK  4 active torsions:
REMARK  status: ('A' for Active; 'I' for Inactive)
REMARK    1  A    between atoms: C_1  and  S_2
REMARK    2  A    between atoms: S_2  and  C_5
REMARK    3  A    between atoms: C_8  and  C_9
REMARK    4  A    between atoms: C_16  and  C_17
REMARK                            x       y       z     vdW  Elec       q    Type
REMARK                         _______ _______ _______ _____ _____    ______ ____
ROOT
ATOM      1  C   UNL     1      -5.694  13.320  21.167  0.00  0.00    +0.000 A 
ATOM      2  C   UNL     1      -6.604  14.139  21.857  0.00  0.00    +0.000 A 
ATOM      3  C   UNL     1      -7.712  14.668  21.209  0.00  0.00    +0.000 A 
ATOM      4  C   UNL     1      -7.917  14.375  19.865  0.00  0.00    +0.000 A 
ATOM      5  C   UNL     1      -7.036  13.570  19.159  0.00  0.00    +0.000 A 
ATOM      6  N   UNL     1      -7.298  13.338  17.863  0.00  0.00    +0.000 NA
ATOM      7  C   UNL     1      -6.409  12.571  17.194  0.00  0.00    +0.000 A 
ATOM      8  C   UNL     1      -5.273  12.032  17.779  0.00  0.00    +0.000 A 
ATOM      9  N   UNL     1      -5.025  12.246  19.099  0.00  0.00    +0.000 NA
ATOM     10  C   UNL     1      -5.897  13.024  19.804  0.00  0.00    +0.000 A 
ENDROOT
BRANCH   1  14
ATOM     11  C   UNL     1      -2.504  12.106  22.356  0.00  0.00    +0.000 A 
ATOM     12  N   UNL     1      -3.229  11.945  23.443  0.00  0.00    +0.000 NA
ATOM     13  N   UNL     1      -4.506  12.375  23.158  0.00  0.00    +0.000 NA
ATOM     14  C   UNL     1      -4.540  12.792  21.904  0.00  0.00    +0.000 A 
ATOM     15  N   UNL     1      -3.282  12.645  21.378  0.00  0.00    +0.000 N 
ATOM     16  H   UNL     1      -3.008  12.890  20.435  0.00  0.00    +0.000 HD
BRANCH  11  18
ATOM     17  C   UNL     1      -0.012  13.264  21.963  0.00  0.00    +0.000 C 
ATOM     18  S   UNL     1      -0.822  11.698  22.146  0.00  0.00    +0.000 S 
ATOM     19  O   UNL     1      -0.762  10.967  20.896  0.00  0.00    +0.000 OA
ATOM     20  O   UNL     1      -0.426  11.084  23.398  0.00  0.00    +0.000 OA
ENDBRANCH  11  18
ENDBRANCH   1  14
BRANCH   8  21
ATOM     21  C   UNL     1      -4.280  11.238  17.034  0.00  0.00    +0.000 A 
ATOM     22  C   UNL     1      -3.228  10.570  17.693  0.00  0.00    +0.000 A 
ATOM     23  C   UNL     1      -2.277   9.831  16.986  0.00  0.00    +0.000 A 
ATOM     24  C   UNL     1      -2.362   9.731  15.601  0.00  0.00    +0.000 A 
ATOM     25  C   UNL     1      -3.401  10.363  14.925  0.00  0.00    +0.000 A 
ATOM     26  C   UNL     1      -4.349  11.109  15.635  0.00  0.00    +0.000 A 
ENDBRANCH   8  21
TORSDOF 3
ENDMDL
MODEL 9
REMARK VINA RESULT:      -6.7      3.416      6.217
REMARK  Name = 
REMARK  4 active torsions:
REMARK  status: ('A' for Active; 'I' for Inactive)
REMARK    1  A    between atoms: C_1  and  S_2
REMARK    2  A    between atoms: S_2  and  C_5
REMARK    3  A    between atoms: C_8  and  C_9
REMARK    4  A    between atoms: C_16  and  C_17
REMARK                            x       y       z     vdW  Elec       q    Type
REMARK                         _______ _______ _______ _____ _____    ______ ____
ROOT
ATOM      1  C   UNL     1       2.202   5.387  19.457  0.00  0.00    +0.000 A 
ATOM      2  C   UNL     1       1.332   5.033  20.504  0.00  0.00    +0.000 A 
ATOM      3  C   UNL     1       1.264   3.722  20.955  0.00  0.00    +0.000 A 
ATOM      4  C   UNL     1       2.069   2.757  20.360  0.00  0.00    +0.000 A 
ATOM      5  C   UNL     1       2.936   3.076  19.326  0.00  0.00    +0.000 A 
ATOM      6  N   UNL     1       3.676   2.088  18.800  0.00  0.00    +0.000 NA
ATOM      7  C   UNL     1       4.494   2.423  17.776  0.00  0.00    +0.000 A 
ATOM      8  C   UNL     1       4.591   3.710  17.267  0.00  0.00    +0.000 A 
ATOM      9  N   UNL     1       3.860   4.714  17.822  0.00  0.00    +0.000 NA
ATOM     10  C   UNL     1       3.017   4.409  18.851  0.00  0.00    +0.000 A 
ENDROOT
BRANCH   1  14
ATOM     11  C   UNL     1       1.776   8.933  18.907  0.00  0.00    +0.000 A 
ATOM     12  N   UNL     1       2.644   8.657  17.956  0.00  0.00    +0.000 NA
ATOM     13  N   UNL     1       2.926   7.311  18.029  0.00  0.00    +0.000 NA
ATOM     14  C   UNL     1       2.229   6.787  19.023  0.00  0.00    +0.000 A 
ATOM     15  N   UNL     1       1.503   7.796  19.603  0.00  0.00    +0.000 N 
ATOM     16  H   UNL     1       0.880   7.690  20.394  0.00  0.00    +0.000 HD
BRANCH  11  18
ATOM     17  C   UNL     1      -0.583  10.360  18.580  0.00  0.00    +0.000 C 
ATOM     18  S   UNL     1       1.053  10.482  19.252  0.00  0.00    +0.000 S 
ATOM     19  O   UNL     1       1.826  11.440  18.487  0.00  0.00    +0.000 OA
ATOM     20  O   UNL     1       0.986  10.551  20.698  0.00  0.00    +0.000 OA
ENDBRANCH  11  18
ENDBRANCH   1  14
BRANCH   8  21
ATOM     21  C   UNL     1       5.445   4.062  16.119  0.00  0.00    +0.000 A 
ATOM     22  C   UNL     1       6.642   4.785  16.288  0.00  0.00    +0.000 A 
ATOM     23  C   UNL     1       7.444   5.133  15.198  0.00  0.00    +0.000 A 
ATOM     24  C   UNL     1       7.072   4.755  13.912  0.00  0.00    +0.000 A 
ATOM     25  C   UNL     1       5.905   4.023  13.717  0.00  0.00    +0.000 A 
ATOM     26  C   UNL     1       5.100   3.682  14.809  0.00  0.00    +0.000 A 
ENDBRANCH   8  21
TORSDOF 3
ENDMDL
