MODEL 1
REMARK VINA RESULT:      -7.1      0.000      0.000
REMARK  Name = 
REMARK  7 active torsions:
REMARK  status: ('A' for Active; 'I' for Inactive)
REMARK    1  A    between atoms: C_1  and  N_2
REMARK    2  A    between atoms: N_2  and  C_3
REMARK    3  A    between atoms: C_4  and  C_6
REMARK    4  A    between atoms: C_6  and  O_7
REMARK    5  A    between atoms: O_7  and  C_8
REMARK    6  A    between atoms: C_9  and  C_10
REMARK    7  A    between atoms: C_16  and  O_17
REMARK                            x       y       z     vdW  Elec       q    Type
REMARK                         _______ _______ _______ _____ _____    ______ ____
ROOT
ATOM      1  C   UNL     1       2.569   6.913  18.290  0.00  0.00    +0.000 A 
ATOM      2  C   UNL     1       2.480   5.805  19.197  0.00  0.00    +0.000 A 
ATOM      3  C   UNL     1       1.904   6.126  20.437  0.00  0.00    +0.000 A 
ATOM      4  N   UNL     1       1.388   7.318  20.783  0.00  0.00    +0.000 NA
ATOM      5  C   UNL     1       1.494   8.339  19.931  0.00  0.00    +0.000 A 
ATOM      6  C   UNL     1       0.966   9.550  20.361  0.00  0.00    +0.000 A 
ATOM      7  C   UNL     1       1.035  10.695  19.577  0.00  0.00    +0.000 A 
ATOM      8 CL   UNL     1       0.336  12.169  20.111  0.00  0.00    +0.000 Cl
ATOM      9  C   UNL     1       1.688  10.649  18.365  0.00  0.00    +0.000 A 
ATOM     10  C   UNL     1       2.253   9.446  17.949  0.00  0.00    +0.000 A 
ATOM     11  C   UNL     1       2.123   8.227  18.673  0.00  0.00    +0.000 A 
ENDROOT
BRANCH   2  12
ATOM     12  C   UNL     1       2.947   4.402  18.886  0.00  0.00    +0.000 A 
ATOM     13  C   UNL     1       4.099   3.839  19.466  0.00  0.00    +0.000 A 
ATOM     14  C   UNL     1       4.497   2.517  19.212  0.00  0.00    +0.000 A 
ATOM     15  C   UNL     1       3.722   1.691  18.409  0.00  0.00    +0.000 A 
ATOM     16  C   UNL     1       2.578   2.205  17.815  0.00  0.00    +0.000 A 
ATOM     17  C   UNL     1       2.225   3.548  18.017  0.00  0.00    +0.000 A 
ENDBRANCH   2  12
BRANCH   3  18
ATOM     18  O   UNL     1       1.842   5.248  21.482  0.00  0.00    +0.000 OA
ATOM     19  H   UNL     1       1.962   5.764  22.295  0.00  0.00    +0.000 HD
ENDBRANCH   3  18
BRANCH   1  20
ATOM     20  O   UNL     1       3.157   6.620  17.077  0.00  0.00    +0.000 OA
BRANCH  20  21
ATOM     21  C   UNL     1       4.517   6.935  16.791  0.00  0.00    +0.000 C 
BRANCH  21  25
ATOM     22  C   UNL     1       7.499   4.505  17.064  0.00  0.00    +0.000 C 
ATOM     23  N   UNL     1       6.680   5.703  17.180  0.00  0.00    +0.000 N 
ATOM     24  C   UNL     1       7.287   6.900  17.737  0.00  0.00    +0.000 C 
ATOM     25  C   UNL     1       5.401   5.674  16.620  0.00  0.00    +0.000 C 
ATOM     26  O   UNL     1       4.972   4.658  16.068  0.00  0.00    +0.000 OA
ENDBRANCH  21  25
ENDBRANCH  20  21
ENDBRANCH   1  20
TORSDOF 5
ENDMDL
MODEL 2
REMARK VINA RESULT:      -6.9      4.802      8.921
REMARK  Name = 
REMARK  7 active torsions:
REMARK  status: ('A' for Active; 'I' for Inactive)
REMARK    1  A    between atoms: C_1  and  N_2
REMARK    2  A    between atoms: N_2  and  C_3
REMARK    3  A    between atoms: C_4  and  C_6
REMARK    4  A    between atoms: C_6  and  O_7
REMARK    5  A    between atoms: O_7  and  C_8
REMARK    6  A    between atoms: C_9  and  C_10
REMARK    7  A    between atoms: C_16  and  O_17
REMARK                            x       y       z     vdW  Elec       q    Type
REMARK                         _______ _______ _______ _____ _____    ______ ____
ROOT
ATOM      1  C   UNL     1      -0.288  11.059  20.547  0.00  0.00    +0.000 A 
ATOM      2  C   UNL     1      -0.518  10.996  21.962  0.00  0.00    +0.000 A 
ATOM      3  C   UNL     1       0.072   9.886  22.589  0.00  0.00    +0.000 A 
ATOM      4  N   UNL     1       0.859   8.971  21.997  0.00  0.00    +0.000 NA
ATOM      5  C   UNL     1       1.048   9.038  20.678  0.00  0.00    +0.000 A 
ATOM      6  C   UNL     1       1.847   8.045  20.125  0.00  0.00    +0.000 A 
ATOM      7  C   UNL     1       2.101   7.990  18.760  0.00  0.00    +0.000 A 
ATOM      8 CL   UNL     1       3.128   6.780  18.105  0.00  0.00    +0.000 Cl
ATOM      9  C   UNL     1       1.505   8.907  17.921  0.00  0.00    +0.000 A 
ATOM     10  C   UNL     1       0.671   9.878  18.469  0.00  0.00    +0.000 A 
ATOM     11  C   UNL     1       0.461  10.033  19.868  0.00  0.00    +0.000 A 
ENDROOT
BRANCH   2  12
ATOM     12  C   UNL     1      -1.311  12.013  22.748  0.00  0.00    +0.000 A 
ATOM     13  C   UNL     1      -0.833  13.310  23.013  0.00  0.00    +0.000 A 
ATOM     14  C   UNL     1      -1.598  14.266  23.699  0.00  0.00    +0.000 A 
ATOM     15  C   UNL     1      -2.896  13.976  24.096  0.00  0.00    +0.000 A 
ATOM     16  C   UNL     1      -3.409  12.708  23.856  0.00  0.00    +0.000 A 
ATOM     17  C   UNL     1      -2.613  11.735  23.233  0.00  0.00    +0.000 A 
ENDBRANCH   2  12
BRANCH   3  18
ATOM     18  O   UNL     1      -0.131   9.575  23.904  0.00  0.00    +0.000 OA
ATOM     19  H   UNL     1       0.637   9.059  24.196  0.00  0.00    +0.000 HD
ENDBRANCH   3  18
BRANCH   1  20
ATOM     20  O   UNL     1      -0.883  12.129  19.912  0.00  0.00    +0.000 OA
BRANCH  20  21
ATOM     21  C   UNL     1      -2.285  12.189  19.666  0.00  0.00    +0.000 C 
BRANCH  21  25
ATOM     22  C   UNL     1      -4.370  11.314  16.541  0.00  0.00    +0.000 C 
ATOM     23  N   UNL     1      -4.011  11.641  17.914  0.00  0.00    +0.000 N 
ATOM     24  C   UNL     1      -5.063  11.648  18.916  0.00  0.00    +0.000 C 
ATOM     25  C   UNL     1      -2.656  11.792  18.215  0.00  0.00    +0.000 C 
ATOM     26  O   UNL     1      -1.794  11.676  17.340  0.00  0.00    +0.000 OA
ENDBRANCH  21  25
ENDBRANCH  20  21
ENDBRANCH   1  20
TORSDOF 5
ENDMDL
MODEL 3
REMARK VINA RESULT:      -6.9      4.746      8.850
REMARK  Name = 
REMARK  7 active torsions:
REMARK  status: ('A' for Active; 'I' for Inactive)
REMARK    1  A    between atoms: C_1  and  N_2
REMARK    2  A    between atoms: N_2  and  C_3
REMARK    3  A    between atoms: C_4  and  C_6
REMARK    4  A    between atoms: C_6  and  O_7
REMARK    5  A    between atoms: O_7  and  C_8
REMARK    6  A    between atoms: C_9  and  C_10
REMARK    7  A    between atoms: C_16  and  O_17
REMARK                            x       y       z     vdW  Elec       q    Type
REMARK                         _______ _______ _______ _____ _____    ______ ____
ROOT
ATOM      1  C   UNL     1      -0.099  11.031  20.414  0.00  0.00    +0.000 A 
ATOM      2  C   UNL     1      -0.426  11.004  21.811  0.00  0.00    +0.000 A 
ATOM      3  C   UNL     1       0.054   9.872  22.490  0.00  0.00    +0.000 A 
ATOM      4  N   UNL     1       0.822   8.903  21.963  0.00  0.00    +0.000 NA
ATOM      5  C   UNL     1       1.102   8.938  20.660  0.00  0.00    +0.000 A 
ATOM      6  C   UNL     1       1.876   7.890  20.174  0.00  0.00    +0.000 A 
ATOM      7  C   UNL     1       2.215   7.798  18.830  0.00  0.00    +0.000 A 
ATOM      8 CL   UNL     1       3.209   6.520  18.260  0.00  0.00    +0.000 Cl
ATOM      9  C   UNL     1       1.732   8.735  17.942  0.00  0.00    +0.000 A 
ATOM     10  C   UNL     1       0.924   9.763  18.420  0.00  0.00    +0.000 A 
ATOM     11  C   UNL     1       0.631   9.952  19.800  0.00  0.00    +0.000 A 
ENDROOT
BRANCH   2  12
ATOM     12  C   UNL     1      -1.208  12.080  22.529  0.00  0.00    +0.000 A 
ATOM     13  C   UNL     1      -2.517  11.879  23.003  0.00  0.00    +0.000 A 
ATOM     14  C   UNL     1      -3.218  12.865  23.715  0.00  0.00    +0.000 A 
ATOM     15  C   UNL     1      -2.608  14.072  24.028  0.00  0.00    +0.000 A 
ATOM     16  C   UNL     1      -1.317  14.315  23.580  0.00  0.00    +0.000 A 
ATOM     17  C   UNL     1      -0.650  13.352  22.808  0.00  0.00    +0.000 A 
ENDBRANCH   2  12
BRANCH   3  18
ATOM     18  O   UNL     1      -0.254   9.595  23.792  0.00  0.00    +0.000 OA
ATOM     19  H   UNL     1      -1.220   9.524  23.847  0.00  0.00    +0.000 HD
ENDBRANCH   3  18
BRANCH   1  20
ATOM     20  O   UNL     1      -0.586  12.124  19.728  0.00  0.00    +0.000 OA
BRANCH  20  21
ATOM     21  C   UNL     1      -1.244  12.006  18.470  0.00  0.00    +0.000 C 
BRANCH  21  25
ATOM     22  C   UNL     1      -4.920  11.130  17.698  0.00  0.00    +0.000 C 
ATOM     23  N   UNL     1      -3.479  11.289  17.555  0.00  0.00    +0.000 N 
ATOM     24  C   UNL     1      -2.874  10.953  16.278  0.00  0.00    +0.000 C 
ATOM     25  C   UNL     1      -2.783  11.886  18.608  0.00  0.00    +0.000 C 
ATOM     26  O   UNL     1      -3.366  12.245  19.634  0.00  0.00    +0.000 OA
ENDBRANCH  21  25
ENDBRANCH  20  21
ENDBRANCH   1  20
TORSDOF 5
ENDMDL
MODEL 4
REMARK VINA RESULT:      -6.8      4.966      9.281
REMARK  Name = 
REMARK  7 active torsions:
REMARK  status: ('A' for Active; 'I' for Inactive)
REMARK    1  A    between atoms: C_1  and  N_2
REMARK    2  A    between atoms: N_2  and  C_3
REMARK    3  A    between atoms: C_4  and  C_6
REMARK    4  A    between atoms: C_6  and  O_7
REMARK    5  A    between atoms: O_7  and  C_8
REMARK    6  A    between atoms: C_9  and  C_10
REMARK    7  A    between atoms: C_16  and  O_17
REMARK                            x       y       z     vdW  Elec       q    Type
REMARK                         _______ _______ _______ _____ _____    ______ ____
ROOT
ATOM      1  C   UNL     1      -0.319  11.014  20.529  0.00  0.00    +0.000 A 
ATOM      2  C   UNL     1      -0.485  10.979  21.953  0.00  0.00    +0.000 A 
ATOM      3  C   UNL     1       0.178   9.912  22.581  0.00  0.00    +0.000 A 
ATOM      4  N   UNL     1       0.977   9.015  21.978  0.00  0.00    +0.000 NA
ATOM      5  C   UNL     1       1.106   9.055  20.652  0.00  0.00    +0.000 A 
ATOM      6  C   UNL     1       1.923   8.081  20.089  0.00  0.00    +0.000 A 
ATOM      7  C   UNL     1       2.121   8.001  18.716  0.00  0.00    +0.000 A 
ATOM      8 CL   UNL     1       3.169   6.818  18.047  0.00  0.00    +0.000 Cl
ATOM      9  C   UNL     1       1.451   8.869  17.881  0.00  0.00    +0.000 A 
ATOM     10  C   UNL     1       0.601   9.820  18.441  0.00  0.00    +0.000 A 
ATOM     11  C   UNL     1       0.444  10.003  19.843  0.00  0.00    +0.000 A 
ENDROOT
BRANCH   2  12
ATOM     12  C   UNL     1      -1.288  11.984  22.747  0.00  0.00    +0.000 A 
ATOM     13  C   UNL     1      -0.826  13.287  23.012  0.00  0.00    +0.000 A 
ATOM     14  C   UNL     1      -1.599  14.230  23.705  0.00  0.00    +0.000 A 
ATOM     15  C   UNL     1      -2.890  13.920  24.112  0.00  0.00    +0.000 A 
ATOM     16  C   UNL     1      -3.386  12.646  23.873  0.00  0.00    +0.000 A 
ATOM     17  C   UNL     1      -2.581  11.686  23.242  0.00  0.00    +0.000 A 
ENDBRANCH   2  12
BRANCH   3  18
ATOM     18  O   UNL     1       0.044   9.628  23.911  0.00  0.00    +0.000 OA
ATOM     19  H   UNL     1      -0.901   9.688  24.121  0.00  0.00    +0.000 HD
ENDBRANCH   3  18
BRANCH   1  20
ATOM     20  O   UNL     1      -0.985  12.041  19.894  0.00  0.00    +0.000 OA
BRANCH  20  21
ATOM     21  C   UNL     1      -2.154  11.825  19.109  0.00  0.00    +0.000 C 
BRANCH  21  25
ATOM     22  C   UNL     1      -5.813  12.842  19.782  0.00  0.00    +0.000 C 
ATOM     23  N   UNL     1      -4.649  12.151  19.246  0.00  0.00    +0.000 N 
ATOM     24  C   UNL     1      -4.859  11.140  18.224  0.00  0.00    +0.000 C 
ATOM     25  C   UNL     1      -3.387  12.596  19.644  0.00  0.00    +0.000 C 
ATOM     26  O   UNL     1      -3.264  13.529  20.442  0.00  0.00    +0.000 OA
ENDBRANCH  21  25
ENDBRANCH  20  21
ENDBRANCH   1  20
TORSDOF 5
ENDMDL
MODEL 5
REMARK VINA RESULT:      -6.7      1.921      3.822
REMARK  Name = 
REMARK  7 active torsions:
REMARK  status: ('A' for Active; 'I' for Inactive)
REMARK    1  A    between atoms: C_1  and  N_2
REMARK    2  A    between atoms: N_2  and  C_3
REMARK    3  A    between atoms: C_4  and  C_6
REMARK    4  A    between atoms: C_6  and  O_7
REMARK    5  A    between atoms: O_7  and  C_8
REMARK    6  A    between atoms: C_9  and  C_10
REMARK    7  A    between atoms: C_16  and  O_17
REMARK                            x       y       z     vdW  Elec       q    Type
REMARK                         _______ _______ _______ _____ _____    ______ ____
ROOT
ATOM      1  C   UNL     1       2.770   6.670  19.663  0.00  0.00    +0.000 A 
ATOM      2  C   UNL     1       3.421   6.779  18.389  0.00  0.00    +0.000 A 
ATOM      3  C   UNL     1       3.043   7.910  17.648  0.00  0.00    +0.000 A 
ATOM      4  N   UNL     1       2.214   8.884  18.061  0.00  0.00    +0.000 NA
ATOM      5  C   UNL     1       1.607   8.757  19.242  0.00  0.00    +0.000 A 
ATOM      6  C   UNL     1       0.741   9.785  19.597  0.00  0.00    +0.000 A 
ATOM      7  C   UNL     1       0.030   9.759  20.790  0.00  0.00    +0.000 A 
ATOM      8 CL   UNL     1      -1.000  11.061  21.228  0.00  0.00    +0.000 Cl
ATOM      9  C   UNL     1       0.139   8.665  21.622  0.00  0.00    +0.000 A 
ATOM     10  C   UNL     1       0.975   7.616  21.249  0.00  0.00    +0.000 A 
ATOM     11  C   UNL     1       1.796   7.643  20.087  0.00  0.00    +0.000 A 
ENDROOT
BRANCH   2  12
ATOM     12  C   UNL     1       4.434   5.792  17.857  0.00  0.00    +0.000 A 
ATOM     13  C   UNL     1       4.143   4.893  16.814  0.00  0.00    +0.000 A 
ATOM     14  C   UNL     1       5.105   4.015  16.290  0.00  0.00    +0.000 A 
ATOM     15  C   UNL     1       6.412   4.045  16.756  0.00  0.00    +0.000 A 
ATOM     16  C   UNL     1       6.743   4.915  17.785  0.00  0.00    +0.000 A 
ATOM     17  C   UNL     1       5.760   5.739  18.352  0.00  0.00    +0.000 A 
ENDBRANCH   2  12
BRANCH   3  18
ATOM     18  O   UNL     1       3.450   8.132  16.363  0.00  0.00    +0.000 OA
ATOM     19  H   UNL     1       2.752   8.646  15.927  0.00  0.00    +0.000 HD
ENDBRANCH   3  18
BRANCH   1  20
ATOM     20  O   UNL     1       3.111   5.550  20.393  0.00  0.00    +0.000 OA
BRANCH  20  21
ATOM     21  C   UNL     1       2.201   4.478  20.618  0.00  0.00    +0.000 C 
BRANCH  21  25
ATOM     22  C   UNL     1       2.983   1.614  18.157  0.00  0.00    +0.000 C 
ATOM     23  N   UNL     1       3.099   2.552  19.264  0.00  0.00    +0.000 N 
ATOM     24  C   UNL     1       4.312   2.527  20.063  0.00  0.00    +0.000 C 
ATOM     25  C   UNL     1       2.098   3.515  19.409  0.00  0.00    +0.000 C 
ATOM     26  O   UNL     1       1.136   3.553  18.638  0.00  0.00    +0.000 OA
ENDBRANCH  21  25
ENDBRANCH  20  21
ENDBRANCH   1  20
TORSDOF 5
ENDMDL
MODEL 6
REMARK VINA RESULT:      -6.7      0.762      1.009
REMARK  Name = 
REMARK  7 active torsions:
REMARK  status: ('A' for Active; 'I' for Inactive)
REMARK    1  A    between atoms: C_1  and  N_2
REMARK    2  A    between atoms: N_2  and  C_3
REMARK    3  A    between atoms: C_4  and  C_6
REMARK    4  A    between atoms: C_6  and  O_7
REMARK    5  A    between atoms: O_7  and  C_8
REMARK    6  A    between atoms: C_9  and  C_10
REMARK    7  A    between atoms: C_16  and  O_17
REMARK                            x       y       z     vdW  Elec       q    Type
REMARK                         _______ _______ _______ _____ _____    ______ ____
ROOT
ATOM      1  C   UNL     1       2.612   6.813  18.288  0.00  0.00    +0.000 A 
ATOM      2  C   UNL     1       2.508   5.710  19.200  0.00  0.00    +0.000 A 
ATOM      3  C   UNL     1       1.916   6.039  20.431  0.00  0.00    +0.000 A 
ATOM      4  N   UNL     1       1.397   7.233  20.763  0.00  0.00    +0.000 NA
ATOM      5  C   UNL     1       1.516   8.249  19.907  0.00  0.00    +0.000 A 
ATOM      6  C   UNL     1       0.985   9.464  20.324  0.00  0.00    +0.000 A 
ATOM      7  C   UNL     1       1.066  10.604  19.535  0.00  0.00    +0.000 A 
ATOM      8 CL   UNL     1       0.364  12.083  20.052  0.00  0.00    +0.000 Cl
ATOM      9  C   UNL     1       1.736  10.551  18.332  0.00  0.00    +0.000 A 
ATOM     10  C   UNL     1       2.304   9.345  17.931  0.00  0.00    +0.000 A 
ATOM     11  C   UNL     1       2.162   8.131  18.658  0.00  0.00    +0.000 A 
ENDROOT
BRANCH   2  12
ATOM     12  C   UNL     1       2.977   4.305  18.903  0.00  0.00    +0.000 A 
ATOM     13  C   UNL     1       4.085   3.721  19.545  0.00  0.00    +0.000 A 
ATOM     14  C   UNL     1       4.482   2.398  19.302  0.00  0.00    +0.000 A 
ATOM     15  C   UNL     1       3.748   1.589  18.444  0.00  0.00    +0.000 A 
ATOM     16  C   UNL     1       2.648   2.124  17.787  0.00  0.00    +0.000 A 
ATOM     17  C   UNL     1       2.299   3.469  17.982  0.00  0.00    +0.000 A 
ENDBRANCH   2  12
BRANCH   3  18
ATOM     18  O   UNL     1       1.838   5.166  21.479  0.00  0.00    +0.000 OA
ATOM     19  H   UNL     1       1.992   5.679  22.288  0.00  0.00    +0.000 HD
ENDBRANCH   3  18
BRANCH   1  20
ATOM     20  O   UNL     1       3.215   6.513  17.085  0.00  0.00    +0.000 OA
BRANCH  20  21
ATOM     21  C   UNL     1       4.494   7.026  16.722  0.00  0.00    +0.000 C 
BRANCH  21  25
ATOM     22  C   UNL     1       7.327   4.409  16.699  0.00  0.00    +0.000 C 
ATOM     23  N   UNL     1       6.201   5.228  16.273  0.00  0.00    +0.000 N 
ATOM     24  C   UNL     1       5.615   4.967  14.969  0.00  0.00    +0.000 C 
ATOM     25  C   UNL     1       5.659   6.123  17.198  0.00  0.00    +0.000 C 
ATOM     26  O   UNL     1       6.136   6.233  18.330  0.00  0.00    +0.000 OA
ENDBRANCH  21  25
ENDBRANCH  20  21
ENDBRANCH   1  20
TORSDOF 5
ENDMDL
MODEL 7
REMARK VINA RESULT:      -6.7      2.245      4.079
REMARK  Name = 
REMARK  7 active torsions:
REMARK  status: ('A' for Active; 'I' for Inactive)
REMARK    1  A    between atoms: C_1  and  N_2
REMARK    2  A    between atoms: N_2  and  C_3
REMARK    3  A    between atoms: C_4  and  C_6
REMARK    4  A    between atoms: C_6  and  O_7
REMARK    5  A    between atoms: O_7  and  C_8
REMARK    6  A    between atoms: C_9  and  C_10
REMARK    7  A    between atoms: C_16  and  O_17
REMARK                            x       y       z     vdW  Elec       q    Type
REMARK                         _______ _______ _______ _____ _____    ______ ____
ROOT
ATOM      1  C   UNL     1       1.976   6.931  20.285  0.00  0.00    +0.000 A 
ATOM      2  C   UNL     1       2.652   7.005  19.022  0.00  0.00    +0.000 A 
ATOM      3  C   UNL     1       2.412   8.194  18.314  0.00  0.00    +0.000 A 
ATOM      4  N   UNL     1       1.692   9.242  18.751  0.00  0.00    +0.000 NA
ATOM      5  C   UNL     1       1.059   9.147  19.921  0.00  0.00    +0.000 A 
ATOM      6  C   UNL     1       0.309  10.254  20.301  0.00  0.00    +0.000 A 
ATOM      7  C   UNL     1      -0.416  10.270  21.486  0.00  0.00    +0.000 A 
ATOM      8 CL   UNL     1      -1.300  11.665  21.955  0.00  0.00    +0.000 Cl
ATOM      9  C   UNL     1      -0.441   9.147  22.283  0.00  0.00    +0.000 A 
ATOM     10  C   UNL     1       0.278   8.022  21.884  0.00  0.00    +0.000 A 
ATOM     11  C   UNL     1       1.111   7.993  20.731  0.00  0.00    +0.000 A 
ENDROOT
BRANCH   2  12
ATOM     12  C   UNL     1       3.555   5.928  18.468  0.00  0.00    +0.000 A 
ATOM     13  C   UNL     1       3.180   5.101  17.393  0.00  0.00    +0.000 A 
ATOM     14  C   UNL     1       4.044   4.138  16.850  0.00  0.00    +0.000 A 
ATOM     15  C   UNL     1       5.340   4.005  17.329  0.00  0.00    +0.000 A 
ATOM     16  C   UNL     1       5.753   4.799  18.391  0.00  0.00    +0.000 A 
ATOM     17  C   UNL     1       4.860   5.711  18.974  0.00  0.00    +0.000 A 
ENDBRANCH   2  12
BRANCH   3  18
ATOM     18  O   UNL     1       2.858   8.408  17.040  0.00  0.00    +0.000 OA
ATOM     19  H   UNL     1       2.437   7.742  16.475  0.00  0.00    +0.000 HD
ENDBRANCH   3  18
BRANCH   1  20
ATOM     20  O   UNL     1       2.181   5.758  20.982  0.00  0.00    +0.000 OA
BRANCH  20  21
ATOM     21  C   UNL     1       1.419   4.580  20.736  0.00  0.00    +0.000 C 
BRANCH  21  25
ATOM     22  C   UNL     1       2.755   1.411  18.989  0.00  0.00    +0.000 C 
ATOM     23  N   UNL     1       1.903   2.539  19.339  0.00  0.00    +0.000 N 
ATOM     24  C   UNL     1       0.622   2.668  18.666  0.00  0.00    +0.000 C 
ATOM     25  C   UNL     1       2.304   3.353  20.401  0.00  0.00    +0.000 C 
ATOM     26  O   UNL     1       3.358   3.137  21.005  0.00  0.00    +0.000 OA
ENDBRANCH  21  25
ENDBRANCH  20  21
ENDBRANCH   1  20
TORSDOF 5
ENDMDL
MODEL 8
REMARK VINA RESULT:      -6.6      1.985      3.923
REMARK  Name = 
REMARK  7 active torsions:
REMARK  status: ('A' for Active; 'I' for Inactive)
REMARK    1  A    between atoms: C_1  and  N_2
REMARK    2  A    between atoms: N_2  and  C_3
REMARK    3  A    between atoms: C_4  and  C_6
REMARK    4  A    between atoms: C_6  and  O_7
REMARK    5  A    between atoms: O_7  and  C_8
REMARK    6  A    between atoms: C_9  and  C_10
REMARK    7  A    between atoms: C_16  and  O_17
REMARK                            x       y       z     vdW  Elec       q    Type
REMARK                         _______ _______ _______ _____ _____    ______ ____
ROOT
ATOM      1  C   UNL     1       2.798   6.682  19.666  0.00  0.00    +0.000 A 
ATOM      2  C   UNL     1       3.434   6.780  18.383  0.00  0.00    +0.000 A 
ATOM      3  C   UNL     1       3.033   7.895  17.629  0.00  0.00    +0.000 A 
ATOM      4  N   UNL     1       2.197   8.865  18.038  0.00  0.00    +0.000 NA
ATOM      5  C   UNL     1       1.606   8.748  19.227  0.00  0.00    +0.000 A 
ATOM      6  C   UNL     1       0.731   9.771  19.577  0.00  0.00    +0.000 A 
ATOM      7  C   UNL     1       0.033   9.754  20.778  0.00  0.00    +0.000 A 
ATOM      8 CL   UNL     1      -1.007  11.049  21.209  0.00  0.00    +0.000 Cl
ATOM      9  C   UNL     1       0.165   8.675  21.625  0.00  0.00    +0.000 A 
ATOM     10  C   UNL     1       1.010   7.630  21.258  0.00  0.00    +0.000 A 
ATOM     11  C   UNL     1       1.817   7.649  20.087  0.00  0.00    +0.000 A 
ENDROOT
BRANCH   2  12
ATOM     12  C   UNL     1       4.453   5.797  17.854  0.00  0.00    +0.000 A 
ATOM     13  C   UNL     1       4.147   4.844  16.865  0.00  0.00    +0.000 A 
ATOM     14  C   UNL     1       5.111   3.970  16.341  0.00  0.00    +0.000 A 
ATOM     15  C   UNL     1       6.435   4.057  16.751  0.00  0.00    +0.000 A 
ATOM     16  C   UNL     1       6.782   4.981  17.726  0.00  0.00    +0.000 A 
ATOM     17  C   UNL     1       5.799   5.804  18.296  0.00  0.00    +0.000 A 
ENDBRANCH   2  12
BRANCH   3  18
ATOM     18  O   UNL     1       3.424   8.103  16.337  0.00  0.00    +0.000 OA
ATOM     19  H   UNL     1       2.785   8.716  15.942  0.00  0.00    +0.000 HD
ENDBRANCH   3  18
BRANCH   1  20
ATOM     20  O   UNL     1       3.162   5.578  20.408  0.00  0.00    +0.000 OA
BRANCH  20  21
ATOM     21  C   UNL     1       2.433   4.355  20.366  0.00  0.00    +0.000 C 
BRANCH  21  25
ATOM     22  C   UNL     1       3.465   1.235  18.347  0.00  0.00    +0.000 C 
ATOM     23  N   UNL     1       2.665   2.320  18.899  0.00  0.00    +0.000 N 
ATOM     24  C   UNL     1       1.250   2.364  18.574  0.00  0.00    +0.000 C 
ATOM     25  C   UNL     1       3.274   3.174  19.821  0.00  0.00    +0.000 C 
ATOM     26  O   UNL     1       4.457   3.028  20.137  0.00  0.00    +0.000 OA
ENDBRANCH  21  25
ENDBRANCH  20  21
ENDBRANCH   1  20
TORSDOF 5
ENDMDL
MODEL 9
REMARK VINA RESULT:      -6.6      0.886      1.399
REMARK  Name = 
REMARK  7 active torsions:
REMARK  status: ('A' for Active; 'I' for Inactive)
REMARK    1  A    between atoms: C_1  and  N_2
REMARK    2  A    between atoms: N_2  and  C_3
REMARK    3  A    between atoms: C_4  and  C_6
REMARK    4  A    between atoms: C_6  and  O_7
REMARK    5  A    between atoms: O_7  and  C_8
REMARK    6  A    between atoms: C_9  and  C_10
REMARK    7  A    between atoms: C_16  and  O_17
REMARK                            x       y       z     vdW  Elec       q    Type
REMARK                         _______ _______ _______ _____ _____    ______ ____
ROOT
ATOM      1  C   UNL     1       2.671   6.831  18.330  0.00  0.00    +0.000 A 
ATOM      2  C   UNL     1       2.424   5.727  19.212  0.00  0.00    +0.000 A 
ATOM      3  C   UNL     1       1.696   6.066  20.364  0.00  0.00    +0.000 A 
ATOM      4  N   UNL     1       1.178   7.275  20.643  0.00  0.00    +0.000 NA
ATOM      5  C   UNL     1       1.432   8.291  19.819  0.00  0.00    +0.000 A 
ATOM      6  C   UNL     1       0.892   9.520  20.180  0.00  0.00    +0.000 A 
ATOM      7  C   UNL     1       1.104  10.662  19.418  0.00  0.00    +0.000 A 
ATOM      8 CL   UNL     1       0.390  12.159  19.860  0.00  0.00    +0.000 Cl
ATOM      9  C   UNL     1       1.914  10.595  18.305  0.00  0.00    +0.000 A 
ATOM     10  C   UNL     1       2.489   9.373  17.963  0.00  0.00    +0.000 A 
ATOM     11  C   UNL     1       2.221   8.160  18.656  0.00  0.00    +0.000 A 
ENDROOT
BRANCH   2  12
ATOM     12  C   UNL     1       2.881   4.309  18.959  0.00  0.00    +0.000 A 
ATOM     13  C   UNL     1       2.216   3.442  18.072  0.00  0.00    +0.000 A 
ATOM     14  C   UNL     1       2.677   2.144  17.804  0.00  0.00    +0.000 A 
ATOM     15  C   UNL     1       3.857   1.685  18.373  0.00  0.00    +0.000 A 
ATOM     16  C   UNL     1       4.546   2.506  19.256  0.00  0.00    +0.000 A 
ATOM     17  C   UNL     1       4.041   3.775  19.574  0.00  0.00    +0.000 A 
ENDBRANCH   2  12
BRANCH   3  18
ATOM     18  O   UNL     1       1.464   5.190  21.387  0.00  0.00    +0.000 OA
ATOM     19  H   UNL     1       2.314   4.779  21.607  0.00  0.00    +0.000 HD
ENDBRANCH   3  18
BRANCH   1  20
ATOM     20  O   UNL     1       3.408   6.519  17.206  0.00  0.00    +0.000 OA
BRANCH  20  21
ATOM     21  C   UNL     1       4.830   6.590  17.180  0.00  0.00    +0.000 C 
BRANCH  21  25
ATOM     22  C   UNL     1       6.807   4.799  14.396  0.00  0.00    +0.000 C 
ATOM     23  N   UNL     1       6.284   5.154  15.707  0.00  0.00    +0.000 N 
ATOM     24  C   UNL     1       6.798   4.445  16.867  0.00  0.00    +0.000 C 
ATOM     25  C   UNL     1       5.422   6.249  15.790  0.00  0.00    +0.000 C 
ATOM     26  O   UNL     1       5.096   6.879  14.781  0.00  0.00    +0.000 OA
ENDBRANCH  21  25
ENDBRANCH  20  21
ENDBRANCH   1  20
TORSDOF 5
ENDMDL
