MODEL 1
REMARK VINA RESULT:      -8.5      0.000      0.000
REMARK  Name = 
REMARK  7 active torsions:
REMARK  status: ('A' for Active; 'I' for Inactive)
REMARK    1  A    between atoms: N_1  and  N_2
REMARK    2  A    between atoms: C_3  and  C_5
REMARK    3  A    between atoms: C_5  and  C_6
REMARK    4  A    between atoms: C_5  and  N_13
REMARK    5  A    between atoms: C_6  and  C_7
REMARK    6  A    between atoms: C_14  and  C_16
REMARK    7  A    between atoms: C_21  and  N_22
REMARK                            x       y       z     vdW  Elec       q    Type
REMARK                         _______ _______ _______ _____ _____    ______ ____
ROOT
ATOM      1  C   UNL     1       5.642   4.293  17.777  0.00  0.00    +0.000 C 
ENDROOT
BRANCH   1   3
ATOM      2  N   UNL     1       6.930   5.258  19.665  0.00  0.00    +0.000 N 
ATOM      3  C   UNL     1       7.000   4.646  18.417  0.00  0.00    +0.000 C 
ATOM      4  O   UNL     1       8.080   4.382  17.877  0.00  0.00    +0.000 OA
ATOM      5  H   UNL     1       6.052   5.306  20.176  0.00  0.00    +0.000 HD
BRANCH   2   6
ATOM      6  N   UNL     1       8.127   5.573  20.348  0.00  0.00    +0.000 NA
ATOM      7  H   UNL     1       7.902   6.182  21.138  0.00  0.00    +0.000 HD
ATOM      8  H   UNL     1       8.680   6.174  19.717  0.00  0.00    +0.000 HD
ENDBRANCH   2   6
ENDBRANCH   1   3
BRANCH   1   9
ATOM      9  N   UNL     1       5.863   4.001  16.361  0.00  0.00    +0.000 N 
ATOM     10  C   UNL     1       6.076   4.969  15.412  0.00  0.00    +0.000 C 
ATOM     11  O   UNL     1       6.143   6.165  15.679  0.00  0.00    +0.000 OA
ATOM     12  H   UNL     1       5.920   3.017  16.088  0.00  0.00    +0.000 HD
BRANCH  10  13
ATOM     13  C   UNL     1       6.253   4.503  14.011  0.00  0.00    +0.000 A 
ATOM     14  C   UNL     1       5.236   3.684  13.489  0.00  0.00    +0.000 A 
ATOM     15  C   UNL     1       5.340   3.160  12.202  0.00  0.00    +0.000 A 
ATOM     16  C   UNL     1       6.459   3.453  11.429  0.00  0.00    +0.000 A 
ATOM     17  C   UNL     1       7.465   4.277  11.939  0.00  0.00    +0.000 A 
ATOM     18  C   UNL     1       7.405   4.781  13.248  0.00  0.00    +0.000 A 
BRANCH  18  19
ATOM     19  N   UNL     1       8.396   5.695  13.651  0.00  0.00    +0.000 N 
ATOM     20  H   UNL     1       9.343   5.332  13.601  0.00  0.00    +0.000 HD
ATOM     21  H   UNL     1       8.210   6.134  14.551  0.00  0.00    +0.000 HD
ENDBRANCH  18  19
ENDBRANCH  10  13
ENDBRANCH   1   9
BRANCH   1  22
ATOM     22  C   UNL     1       4.572   5.370  18.035  0.00  0.00    +0.000 C 
BRANCH  22  23
ATOM     23  C   UNL     1       3.311   4.870  18.699  0.00  0.00    +0.000 A 
ATOM     24  C   UNL     1       2.440   4.019  18.007  0.00  0.00    +0.000 A 
ATOM     25  C   UNL     1       1.281   3.541  18.619  0.00  0.00    +0.000 A 
ATOM     26  C   UNL     1       0.982   3.911  19.928  0.00  0.00    +0.000 A 
ATOM     27  C   UNL     1       1.836   4.764  20.623  0.00  0.00    +0.000 A 
ATOM     28  C   UNL     1       2.995   5.241  20.012  0.00  0.00    +0.000 A 
ENDBRANCH  22  23
ENDBRANCH   1  22
TORSDOF 7
ENDMDL
MODEL 2
REMARK VINA RESULT:      -8.4      0.104      1.033
REMARK  Name = 
REMARK  7 active torsions:
REMARK  status: ('A' for Active; 'I' for Inactive)
REMARK    1  A    between atoms: N_1  and  N_2
REMARK    2  A    between atoms: C_3  and  C_5
REMARK    3  A    between atoms: C_5  and  C_6
REMARK    4  A    between atoms: C_5  and  N_13
REMARK    5  A    between atoms: C_6  and  C_7
REMARK    6  A    between atoms: C_14  and  C_16
REMARK    7  A    between atoms: C_21  and  N_22
REMARK                            x       y       z     vdW  Elec       q    Type
REMARK                         _______ _______ _______ _____ _____    ______ ____
ROOT
ATOM      1  C   UNL     1       5.555   4.270  17.788  0.00  0.00    +0.000 C 
ENDROOT
BRANCH   1   3
ATOM      2  N   UNL     1       6.812   5.309  19.656  0.00  0.00    +0.000 N 
ATOM      3  C   UNL     1       6.902   4.632  18.444  0.00  0.00    +0.000 C 
ATOM      4  O   UNL     1       7.990   4.323  17.945  0.00  0.00    +0.000 OA
ATOM      5  H   UNL     1       5.923   5.398  20.141  0.00  0.00    +0.000 HD
BRANCH   2   6
ATOM      6  N   UNL     1       7.998   5.639  20.352  0.00  0.00    +0.000 NA
ATOM      7  H   UNL     1       8.410   6.470  19.920  0.00  0.00    +0.000 HD
ATOM      8  H   UNL     1       8.679   4.890  20.153  0.00  0.00    +0.000 HD
ENDBRANCH   2   6
ENDBRANCH   1   3
BRANCH   1   9
ATOM      9  N   UNL     1       5.792   3.990  16.372  0.00  0.00    +0.000 N 
ATOM     10  C   UNL     1       6.092   4.959  15.448  0.00  0.00    +0.000 C 
ATOM     11  O   UNL     1       6.229   6.144  15.741  0.00  0.00    +0.000 OA
ATOM     12  H   UNL     1       5.792   3.010  16.081  0.00  0.00    +0.000 HD
BRANCH  10  13
ATOM     13  C   UNL     1       6.275   4.509  14.043  0.00  0.00    +0.000 A 
ATOM     14  C   UNL     1       5.270   3.678  13.515  0.00  0.00    +0.000 A 
ATOM     15  C   UNL     1       5.380   3.167  12.223  0.00  0.00    +0.000 A 
ATOM     16  C   UNL     1       6.493   3.485  11.451  0.00  0.00    +0.000 A 
ATOM     17  C   UNL     1       7.487   4.322  11.967  0.00  0.00    +0.000 A 
ATOM     18  C   UNL     1       7.421   4.813  13.280  0.00  0.00    +0.000 A 
BRANCH  18  19
ATOM     19  N   UNL     1       8.397   5.739  13.690  0.00  0.00    +0.000 N 
ATOM     20  H   UNL     1       8.711   5.616  14.648  0.00  0.00    +0.000 HD
ATOM     21  H   UNL     1       8.152   6.708  13.498  0.00  0.00    +0.000 HD
ENDBRANCH  18  19
ENDBRANCH  10  13
ENDBRANCH   1   9
BRANCH   1  22
ATOM     22  C   UNL     1       4.470   5.334  18.042  0.00  0.00    +0.000 C 
BRANCH  22  23
ATOM     23  C   UNL     1       3.234   4.828  18.748  0.00  0.00    +0.000 A 
ATOM     24  C   UNL     1       3.005   5.157  20.090  0.00  0.00    +0.000 A 
ATOM     25  C   UNL     1       1.859   4.706  20.745  0.00  0.00    +0.000 A 
ATOM     26  C   UNL     1       0.932   3.919  20.063  0.00  0.00    +0.000 A 
ATOM     27  C   UNL     1       1.154   3.579  18.731  0.00  0.00    +0.000 A 
ATOM     28  C   UNL     1       2.299   4.031  18.076  0.00  0.00    +0.000 A 
ENDBRANCH  22  23
ENDBRANCH   1  22
TORSDOF 7
ENDMDL
MODEL 3
REMARK VINA RESULT:      -8.2      2.001      6.879
REMARK  Name = 
REMARK  7 active torsions:
REMARK  status: ('A' for Active; 'I' for Inactive)
REMARK    1  A    between atoms: N_1  and  N_2
REMARK    2  A    between atoms: C_3  and  C_5
REMARK    3  A    between atoms: C_5  and  C_6
REMARK    4  A    between atoms: C_5  and  N_13
REMARK    5  A    between atoms: C_6  and  C_7
REMARK    6  A    between atoms: C_14  and  C_16
REMARK    7  A    between atoms: C_21  and  N_22
REMARK                            x       y       z     vdW  Elec       q    Type
REMARK                         _______ _______ _______ _____ _____    ______ ____
ROOT
ATOM      1  C   UNL     1       5.076   5.303  16.398  0.00  0.00    +0.000 C 
ENDROOT
BRANCH   1   3
ATOM      2  N   UNL     1       7.018   6.766  16.888  0.00  0.00    +0.000 N 
ATOM      3  C   UNL     1       5.631   6.659  16.878  0.00  0.00    +0.000 C 
ATOM      4  O   UNL     1       4.899   7.599  17.207  0.00  0.00    +0.000 OA
ATOM      5  H   UNL     1       7.602   6.058  16.450  0.00  0.00    +0.000 HD
BRANCH   2   6
ATOM      6  N   UNL     1       7.614   7.991  17.269  0.00  0.00    +0.000 NA
ATOM      7  H   UNL     1       8.020   7.881  18.200  0.00  0.00    +0.000 HD
ATOM      8  H   UNL     1       6.845   8.665  17.409  0.00  0.00    +0.000 HD
ENDBRANCH   2   6
ENDBRANCH   1   3
BRANCH   1   9
ATOM      9  N   UNL     1       4.191   4.774  17.435  0.00  0.00    +0.000 N 
ATOM     10  C   UNL     1       4.625   4.394  18.681  0.00  0.00    +0.000 C 
ATOM     11  O   UNL     1       5.792   4.506  19.045  0.00  0.00    +0.000 OA
ATOM     12  H   UNL     1       3.190   4.750  17.230  0.00  0.00    +0.000 HD
BRANCH  10  13
ATOM     13  C   UNL     1       3.600   3.848  19.608  0.00  0.00    +0.000 A 
ATOM     14  C   UNL     1       2.402   4.579  19.719  0.00  0.00    +0.000 A 
ATOM     15  C   UNL     1       1.403   4.172  20.601  0.00  0.00    +0.000 A 
ATOM     16  C   UNL     1       1.593   3.031  21.375  0.00  0.00    +0.000 A 
ATOM     17  C   UNL     1       2.775   2.295  21.258  0.00  0.00    +0.000 A 
ATOM     18  C   UNL     1       3.815   2.709  20.410  0.00  0.00    +0.000 A 
BRANCH  18  19
ATOM     19  N   UNL     1       4.924   1.858  20.258  0.00  0.00    +0.000 N 
ATOM     20  H   UNL     1       5.247   1.437  21.123  0.00  0.00    +0.000 HD
ATOM     21  H   UNL     1       5.692   2.270  19.732  0.00  0.00    +0.000 HD
ENDBRANCH  18  19
ENDBRANCH  10  13
ENDBRANCH   1   9
BRANCH   1  22
ATOM     22  C   UNL     1       6.190   4.329  15.970  0.00  0.00    +0.000 C 
BRANCH  22  23
ATOM     23  C   UNL     1       6.463   4.285  14.484  0.00  0.00    +0.000 A 
ATOM     24  C   UNL     1       7.472   5.083  13.930  0.00  0.00    +0.000 A 
ATOM     25  C   UNL     1       7.740   5.037  12.562  0.00  0.00    +0.000 A 
ATOM     26  C   UNL     1       6.998   4.194  11.736  0.00  0.00    +0.000 A 
ATOM     27  C   UNL     1       5.987   3.404  12.275  0.00  0.00    +0.000 A 
ATOM     28  C   UNL     1       5.720   3.448  13.643  0.00  0.00    +0.000 A 
ENDBRANCH  22  23
ENDBRANCH   1  22
TORSDOF 7
ENDMDL
MODEL 4
REMARK VINA RESULT:      -8.1      2.842      5.651
REMARK  Name = 
REMARK  7 active torsions:
REMARK  status: ('A' for Active; 'I' for Inactive)
REMARK    1  A    between atoms: N_1  and  N_2
REMARK    2  A    between atoms: C_3  and  C_5
REMARK    3  A    between atoms: C_5  and  C_6
REMARK    4  A    between atoms: C_5  and  N_13
REMARK    5  A    between atoms: C_6  and  C_7
REMARK    6  A    between atoms: C_14  and  C_16
REMARK    7  A    between atoms: C_21  and  N_22
REMARK                            x       y       z     vdW  Elec       q    Type
REMARK                         _______ _______ _______ _____ _____    ______ ____
ROOT
ATOM      1  C   UNL     1       4.035   3.887  16.997  0.00  0.00    +0.000 C 
ENDROOT
BRANCH   1   3
ATOM      2  N   UNL     1       6.502   3.969  17.238  0.00  0.00    +0.000 N 
ATOM      3  C   UNL     1       5.408   4.336  16.459  0.00  0.00    +0.000 C 
ATOM      4  O   UNL     1       5.538   4.955  15.397  0.00  0.00    +0.000 OA
ATOM      5  H   UNL     1       6.401   3.311  18.007  0.00  0.00    +0.000 HD
BRANCH   2   6
ATOM      6  N   UNL     1       7.804   4.297  16.796  0.00  0.00    +0.000 NA
ATOM      7  H   UNL     1       7.954   3.875  15.877  0.00  0.00    +0.000 HD
ATOM      8  H   UNL     1       8.463   3.796  17.412  0.00  0.00    +0.000 HD
ENDBRANCH   2   6
ENDBRANCH   1   3
BRANCH   1   9
ATOM      9  N   UNL     1       3.285   5.078  17.396  0.00  0.00    +0.000 N 
ATOM     10  C   UNL     1       3.720   5.963  18.350  0.00  0.00    +0.000 C 
ATOM     11  O   UNL     1       4.801   5.853  18.921  0.00  0.00    +0.000 OA
ATOM     12  H   UNL     1       2.423   5.282  16.886  0.00  0.00    +0.000 HD
BRANCH  10  13
ATOM     13  C   UNL     1       2.823   7.107  18.659  0.00  0.00    +0.000 A 
ATOM     14  C   UNL     1       2.691   8.089  17.660  0.00  0.00    +0.000 A 
ATOM     15  C   UNL     1       1.911   9.222  17.880  0.00  0.00    +0.000 A 
ATOM     16  C   UNL     1       1.255   9.379  19.096  0.00  0.00    +0.000 A 
ATOM     17  C   UNL     1       1.371   8.400  20.086  0.00  0.00    +0.000 A 
ATOM     18  C   UNL     1       2.187   7.271  19.906  0.00  0.00    +0.000 A 
BRANCH  18  19
ATOM     19  N   UNL     1       2.165   6.274  20.898  0.00  0.00    +0.000 N 
ATOM     20  H   UNL     1       3.003   6.235  21.469  0.00  0.00    +0.000 HD
ATOM     21  H   UNL     1       1.904   5.353  20.551  0.00  0.00    +0.000 HD
ENDBRANCH  18  19
ENDBRANCH  10  13
ENDBRANCH   1   9
BRANCH   1  22
ATOM     22  C   UNL     1       4.154   2.822  18.104  0.00  0.00    +0.000 C 
BRANCH  22  23
ATOM     23  C   UNL     1       3.033   2.827  19.116  0.00  0.00    +0.000 A 
ATOM     24  C   UNL     1       3.322   2.812  20.487  0.00  0.00    +0.000 A 
ATOM     25  C   UNL     1       2.292   2.830  21.428  0.00  0.00    +0.000 A 
ATOM     26  C   UNL     1       0.964   2.862  21.006  0.00  0.00    +0.000 A 
ATOM     27  C   UNL     1       0.666   2.868  19.646  0.00  0.00    +0.000 A 
ATOM     28  C   UNL     1       1.695   2.851  18.705  0.00  0.00    +0.000 A 
ENDBRANCH  22  23
ENDBRANCH   1  22
TORSDOF 7
ENDMDL
MODEL 5
REMARK VINA RESULT:      -8.0      3.330      4.630
REMARK  Name = 
REMARK  7 active torsions:
REMARK  status: ('A' for Active; 'I' for Inactive)
REMARK    1  A    between atoms: N_1  and  N_2
REMARK    2  A    between atoms: C_3  and  C_5
REMARK    3  A    between atoms: C_5  and  C_6
REMARK    4  A    between atoms: C_5  and  N_13
REMARK    5  A    between atoms: C_6  and  C_7
REMARK    6  A    between atoms: C_14  and  C_16
REMARK    7  A    between atoms: C_21  and  N_22
REMARK                            x       y       z     vdW  Elec       q    Type
REMARK                         _______ _______ _______ _____ _____    ______ ____
ROOT
ATOM      1  C   UNL     1       3.765   3.125  19.244  0.00  0.00    +0.000 C 
ENDROOT
BRANCH   1   3
ATOM      2  N   UNL     1       5.241   1.619  20.550  0.00  0.00    +0.000 N 
ATOM      3  C   UNL     1       4.054   2.345  20.543  0.00  0.00    +0.000 C 
ATOM      4  O   UNL     1       3.300   2.379  21.521  0.00  0.00    +0.000 OA
ATOM      5  H   UNL     1       5.934   1.741  19.817  0.00  0.00    +0.000 HD
BRANCH   2   6
ATOM      6  N   UNL     1       5.610   0.912  21.718  0.00  0.00    +0.000 NA
ATOM      7  H   UNL     1       4.795   0.851  22.334  0.00  0.00    +0.000 HD
ATOM      8  H   UNL     1       6.269   1.515  22.235  0.00  0.00    +0.000 HD
ENDBRANCH   2   6
ENDBRANCH   1   3
BRANCH   1   9
ATOM      9  N   UNL     1       4.761   4.189  19.115  0.00  0.00    +0.000 N 
ATOM     10  C   UNL     1       5.358   4.528  17.927  0.00  0.00    +0.000 C 
ATOM     11  O   UNL     1       5.073   3.994  16.859  0.00  0.00    +0.000 OA
ATOM     12  H   UNL     1       4.968   4.741  19.950  0.00  0.00    +0.000 HD
BRANCH  10  13
ATOM     13  C   UNL     1       6.372   5.614  17.975  0.00  0.00    +0.000 A 
ATOM     14  C   UNL     1       7.312   5.549  19.020  0.00  0.00    +0.000 A 
ATOM     15  C   UNL     1       8.269   6.549  19.175  0.00  0.00    +0.000 A 
ATOM     16  C   UNL     1       8.296   7.618  18.285  0.00  0.00    +0.000 A 
ATOM     17  C   UNL     1       7.373   7.680  17.237  0.00  0.00    +0.000 A 
ATOM     18  C   UNL     1       6.371   6.708  17.087  0.00  0.00    +0.000 A 
BRANCH  18  19
ATOM     19  N   UNL     1       5.552   6.774  15.945  0.00  0.00    +0.000 N 
ATOM     20  H   UNL     1       5.150   5.883  15.670  0.00  0.00    +0.000 HD
ATOM     21  H   UNL     1       5.983   7.250  15.155  0.00  0.00    +0.000 HD
ENDBRANCH  18  19
ENDBRANCH  10  13
ENDBRANCH   1   9
BRANCH   1  22
ATOM     22  C   UNL     1       2.308   3.618  19.164  0.00  0.00    +0.000 C 
BRANCH  22  23
ATOM     23  C   UNL     1       2.133   5.112  19.295  0.00  0.00    +0.000 A 
ATOM     24  C   UNL     1       1.817   5.677  20.538  0.00  0.00    +0.000 A 
ATOM     25  C   UNL     1       1.668   7.058  20.670  0.00  0.00    +0.000 A 
ATOM     26  C   UNL     1       1.831   7.885  19.561  0.00  0.00    +0.000 A 
ATOM     27  C   UNL     1       2.136   7.334  18.319  0.00  0.00    +0.000 A 
ATOM     28  C   UNL     1       2.287   5.954  18.187  0.00  0.00    +0.000 A 
ENDBRANCH  22  23
ENDBRANCH   1  22
TORSDOF 7
ENDMDL
MODEL 6
REMARK VINA RESULT:      -8.0      2.844      5.592
REMARK  Name = 
REMARK  7 active torsions:
REMARK  status: ('A' for Active; 'I' for Inactive)
REMARK    1  A    between atoms: N_1  and  N_2
REMARK    2  A    between atoms: C_3  and  C_5
REMARK    3  A    between atoms: C_5  and  C_6
REMARK    4  A    between atoms: C_5  and  N_13
REMARK    5  A    between atoms: C_6  and  C_7
REMARK    6  A    between atoms: C_14  and  C_16
REMARK    7  A    between atoms: C_21  and  N_22
REMARK                            x       y       z     vdW  Elec       q    Type
REMARK                         _______ _______ _______ _____ _____    ______ ____
ROOT
ATOM      1  C   UNL     1       3.994   3.875  16.994  0.00  0.00    +0.000 C 
ENDROOT
BRANCH   1   3
ATOM      2  N   UNL     1       6.462   4.004  17.200  0.00  0.00    +0.000 N 
ATOM      3  C   UNL     1       5.354   4.325  16.423  0.00  0.00    +0.000 C 
ATOM      4  O   UNL     1       5.461   4.908  15.338  0.00  0.00    +0.000 OA
ATOM      5  H   UNL     1       6.381   3.373  17.993  0.00  0.00    +0.000 HD
BRANCH   2   6
ATOM      6  N   UNL     1       7.754   4.336  16.730  0.00  0.00    +0.000 NA
ATOM      7  H   UNL     1       7.739   5.299  16.387  0.00  0.00    +0.000 HD
ATOM      8  H   UNL     1       7.917   3.770  15.883  0.00  0.00    +0.000 HD
ENDBRANCH   2   6
ENDBRANCH   1   3
BRANCH   1   9
ATOM      9  N   UNL     1       3.250   5.066  17.403  0.00  0.00    +0.000 N 
ATOM     10  C   UNL     1       3.709   5.965  18.332  0.00  0.00    +0.000 C 
ATOM     11  O   UNL     1       4.809   5.868  18.870  0.00  0.00    +0.000 OA
ATOM     12  H   UNL     1       2.370   5.259  16.919  0.00  0.00    +0.000 HD
BRANCH  10  13
ATOM     13  C   UNL     1       2.815   7.107  18.657  0.00  0.00    +0.000 A 
ATOM     14  C   UNL     1       2.675   8.096  17.666  0.00  0.00    +0.000 A 
ATOM     15  C   UNL     1       1.896   9.228  17.900  0.00  0.00    +0.000 A 
ATOM     16  C   UNL     1       1.251   9.377  19.124  0.00  0.00    +0.000 A 
ATOM     17  C   UNL     1       1.376   8.390  20.106  0.00  0.00    +0.000 A 
ATOM     18  C   UNL     1       2.190   7.263  19.911  0.00  0.00    +0.000 A 
BRANCH  18  19
ATOM     19  N   UNL     1       2.176   6.259  20.896  0.00  0.00    +0.000 N 
ATOM     20  H   UNL     1       1.248   5.923  21.134  0.00  0.00    +0.000 HD
ATOM     21  H   UNL     1       2.717   6.489  21.728  0.00  0.00    +0.000 HD
ENDBRANCH  18  19
ENDBRANCH  10  13
ENDBRANCH   1   9
BRANCH   1  22
ATOM     22  C   UNL     1       4.142   2.817  18.104  0.00  0.00    +0.000 C 
BRANCH  22  23
ATOM     23  C   UNL     1       3.056   2.840  19.154  0.00  0.00    +0.000 A 
ATOM     24  C   UNL     1       1.709   2.884  18.774  0.00  0.00    +0.000 A 
ATOM     25  C   UNL     1       0.701   2.891  19.738  0.00  0.00    +0.000 A 
ATOM     26  C   UNL     1       1.031   2.854  21.091  0.00  0.00    +0.000 A 
ATOM     27  C   UNL     1       2.368   2.818  21.481  0.00  0.00    +0.000 A 
ATOM     28  C   UNL     1       3.376   2.811  20.517  0.00  0.00    +0.000 A 
ENDBRANCH  22  23
ENDBRANCH   1  22
TORSDOF 7
ENDMDL
MODEL 7
REMARK VINA RESULT:      -8.0      2.102      6.909
REMARK  Name = 
REMARK  7 active torsions:
REMARK  status: ('A' for Active; 'I' for Inactive)
REMARK    1  A    between atoms: N_1  and  N_2
REMARK    2  A    between atoms: C_3  and  C_5
REMARK    3  A    between atoms: C_5  and  C_6
REMARK    4  A    between atoms: C_5  and  N_13
REMARK    5  A    between atoms: C_6  and  C_7
REMARK    6  A    between atoms: C_14  and  C_16
REMARK    7  A    between atoms: C_21  and  N_22
REMARK                            x       y       z     vdW  Elec       q    Type
REMARK                         _______ _______ _______ _____ _____    ______ ____
ROOT
ATOM      1  C   UNL     1       5.059   5.018  16.433  0.00  0.00    +0.000 C 
ENDROOT
BRANCH   1   3
ATOM      2  N   UNL     1       6.804   6.682  17.012  0.00  0.00    +0.000 N 
ATOM      3  C   UNL     1       5.488   6.489  16.604  0.00  0.00    +0.000 C 
ATOM      4  O   UNL     1       4.728   7.436  16.371  0.00  0.00    +0.000 OA
ATOM      5  H   UNL     1       7.467   5.911  17.026  0.00  0.00    +0.000 HD
BRANCH   2   6
ATOM      6  N   UNL     1       7.298   8.000  17.147  0.00  0.00    +0.000 NA
ATOM      7  H   UNL     1       7.136   8.502  16.271  0.00  0.00    +0.000 HD
ATOM      8  H   UNL     1       8.325   7.929  17.208  0.00  0.00    +0.000 HD
ENDBRANCH   2   6
ENDBRANCH   1   3
BRANCH   1   9
ATOM      9  N   UNL     1       4.438   4.572  17.681  0.00  0.00    +0.000 N 
ATOM     10  C   UNL     1       3.356   3.729  17.730  0.00  0.00    +0.000 C 
ATOM     11  O   UNL     1       2.842   3.241  16.727  0.00  0.00    +0.000 OA
ATOM     12  H   UNL     1       4.881   4.862  18.555  0.00  0.00    +0.000 HD
BRANCH  10  13
ATOM     13  C   UNL     1       2.828   3.398  19.079  0.00  0.00    +0.000 A 
ATOM     14  C   UNL     1       1.537   3.868  19.380  0.00  0.00    +0.000 A 
ATOM     15  C   UNL     1       0.979   3.649  20.639  0.00  0.00    +0.000 A 
ATOM     16  C   UNL     1       1.706   2.956  21.601  0.00  0.00    +0.000 A 
ATOM     17  C   UNL     1       2.984   2.475  21.302  0.00  0.00    +0.000 A 
ATOM     18  C   UNL     1       3.585   2.722  20.058  0.00  0.00    +0.000 A 
BRANCH  18  19
ATOM     19  N   UNL     1       4.823   2.110  19.788  0.00  0.00    +0.000 N 
ATOM     20  H   UNL     1       5.534   2.281  20.493  0.00  0.00    +0.000 HD
ATOM     21  H   UNL     1       5.175   2.288  18.850  0.00  0.00    +0.000 HD
ENDBRANCH  18  19
ENDBRANCH  10  13
ENDBRANCH   1   9
BRANCH   1  22
ATOM     22  C   UNL     1       6.213   4.119  15.952  0.00  0.00    +0.000 C 
BRANCH  22  23
ATOM     23  C   UNL     1       6.492   4.179  14.469  0.00  0.00    +0.000 A 
ATOM     24  C   UNL     1       7.489   5.030  13.974  0.00  0.00    +0.000 A 
ATOM     25  C   UNL     1       7.762   5.080  12.607  0.00  0.00    +0.000 A 
ATOM     26  C   UNL     1       7.040   4.280  11.723  0.00  0.00    +0.000 A 
ATOM     27  C   UNL     1       6.042   3.437  12.203  0.00  0.00    +0.000 A 
ATOM     28  C   UNL     1       5.769   3.386  13.570  0.00  0.00    +0.000 A 
ENDBRANCH  22  23
ENDBRANCH   1  22
TORSDOF 7
ENDMDL
MODEL 8
REMARK VINA RESULT:      -8.0      2.130      6.747
REMARK  Name = 
REMARK  7 active torsions:
REMARK  status: ('A' for Active; 'I' for Inactive)
REMARK    1  A    between atoms: N_1  and  N_2
REMARK    2  A    between atoms: C_3  and  C_5
REMARK    3  A    between atoms: C_5  and  C_6
REMARK    4  A    between atoms: C_5  and  N_13
REMARK    5  A    between atoms: C_6  and  C_7
REMARK    6  A    between atoms: C_14  and  C_16
REMARK    7  A    between atoms: C_21  and  N_22
REMARK                            x       y       z     vdW  Elec       q    Type
REMARK                         _______ _______ _______ _____ _____    ______ ____
ROOT
ATOM      1  C   UNL     1       5.359   5.385  16.721  0.00  0.00    +0.000 C 
ENDROOT
BRANCH   1   3
ATOM      2  N   UNL     1       7.218   6.986  17.084  0.00  0.00    +0.000 N 
ATOM      3  C   UNL     1       5.838   6.816  17.039  0.00  0.00    +0.000 C 
ATOM      4  O   UNL     1       5.056   7.756  17.217  0.00  0.00    +0.000 OA
ATOM      5  H   UNL     1       7.847   6.255  16.762  0.00  0.00    +0.000 HD
BRANCH   2   6
ATOM      6  N   UNL     1       7.747   8.276  17.321  0.00  0.00    +0.000 NA
ATOM      7  H   UNL     1       7.119   8.968  16.907  0.00  0.00    +0.000 HD
ATOM      8  H   UNL     1       8.609   8.352  16.760  0.00  0.00    +0.000 HD
ENDBRANCH   2   6
ENDBRANCH   1   3
BRANCH   1   9
ATOM      9  N   UNL     1       4.643   4.870  17.888  0.00  0.00    +0.000 N 
ATOM     10  C   UNL     1       3.625   3.953  17.808  0.00  0.00    +0.000 C 
ATOM     11  O   UNL     1       3.256   3.452  16.749  0.00  0.00    +0.000 OA
ATOM     12  H   UNL     1       4.968   5.170  18.809  0.00  0.00    +0.000 HD
BRANCH  10  13
ATOM     13  C   UNL     1       2.982   3.556  19.088  0.00  0.00    +0.000 A 
ATOM     14  C   UNL     1       1.696   4.073  19.331  0.00  0.00    +0.000 A 
ATOM     15  C   UNL     1       1.036   3.796  20.527  0.00  0.00    +0.000 A 
ATOM     16  C   UNL     1       1.654   2.998  21.484  0.00  0.00    +0.000 A 
ATOM     17  C   UNL     1       2.925   2.470  21.241  0.00  0.00    +0.000 A 
ATOM     18  C   UNL     1       3.629   2.772  20.064  0.00  0.00    +0.000 A 
BRANCH  18  19
ATOM     19  N   UNL     1       4.852   2.114  19.838  0.00  0.00    +0.000 N 
ATOM     20  H   UNL     1       4.792   1.337  19.187  0.00  0.00    +0.000 HD
ATOM     21  H   UNL     1       5.343   1.851  20.691  0.00  0.00    +0.000 HD
ENDBRANCH  18  19
ENDBRANCH  10  13
ENDBRANCH   1   9
BRANCH   1  22
ATOM     22  C   UNL     1       6.503   4.475  16.236  0.00  0.00    +0.000 C 
BRANCH  22  23
ATOM     23  C   UNL     1       6.651   4.383  14.735  0.00  0.00    +0.000 A 
ATOM     24  C   UNL     1       5.823   3.527  13.997  0.00  0.00    +0.000 A 
ATOM     25  C   UNL     1       5.945   3.448  12.609  0.00  0.00    +0.000 A 
ATOM     26  C   UNL     1       6.897   4.222  11.949  0.00  0.00    +0.000 A 
ATOM     27  C   UNL     1       7.731   5.069  12.674  0.00  0.00    +0.000 A 
ATOM     28  C   UNL     1       7.609   5.150  14.061  0.00  0.00    +0.000 A 
ENDBRANCH  22  23
ENDBRANCH   1  22
TORSDOF 7
ENDMDL
MODEL 9
REMARK VINA RESULT:      -8.0      2.111      6.657
REMARK  Name = 
REMARK  7 active torsions:
REMARK  status: ('A' for Active; 'I' for Inactive)
REMARK    1  A    between atoms: N_1  and  N_2
REMARK    2  A    between atoms: C_3  and  C_5
REMARK    3  A    between atoms: C_5  and  C_6
REMARK    4  A    between atoms: C_5  and  N_13
REMARK    5  A    between atoms: C_6  and  C_7
REMARK    6  A    between atoms: C_14  and  C_16
REMARK    7  A    between atoms: C_21  and  N_22
REMARK                            x       y       z     vdW  Elec       q    Type
REMARK                         _______ _______ _______ _____ _____    ______ ____
ROOT
ATOM      1  C   UNL     1       6.058   5.360  17.097  0.00  0.00    +0.000 C 
ENDROOT
BRANCH   1   3
ATOM      2  N   UNL     1       7.092   7.610  16.949  0.00  0.00    +0.000 N 
ATOM      3  C   UNL     1       6.969   6.447  17.703  0.00  0.00    +0.000 C 
ATOM      4  O   UNL     1       7.533   6.311  18.794  0.00  0.00    +0.000 OA
ATOM      5  H   UNL     1       6.488   7.782  16.149  0.00  0.00    +0.000 HD
BRANCH   2   6
ATOM      6  N   UNL     1       7.869   8.679  17.451  0.00  0.00    +0.000 NA
ATOM      7  H   UNL     1       7.886   9.426  16.753  0.00  0.00    +0.000 HD
ATOM      8  H   UNL     1       8.845   8.347  17.487  0.00  0.00    +0.000 HD
ENDBRANCH   2   6
ENDBRANCH   1   3
BRANCH   1   9
ATOM      9  N   UNL     1       5.162   4.874  18.145  0.00  0.00    +0.000 N 
ATOM     10  C   UNL     1       3.988   4.210  17.891  0.00  0.00    +0.000 C 
ATOM     11  O   UNL     1       3.611   3.929  16.757  0.00  0.00    +0.000 OA
ATOM     12  H   UNL     1       5.468   4.987  19.114  0.00  0.00    +0.000 HD
BRANCH  10  13
ATOM     13  C   UNL     1       3.177   3.810  19.070  0.00  0.00    +0.000 A 
ATOM     14  C   UNL     1       1.929   4.441  19.217  0.00  0.00    +0.000 A 
ATOM     15  C   UNL     1       1.122   4.166  20.320  0.00  0.00    +0.000 A 
ATOM     16  C   UNL     1       1.556   3.257  21.279  0.00  0.00    +0.000 A 
ATOM     17  C   UNL     1       2.789   2.617  21.130  0.00  0.00    +0.000 A 
ATOM     18  C   UNL     1       3.640   2.910  20.052  0.00  0.00    +0.000 A 
BRANCH  18  19
ATOM     19  N   UNL     1       4.811   2.145  19.907  0.00  0.00    +0.000 N 
ATOM     20  H   UNL     1       4.886   1.663  19.016  0.00  0.00    +0.000 HD
ATOM     21  H   UNL     1       4.994   1.518  20.688  0.00  0.00    +0.000 HD
ENDBRANCH  18  19
ENDBRANCH  10  13
ENDBRANCH   1   9
BRANCH   1  22
ATOM     22  C   UNL     1       6.857   4.248  16.390  0.00  0.00    +0.000 C 
BRANCH  22  23
ATOM     23  C   UNL     1       6.849   4.318  14.881  0.00  0.00    +0.000 A 
ATOM     24  C   UNL     1       7.751   5.153  14.210  0.00  0.00    +0.000 A 
ATOM     25  C   UNL     1       7.760   5.212  12.816  0.00  0.00    +0.000 A 
ATOM     26  C   UNL     1       6.864   4.437  12.082  0.00  0.00    +0.000 A 
ATOM     27  C   UNL     1       5.957   3.610  12.739  0.00  0.00    +0.000 A 
ATOM     28  C   UNL     1       5.949   3.550  14.132  0.00  0.00    +0.000 A 
ENDBRANCH  22  23
ENDBRANCH   1  22
TORSDOF 7
ENDMDL
