MODEL 1
REMARK VINA RESULT:      -8.0      0.000      0.000
REMARK  Name = 
REMARK  12 active torsions:
REMARK  status: ('A' for Active; 'I' for Inactive)
REMARK    1  A    between atoms: O_1  and  C_2
REMARK    2  A    between atoms: C_7  and  C_8
REMARK    3  A    between atoms: C_8  and  N_9
REMARK    4  A    between atoms: N_9  and  C_10
REMARK    5  A    between atoms: C_10  and  C_11
REMARK    6  A    between atoms: C_11  and  C_12
REMARK    7  A    between atoms: C_12  and  C_13
REMARK    8  A    between atoms: C_13  and  C_14
REMARK    9  A    between atoms: C_14  and  C_15
REMARK   10  A    between atoms: C_15  and  C_16
REMARK   11  A    between atoms: C_16  and  N_17
REMARK   12  A    between atoms: N_17  and  C_18
REMARK                            x       y       z     vdW  Elec       q    Type
REMARK                         _______ _______ _______ _____ _____    ______ ____
ROOT
ATOM      1  C   UNL     1       0.463   9.294  20.363  0.00  0.00    +0.000 C 
ENDROOT
BRANCH   1   2
ATOM      2  N   UNL     1       0.361  10.630  19.783  0.00  0.00    +0.000 N 
ATOM      3  H   UNL     1       0.809  10.621  18.873  0.00  0.00    +0.000 HD
BRANCH   2   4
ATOM      4  C   UNL     1      -0.937  11.234  19.692  0.00  0.00    +0.000 A 
ATOM      5  C   UNL     1      -1.830  11.009  18.607  0.00  0.00    +0.000 A 
ATOM      6  C   UNL     1      -3.089  11.627  18.643  0.00  0.00    +0.000 A 
ATOM      7  N   UNL     1      -3.526  12.356  19.690  0.00  0.00    +0.000 NA
ATOM      8  C   UNL     1      -2.732  12.517  20.747  0.00  0.00    +0.000 A 
ATOM      9  C   UNL     1      -3.266  13.239  21.804  0.00  0.00    +0.000 A 
ATOM     10  C   UNL     1      -2.534  13.486  22.957  0.00  0.00    +0.000 A 
ATOM     11 CL   UNL     1      -3.236  14.380  24.249  0.00  0.00    +0.000 Cl
ATOM     12  C   UNL     1      -1.240  13.008  23.068  0.00  0.00    +0.000 A 
ATOM     13  C   UNL     1      -0.693  12.265  22.018  0.00  0.00    +0.000 A 
ATOM     14  C   UNL     1      -1.422  11.992  20.824  0.00  0.00    +0.000 A 
ATOM     15  C   UNL     1      -4.102  11.461  17.537  0.00  0.00    +0.000 C 
ATOM     16  C   UNL     1      -3.496  11.026  16.210  0.00  0.00    +0.000 C 
ATOM     17  C   UNL     1      -2.627   9.810  16.450  0.00  0.00    +0.000 C 
ATOM     18  C   UNL     1      -1.490  10.167  17.398  0.00  0.00    +0.000 C 
ENDBRANCH   2   4
ENDBRANCH   1   2
BRANCH   1  19
ATOM     19  C   UNL     1       1.619   8.474  19.798  0.00  0.00    +0.000 C 
BRANCH  19  20
ATOM     20  C   UNL     1       1.790   8.777  18.296  0.00  0.00    +0.000 C 
BRANCH  20  21
ATOM     21  C   UNL     1       2.957   8.000  17.678  0.00  0.00    +0.000 C 
BRANCH  21  22
ATOM     22  C   UNL     1       3.174   6.644  18.342  0.00  0.00    +0.000 C 
BRANCH  22  23
ATOM     23  C   UNL     1       4.543   6.092  17.944  0.00  0.00    +0.000 C 
BRANCH  23  24
ATOM     24  C   UNL     1       4.420   4.888  17.012  0.00  0.00    +0.000 C 
BRANCH  24  25
ATOM     25  N   UNL     1       4.868   3.706  17.737  0.00  0.00    +0.000 NA
ATOM     26  H   UNL     1       5.692   3.310  17.284  0.00  0.00    +0.000 HD
BRANCH  25  27
ATOM     27  C   UNL     1       3.837   2.668  17.781  0.00  0.00    +0.000 C 
BRANCH  27  33
ATOM     28  C   UNL     1       1.625   3.350  18.855  0.00  0.00    +0.000 A 
ATOM     29  C   UNL     1       0.815   3.520  19.979  0.00  0.00    +0.000 A 
ATOM     30  C   UNL     1       1.317   3.216  21.247  0.00  0.00    +0.000 A 
ATOM     31  C   UNL     1       2.621   2.751  21.391  0.00  0.00    +0.000 A 
ATOM     32  C   UNL     1       3.426   2.588  20.263  0.00  0.00    +0.000 A 
ATOM     33  C   UNL     1       2.937   2.881  18.976  0.00  0.00    +0.000 A 
BRANCH  28  34
ATOM     34  O   UNL     1       1.130   3.632  17.612  0.00  0.00    +0.000 OA
ATOM     35  H   UNL     1       0.168   3.495  17.622  0.00  0.00    +0.000 HD
ENDBRANCH  28  34
ENDBRANCH  27  33
ENDBRANCH  25  27
ENDBRANCH  24  25
ENDBRANCH  23  24
ENDBRANCH  22  23
ENDBRANCH  21  22
ENDBRANCH  20  21
ENDBRANCH  19  20
ENDBRANCH   1  19
TORSDOF 12
ENDMDL
MODEL 2
REMARK VINA RESULT:      -8.0      2.118      3.733
REMARK  Name = 
REMARK  12 active torsions:
REMARK  status: ('A' for Active; 'I' for Inactive)
REMARK    1  A    between atoms: O_1  and  C_2
REMARK    2  A    between atoms: C_7  and  C_8
REMARK    3  A    between atoms: C_8  and  N_9
REMARK    4  A    between atoms: N_9  and  C_10
REMARK    5  A    between atoms: C_10  and  C_11
REMARK    6  A    between atoms: C_11  and  C_12
REMARK    7  A    between atoms: C_12  and  C_13
REMARK    8  A    between atoms: C_13  and  C_14
REMARK    9  A    between atoms: C_14  and  C_15
REMARK   10  A    between atoms: C_15  and  C_16
REMARK   11  A    between atoms: C_16  and  N_17
REMARK   12  A    between atoms: N_17  and  C_18
REMARK                            x       y       z     vdW  Elec       q    Type
REMARK                         _______ _______ _______ _____ _____    ______ ____
ROOT
ATOM      1  C   UNL     1       1.621   9.340  18.632  0.00  0.00    +0.000 C 
ENDROOT
BRANCH   1   2
ATOM      2  N   UNL     1       0.947  10.408  17.900  0.00  0.00    +0.000 N 
ATOM      3  H   UNL     1       0.477  10.003  17.098  0.00  0.00    +0.000 HD
BRANCH   2   4
ATOM      4  C   UNL     1       0.050  11.264  18.622  0.00  0.00    +0.000 A 
ATOM      5  C   UNL     1       0.486  12.359  19.422  0.00  0.00    +0.000 A 
ATOM      6  C   UNL     1      -0.485  13.148  20.054  0.00  0.00    +0.000 A 
ATOM      7  N   UNL     1      -1.811  12.974  19.878  0.00  0.00    +0.000 NA
ATOM      8  C   UNL     1      -2.238  12.001  19.075  0.00  0.00    +0.000 A 
ATOM      9  C   UNL     1      -3.612  11.911  18.905  0.00  0.00    +0.000 A 
ATOM     10  C   UNL     1      -4.181  10.933  18.104  0.00  0.00    +0.000 A 
ATOM     11 CL   UNL     1      -5.890  10.860  17.913  0.00  0.00    +0.000 Cl
ATOM     12  C   UNL     1      -3.373  10.017  17.452  0.00  0.00    +0.000 A 
ATOM     13  C   UNL     1      -1.985  10.104  17.600  0.00  0.00    +0.000 A 
ATOM     14  C   UNL     1      -1.372  11.101  18.413  0.00  0.00    +0.000 A 
ATOM     15  C   UNL     1      -0.125  14.322  20.932  0.00  0.00    +0.000 C 
ATOM     16  C   UNL     1       1.296  14.271  21.472  0.00  0.00    +0.000 C 
ATOM     17  C   UNL     1       2.246  14.039  20.317  0.00  0.00    +0.000 C 
ATOM     18  C   UNL     1       1.940  12.701  19.657  0.00  0.00    +0.000 C 
ENDBRANCH   2   4
ENDBRANCH   1   2
BRANCH   1  19
ATOM     19  C   UNL     1       2.227   8.273  17.724  0.00  0.00    +0.000 C 
BRANCH  19  20
ATOM     20  C   UNL     1       2.670   7.060  18.566  0.00  0.00    +0.000 C 
BRANCH  20  21
ATOM     21  C   UNL     1       2.620   5.753  17.769  0.00  0.00    +0.000 C 
BRANCH  21  22
ATOM     22  C   UNL     1       4.009   5.228  17.418  0.00  0.00    +0.000 C 
BRANCH  22  23
ATOM     23  C   UNL     1       5.043   5.851  18.355  0.00  0.00    +0.000 C 
BRANCH  23  24
ATOM     24  C   UNL     1       5.746   4.796  19.206  0.00  0.00    +0.000 C 
BRANCH  24  25
ATOM     25  N   UNL     1       5.299   3.483  18.761  0.00  0.00    +0.000 NA
ATOM     26  H   UNL     1       4.605   3.582  18.021  0.00  0.00    +0.000 HD
BRANCH  25  27
ATOM     27  C   UNL     1       4.687   2.717  19.849  0.00  0.00    +0.000 C 
BRANCH  27  33
ATOM     28  C   UNL     1       2.384   2.206  18.879  0.00  0.00    +0.000 A 
ATOM     29  C   UNL     1       0.996   2.360  18.881  0.00  0.00    +0.000 A 
ATOM     30  C   UNL     1       0.393   3.189  19.831  0.00  0.00    +0.000 A 
ATOM     31  C   UNL     1       1.171   3.863  20.766  0.00  0.00    +0.000 A 
ATOM     32  C   UNL     1       2.558   3.709  20.754  0.00  0.00    +0.000 A 
ATOM     33  C   UNL     1       3.184   2.872  19.812  0.00  0.00    +0.000 A 
BRANCH  28  34
ATOM     34  O   UNL     1       2.973   1.383  17.961  0.00  0.00    +0.000 OA
ATOM     35  H   UNL     1       3.267   0.573  18.411  0.00  0.00    +0.000 HD
ENDBRANCH  28  34
ENDBRANCH  27  33
ENDBRANCH  25  27
ENDBRANCH  24  25
ENDBRANCH  23  24
ENDBRANCH  22  23
ENDBRANCH  21  22
ENDBRANCH  20  21
ENDBRANCH  19  20
ENDBRANCH   1  19
TORSDOF 12
ENDMDL
MODEL 3
REMARK VINA RESULT:      -7.8      1.195      1.566
REMARK  Name = 
REMARK  12 active torsions:
REMARK  status: ('A' for Active; 'I' for Inactive)
REMARK    1  A    between atoms: O_1  and  C_2
REMARK    2  A    between atoms: C_7  and  C_8
REMARK    3  A    between atoms: C_8  and  N_9
REMARK    4  A    between atoms: N_9  and  C_10
REMARK    5  A    between atoms: C_10  and  C_11
REMARK    6  A    between atoms: C_11  and  C_12
REMARK    7  A    between atoms: C_12  and  C_13
REMARK    8  A    between atoms: C_13  and  C_14
REMARK    9  A    between atoms: C_14  and  C_15
REMARK   10  A    between atoms: C_15  and  C_16
REMARK   11  A    between atoms: C_16  and  N_17
REMARK   12  A    between atoms: N_17  and  C_18
REMARK                            x       y       z     vdW  Elec       q    Type
REMARK                         _______ _______ _______ _____ _____    ______ ____
ROOT
ATOM      1  C   UNL     1       1.439  10.183  18.293  0.00  0.00    +0.000 C 
ENDROOT
BRANCH   1   2
ATOM      2  N   UNL     1       0.268   9.720  19.032  0.00  0.00    +0.000 N 
ATOM      3  H   UNL     1       0.556   9.483  19.975  0.00  0.00    +0.000 HD
BRANCH   2   4
ATOM      4  C   UNL     1      -0.892  10.564  19.063  0.00  0.00    +0.000 A 
ATOM      5  C   UNL     1      -1.877  10.577  18.034  0.00  0.00    +0.000 A 
ATOM      6  C   UNL     1      -2.987  11.419  18.190  0.00  0.00    +0.000 A 
ATOM      7  N   UNL     1      -3.211  12.154  19.298  0.00  0.00    +0.000 NA
ATOM      8  C   UNL     1      -2.338  12.099  20.302  0.00  0.00    +0.000 A 
ATOM      9  C   UNL     1      -2.657  12.844  21.427  0.00  0.00    +0.000 A 
ATOM     10  C   UNL     1      -1.822  12.879  22.535  0.00  0.00    +0.000 A 
ATOM     11 CL   UNL     1      -2.258  13.811  23.915  0.00  0.00    +0.000 Cl
ATOM     12  C   UNL     1      -0.640  12.158  22.531  0.00  0.00    +0.000 A 
ATOM     13  C   UNL     1      -0.312  11.389  21.411  0.00  0.00    +0.000 A 
ATOM     14  C   UNL     1      -1.152  11.331  20.261  0.00  0.00    +0.000 A 
ATOM     15  C   UNL     1      -4.079  11.515  17.152  0.00  0.00    +0.000 C 
ATOM     16  C   UNL     1      -3.651  11.053  15.766  0.00  0.00    +0.000 C 
ATOM     17  C   UNL     1      -3.020   9.682  15.886  0.00  0.00    +0.000 C 
ATOM     18  C   UNL     1      -1.780   9.760  16.766  0.00  0.00    +0.000 C 
ENDBRANCH   2   4
ENDBRANCH   1   2
BRANCH   1  19
ATOM     19  C   UNL     1       2.355   9.050  17.838  0.00  0.00    +0.000 C 
BRANCH  19  20
ATOM     20  C   UNL     1       2.141   7.812  18.732  0.00  0.00    +0.000 C 
BRANCH  20  21
ATOM     21  C   UNL     1       3.173   6.714  18.456  0.00  0.00    +0.000 C 
BRANCH  21  22
ATOM     22  C   UNL     1       4.118   7.073  17.314  0.00  0.00    +0.000 C 
BRANCH  22  23
ATOM     23  C   UNL     1       4.930   5.841  16.916  0.00  0.00    +0.000 C 
BRANCH  23  24
ATOM     24  C   UNL     1       4.626   4.645  17.816  0.00  0.00    +0.000 C 
BRANCH  24  25
ATOM     25  N   UNL     1       3.860   3.678  17.041  0.00  0.00    +0.000 NA
ATOM     26  H   UNL     1       2.946   4.065  16.806  0.00  0.00    +0.000 HD
BRANCH  25  27
ATOM     27  C   UNL     1       3.643   2.434  17.782  0.00  0.00    +0.000 C 
BRANCH  27  33
ATOM     28  C   UNL     1       3.413   2.525  20.321  0.00  0.00    +0.000 A 
ATOM     29  C   UNL     1       2.672   2.807  21.471  0.00  0.00    +0.000 A 
ATOM     30  C   UNL     1       1.365   3.287  21.353  0.00  0.00    +0.000 A 
ATOM     31  C   UNL     1       0.801   3.478  20.095  0.00  0.00    +0.000 A 
ATOM     32  C   UNL     1       1.545   3.188  18.951  0.00  0.00    +0.000 A 
ATOM     33  C   UNL     1       2.866   2.712  19.048  0.00  0.00    +0.000 A 
BRANCH  28  34
ATOM     34  O   UNL     1       4.697   2.071  20.435  0.00  0.00    +0.000 OA
ATOM     35  H   UNL     1       4.973   2.148  21.364  0.00  0.00    +0.000 HD
ENDBRANCH  28  34
ENDBRANCH  27  33
ENDBRANCH  25  27
ENDBRANCH  24  25
ENDBRANCH  23  24
ENDBRANCH  22  23
ENDBRANCH  21  22
ENDBRANCH  20  21
ENDBRANCH  19  20
ENDBRANCH   1  19
TORSDOF 12
ENDMDL
MODEL 4
REMARK VINA RESULT:      -7.7      3.958      9.851
REMARK  Name = 
REMARK  12 active torsions:
REMARK  status: ('A' for Active; 'I' for Inactive)
REMARK    1  A    between atoms: O_1  and  C_2
REMARK    2  A    between atoms: C_7  and  C_8
REMARK    3  A    between atoms: C_8  and  N_9
REMARK    4  A    between atoms: N_9  and  C_10
REMARK    5  A    between atoms: C_10  and  C_11
REMARK    6  A    between atoms: C_11  and  C_12
REMARK    7  A    between atoms: C_12  and  C_13
REMARK    8  A    between atoms: C_13  and  C_14
REMARK    9  A    between atoms: C_14  and  C_15
REMARK   10  A    between atoms: C_15  and  C_16
REMARK   11  A    between atoms: C_16  and  N_17
REMARK   12  A    between atoms: N_17  and  C_18
REMARK                            x       y       z     vdW  Elec       q    Type
REMARK                         _______ _______ _______ _____ _____    ______ ____
ROOT
ATOM      1  C   UNL     1       2.503   8.249  17.755  0.00  0.00    +0.000 C 
ENDROOT
BRANCH   1   2
ATOM      2  N   UNL     1       2.604   7.291  18.852  0.00  0.00    +0.000 N 
ATOM      3  H   UNL     1       1.723   7.281  19.353  0.00  0.00    +0.000 HD
BRANCH   2   4
ATOM      4  C   UNL     1       3.019   5.952  18.548  0.00  0.00    +0.000 A 
ATOM      5  C   UNL     1       2.451   4.799  19.160  0.00  0.00    +0.000 A 
ATOM      6  C   UNL     1       2.914   3.538  18.758  0.00  0.00    +0.000 A 
ATOM      7  N   UNL     1       3.808   3.358  17.765  0.00  0.00    +0.000 NA
ATOM      8  C   UNL     1       4.296   4.422  17.129  0.00  0.00    +0.000 A 
ATOM      9  C   UNL     1       5.175   4.159  16.089  0.00  0.00    +0.000 A 
ATOM     10  C   UNL     1       5.761   5.182  15.358  0.00  0.00    +0.000 A 
ATOM     11 CL   UNL     1       6.841   4.813  14.070  0.00  0.00    +0.000 Cl
ATOM     12  C   UNL     1       5.472   6.501  15.663  0.00  0.00    +0.000 A 
ATOM     13  C   UNL     1       4.576   6.783  16.699  0.00  0.00    +0.000 A 
ATOM     14  C   UNL     1       3.956   5.753  17.464  0.00  0.00    +0.000 A 
ATOM     15  C   UNL     1       2.385   2.256  19.354  0.00  0.00    +0.000 C 
ATOM     16  C   UNL     1       1.730   2.437  20.716  0.00  0.00    +0.000 C 
ATOM     17  C   UNL     1       0.709   3.550  20.618  0.00  0.00    +0.000 C 
ATOM     18  C   UNL     1       1.400   4.854  20.245  0.00  0.00    +0.000 C 
ENDBRANCH   2   4
ENDBRANCH   1   2
BRANCH   1  19
ATOM     19  C   UNL     1       1.429   9.310  17.974  0.00  0.00    +0.000 C 
BRANCH  19  20
ATOM     20  C   UNL     1       2.090  10.679  18.234  0.00  0.00    +0.000 C 
BRANCH  20  21
ATOM     21  C   UNL     1       1.140  11.657  18.931  0.00  0.00    +0.000 C 
BRANCH  21  22
ATOM     22  C   UNL     1       1.333  13.095  18.460  0.00  0.00    +0.000 C 
BRANCH  22  23
ATOM     23  C   UNL     1       0.031  13.874  18.647  0.00  0.00    +0.000 C 
BRANCH  23  24
ATOM     24  C   UNL     1      -0.756  13.382  19.859  0.00  0.00    +0.000 C 
BRANCH  24  25
ATOM     25  N   UNL     1      -2.161  13.301  19.485  0.00  0.00    +0.000 NA
ATOM     26  H   UNL     1      -2.716  13.924  20.071  0.00  0.00    +0.000 HD
BRANCH  25  27
ATOM     27  C   UNL     1      -2.691  11.945  19.645  0.00  0.00    +0.000 C 
BRANCH  27  33
ATOM     28  C   UNL     1      -4.072  11.683  17.515  0.00  0.00    +0.000 A 
ATOM     29  C   UNL     1      -4.285  11.108  16.261  0.00  0.00    +0.000 A 
ATOM     30  C   UNL     1      -3.377  10.169  15.766  0.00  0.00    +0.000 A 
ATOM     31  C   UNL     1      -2.268   9.802  16.523  0.00  0.00    +0.000 A 
ATOM     32  C   UNL     1      -2.065  10.377  17.778  0.00  0.00    +0.000 A 
ATOM     33  C   UNL     1      -2.963  11.331  18.290  0.00  0.00    +0.000 A 
BRANCH  28  34
ATOM     34  O   UNL     1      -4.951  12.614  17.993  0.00  0.00    +0.000 OA
ATOM     35  H   UNL     1      -5.856  12.275  17.884  0.00  0.00    +0.000 HD
ENDBRANCH  28  34
ENDBRANCH  27  33
ENDBRANCH  25  27
ENDBRANCH  24  25
ENDBRANCH  23  24
ENDBRANCH  22  23
ENDBRANCH  21  22
ENDBRANCH  20  21
ENDBRANCH  19  20
ENDBRANCH   1  19
TORSDOF 12
ENDMDL
MODEL 5
REMARK VINA RESULT:      -7.7      3.395      9.550
REMARK  Name = 
REMARK  12 active torsions:
REMARK  status: ('A' for Active; 'I' for Inactive)
REMARK    1  A    between atoms: O_1  and  C_2
REMARK    2  A    between atoms: C_7  and  C_8
REMARK    3  A    between atoms: C_8  and  N_9
REMARK    4  A    between atoms: N_9  and  C_10
REMARK    5  A    between atoms: C_10  and  C_11
REMARK    6  A    between atoms: C_11  and  C_12
REMARK    7  A    between atoms: C_12  and  C_13
REMARK    8  A    between atoms: C_13  and  C_14
REMARK    9  A    between atoms: C_14  and  C_15
REMARK   10  A    between atoms: C_15  and  C_16
REMARK   11  A    between atoms: C_16  and  N_17
REMARK   12  A    between atoms: N_17  and  C_18
REMARK                            x       y       z     vdW  Elec       q    Type
REMARK                         _______ _______ _______ _____ _____    ______ ____
ROOT
ATOM      1  C   UNL     1       2.386   8.116  17.611  0.00  0.00    +0.000 C 
ENDROOT
BRANCH   1   2
ATOM      2  N   UNL     1       3.671   7.508  17.942  0.00  0.00    +0.000 N 
ATOM      3  H   UNL     1       3.935   7.801  18.876  0.00  0.00    +0.000 HD
BRANCH   2   4
ATOM      4  C   UNL     1       3.803   6.086  17.811  0.00  0.00    +0.000 A 
ATOM      5  C   UNL     1       4.614   5.464  16.818  0.00  0.00    +0.000 A 
ATOM      6  C   UNL     1       4.693   4.064  16.809  0.00  0.00    +0.000 A 
ATOM      7  N   UNL     1       4.108   3.281  17.738  0.00  0.00    +0.000 NA
ATOM      8  C   UNL     1       3.406   3.849  18.718  0.00  0.00    +0.000 A 
ATOM      9  C   UNL     1       2.873   2.986  19.663  0.00  0.00    +0.000 A 
ATOM     10  C   UNL     1       2.112   3.454  20.724  0.00  0.00    +0.000 A 
ATOM     11 CL   UNL     1       1.474   2.350  21.881  0.00  0.00    +0.000 Cl
ATOM     12  C   UNL     1       1.870   4.810  20.856  0.00  0.00    +0.000 A 
ATOM     13  C   UNL     1       2.414   5.695  19.919  0.00  0.00    +0.000 A 
ATOM     14  C   UNL     1       3.203   5.244  18.821  0.00  0.00    +0.000 A 
ATOM     15  C   UNL     1       5.515   3.309  15.791  0.00  0.00    +0.000 C 
ATOM     16  C   UNL     1       5.812   4.106  14.530  0.00  0.00    +0.000 C 
ATOM     17  C   UNL     1       6.388   5.447  14.929  0.00  0.00    +0.000 C 
ATOM     18  C   UNL     1       5.369   6.223  15.752  0.00  0.00    +0.000 C 
ENDBRANCH   2   4
ENDBRANCH   1   2
BRANCH   1  19
ATOM     19  C   UNL     1       1.819   8.984  18.731  0.00  0.00    +0.000 C 
BRANCH  19  20
ATOM     20  C   UNL     1       1.033  10.166  18.131  0.00  0.00    +0.000 C 
BRANCH  20  21
ATOM     21  C   UNL     1       1.349  11.489  18.836  0.00  0.00    +0.000 C 
BRANCH  21  22
ATOM     22  C   UNL     1       0.099  12.319  19.110  0.00  0.00    +0.000 C 
BRANCH  22  23
ATOM     23  C   UNL     1      -0.569  11.828  20.395  0.00  0.00    +0.000 C 
BRANCH  23  24
ATOM     24  C   UNL     1      -1.861  12.588  20.688  0.00  0.00    +0.000 C 
BRANCH  24  25
ATOM     25  N   UNL     1      -2.521  12.867  19.419  0.00  0.00    +0.000 NA
ATOM     26  H   UNL     1      -2.874  13.824  19.412  0.00  0.00    +0.000 HD
BRANCH  25  27
ATOM     27  C   UNL     1      -3.653  11.969  19.183  0.00  0.00    +0.000 C 
BRANCH  27  33
ATOM     28  C   UNL     1      -4.181  11.556  16.722  0.00  0.00    +0.000 A 
ATOM     29  C   UNL     1      -3.972  10.863  15.527  0.00  0.00    +0.000 A 
ATOM     30  C   UNL     1      -3.033   9.830  15.481  0.00  0.00    +0.000 A 
ATOM     31  C   UNL     1      -2.313   9.487  16.622  0.00  0.00    +0.000 A 
ATOM     32  C   UNL     1      -2.531  10.180  17.813  0.00  0.00    +0.000 A 
ATOM     33  C   UNL     1      -3.465  11.230  17.878  0.00  0.00    +0.000 A 
BRANCH  28  34
ATOM     34  O   UNL     1      -5.087  12.578  16.764  0.00  0.00    +0.000 OA
ATOM     35  H   UNL     1      -5.703  12.419  17.499  0.00  0.00    +0.000 HD
ENDBRANCH  28  34
ENDBRANCH  27  33
ENDBRANCH  25  27
ENDBRANCH  24  25
ENDBRANCH  23  24
ENDBRANCH  22  23
ENDBRANCH  21  22
ENDBRANCH  20  21
ENDBRANCH  19  20
ENDBRANCH   1  19
TORSDOF 12
ENDMDL
MODEL 6
REMARK VINA RESULT:      -7.6      1.646      1.991
REMARK  Name = 
REMARK  12 active torsions:
REMARK  status: ('A' for Active; 'I' for Inactive)
REMARK    1  A    between atoms: O_1  and  C_2
REMARK    2  A    between atoms: C_7  and  C_8
REMARK    3  A    between atoms: C_8  and  N_9
REMARK    4  A    between atoms: N_9  and  C_10
REMARK    5  A    between atoms: C_10  and  C_11
REMARK    6  A    between atoms: C_11  and  C_12
REMARK    7  A    between atoms: C_12  and  C_13
REMARK    8  A    between atoms: C_13  and  C_14
REMARK    9  A    between atoms: C_14  and  C_15
REMARK   10  A    between atoms: C_15  and  C_16
REMARK   11  A    between atoms: C_16  and  N_17
REMARK   12  A    between atoms: N_17  and  C_18
REMARK                            x       y       z     vdW  Elec       q    Type
REMARK                         _______ _______ _______ _____ _____    ______ ____
ROOT
ATOM      1  C   UNL     1       1.574   9.383  18.733  0.00  0.00    +0.000 C 
ENDROOT
BRANCH   1   2
ATOM      2  N   UNL     1       1.336  10.702  18.154  0.00  0.00    +0.000 N 
ATOM      3  H   UNL     1       1.266  10.603  17.147  0.00  0.00    +0.000 HD
BRANCH   2   4
ATOM      4  C   UNL     1       0.237  11.475  18.656  0.00  0.00    +0.000 A 
ATOM      5  C   UNL     1      -1.126  11.172  18.375  0.00  0.00    +0.000 A 
ATOM      6  C   UNL     1      -2.117  11.980  18.950  0.00  0.00    +0.000 A 
ATOM      7  N   UNL     1      -1.851  12.977  19.818  0.00  0.00    +0.000 NA
ATOM      8  C   UNL     1      -0.586  13.228  20.150  0.00  0.00    +0.000 A 
ATOM      9  C   UNL     1      -0.391  14.236  21.083  0.00  0.00    +0.000 A 
ATOM     10  C   UNL     1       0.881  14.601  21.501  0.00  0.00    +0.000 A 
ATOM     11 CL   UNL     1       1.080  15.852  22.667  0.00  0.00    +0.000 Cl
ATOM     12  C   UNL     1       1.990  13.954  20.985  0.00  0.00    +0.000 A 
ATOM     13  C   UNL     1       1.810  12.925  20.055  0.00  0.00    +0.000 A 
ATOM     14  C   UNL     1       0.516  12.526  19.610  0.00  0.00    +0.000 A 
ATOM     15  C   UNL     1      -3.589  11.749  18.705  0.00  0.00    +0.000 C 
ATOM     16  C   UNL     1      -3.883  10.949  17.444  0.00  0.00    +0.000 C 
ATOM     17  C   UNL     1      -3.046   9.687  17.465  0.00  0.00    +0.000 C 
ATOM     18  C   UNL     1      -1.567  10.049  17.466  0.00  0.00    +0.000 C 
ENDBRANCH   2   4
ENDBRANCH   1   2
BRANCH   1  19
ATOM     19  C   UNL     1       2.036   8.347  17.712  0.00  0.00    +0.000 C 
BRANCH  19  20
ATOM     20  C   UNL     1       2.470   7.057  18.435  0.00  0.00    +0.000 C 
BRANCH  20  21
ATOM     21  C   UNL     1       3.972   6.791  18.294  0.00  0.00    +0.000 C 
BRANCH  21  22
ATOM     22  C   UNL     1       4.363   6.386  16.876  0.00  0.00    +0.000 C 
BRANCH  22  23
ATOM     23  C   UNL     1       5.315   5.191  16.930  0.00  0.00    +0.000 C 
BRANCH  23  24
ATOM     24  C   UNL     1       5.693   4.830  18.365  0.00  0.00    +0.000 C 
BRANCH  24  25
ATOM     25  N   UNL     1       5.429   3.410  18.559  0.00  0.00    +0.000 NA
ATOM     26  H   UNL     1       6.144   2.855  18.092  0.00  0.00    +0.000 HD
BRANCH  25  27
ATOM     27  C   UNL     1       4.128   3.017  18.014  0.00  0.00    +0.000 C 
BRANCH  27  33
ATOM     28  C   UNL     1       1.750   3.415  18.847  0.00  0.00    +0.000 A 
ATOM     29  C   UNL     1       0.800   3.425  19.870  0.00  0.00    +0.000 A 
ATOM     30  C   UNL     1       1.176   3.070  21.168  0.00  0.00    +0.000 A 
ATOM     31  C   UNL     1       2.493   2.713  21.442  0.00  0.00    +0.000 A 
ATOM     32  C   UNL     1       3.437   2.710  20.415  0.00  0.00    +0.000 A 
ATOM     33  C   UNL     1       3.077   3.056  19.100  0.00  0.00    +0.000 A 
BRANCH  28  34
ATOM     34  O   UNL     1       1.379   3.746  17.574  0.00  0.00    +0.000 OA
ATOM     35  H   UNL     1       2.177   3.968  17.064  0.00  0.00    +0.000 HD
ENDBRANCH  28  34
ENDBRANCH  27  33
ENDBRANCH  25  27
ENDBRANCH  24  25
ENDBRANCH  23  24
ENDBRANCH  22  23
ENDBRANCH  21  22
ENDBRANCH  20  21
ENDBRANCH  19  20
ENDBRANCH   1  19
TORSDOF 12
ENDMDL
MODEL 7
REMARK VINA RESULT:      -7.6      2.933      4.102
REMARK  Name = 
REMARK  12 active torsions:
REMARK  status: ('A' for Active; 'I' for Inactive)
REMARK    1  A    between atoms: O_1  and  C_2
REMARK    2  A    between atoms: C_7  and  C_8
REMARK    3  A    between atoms: C_8  and  N_9
REMARK    4  A    between atoms: N_9  and  C_10
REMARK    5  A    between atoms: C_10  and  C_11
REMARK    6  A    between atoms: C_11  and  C_12
REMARK    7  A    between atoms: C_12  and  C_13
REMARK    8  A    between atoms: C_13  and  C_14
REMARK    9  A    between atoms: C_14  and  C_15
REMARK   10  A    between atoms: C_15  and  C_16
REMARK   11  A    between atoms: C_16  and  N_17
REMARK   12  A    between atoms: N_17  and  C_18
REMARK                            x       y       z     vdW  Elec       q    Type
REMARK                         _______ _______ _______ _____ _____    ______ ____
ROOT
ATOM      1  C   UNL     1       1.457   9.498  18.133  0.00  0.00    +0.000 C 
ENDROOT
BRANCH   1   2
ATOM      2  N   UNL     1       1.441   9.757  19.570  0.00  0.00    +0.000 N 
ATOM      3  H   UNL     1       2.362   9.554  19.944  0.00  0.00    +0.000 HD
BRANCH   2   4
ATOM      4  C   UNL     1       0.994  11.042  20.023  0.00  0.00    +0.000 A 
ATOM      5  C   UNL     1       0.148  11.222  21.154  0.00  0.00    +0.000 A 
ATOM      6  C   UNL     1      -0.197  12.530  21.524  0.00  0.00    +0.000 A 
ATOM      7  N   UNL     1       0.295  13.627  20.914  0.00  0.00    +0.000 NA
ATOM      8  C   UNL     1       1.146  13.481  19.900  0.00  0.00    +0.000 A 
ATOM      9  C   UNL     1       1.647  14.652  19.352  0.00  0.00    +0.000 A 
ATOM     10  C   UNL     1       2.531  14.633  18.284  0.00  0.00    +0.000 A 
ATOM     11 CL   UNL     1       3.136  16.109  17.638  0.00  0.00    +0.000 Cl
ATOM     12  C   UNL     1       2.931  13.424  17.740  0.00  0.00    +0.000 A 
ATOM     13  C   UNL     1       2.447  12.233  18.291  0.00  0.00    +0.000 A 
ATOM     14  C   UNL     1       1.542  12.222  19.392  0.00  0.00    +0.000 A 
ATOM     15  C   UNL     1      -1.097  12.826  22.699  0.00  0.00    +0.000 C 
ATOM     16  C   UNL     1      -1.975  11.652  23.111  0.00  0.00    +0.000 C 
ATOM     17  C   UNL     1      -1.099  10.430  23.285  0.00  0.00    +0.000 C 
ATOM     18  C   UNL     1      -0.429  10.083  21.963  0.00  0.00    +0.000 C 
ENDBRANCH   2   4
ENDBRANCH   1   2
BRANCH   1  19
ATOM     19  C   UNL     1       2.495   8.460  17.716  0.00  0.00    +0.000 C 
BRANCH  19  20
ATOM     20  C   UNL     1       2.443   7.252  18.673  0.00  0.00    +0.000 C 
BRANCH  20  21
ATOM     21  C   UNL     1       3.166   6.029  18.102  0.00  0.00    +0.000 C 
BRANCH  21  22
ATOM     22  C   UNL     1       4.538   6.375  17.531  0.00  0.00    +0.000 C 
BRANCH  22  23
ATOM     23  C   UNL     1       5.486   5.192  17.726  0.00  0.00    +0.000 C 
BRANCH  23  24
ATOM     24  C   UNL     1       5.433   4.651  19.153  0.00  0.00    +0.000 C 
BRANCH  24  25
ATOM     25  N   UNL     1       5.496   3.196  19.089  0.00  0.00    +0.000 NA
ATOM     26  H   UNL     1       5.120   2.869  18.199  0.00  0.00    +0.000 HD
BRANCH  25  27
ATOM     27  C   UNL     1       4.721   2.569  20.161  0.00  0.00    +0.000 C 
BRANCH  27  33
ATOM     28  C   UNL     1       2.562   2.216  18.849  0.00  0.00    +0.000 A 
ATOM     29  C   UNL     1       1.193   2.424  18.672  0.00  0.00    +0.000 A 
ATOM     30  C   UNL     1       0.487   3.209  19.587  0.00  0.00    +0.000 A 
ATOM     31  C   UNL     1       1.147   3.787  20.667  0.00  0.00    +0.000 A 
ATOM     32  C   UNL     1       2.516   3.580  20.834  0.00  0.00    +0.000 A 
ATOM     33  C   UNL     1       3.244   2.785  19.929  0.00  0.00    +0.000 A 
BRANCH  28  34
ATOM     34  O   UNL     1       3.250   1.434  17.963  0.00  0.00    +0.000 OA
ATOM     35  H   UNL     1       4.134   1.255  18.327  0.00  0.00    +0.000 HD
ENDBRANCH  28  34
ENDBRANCH  27  33
ENDBRANCH  25  27
ENDBRANCH  24  25
ENDBRANCH  23  24
ENDBRANCH  22  23
ENDBRANCH  21  22
ENDBRANCH  20  21
ENDBRANCH  19  20
ENDBRANCH   1  19
TORSDOF 12
ENDMDL
MODEL 8
REMARK VINA RESULT:      -7.5      4.269     10.639
REMARK  Name = 
REMARK  12 active torsions:
REMARK  status: ('A' for Active; 'I' for Inactive)
REMARK    1  A    between atoms: O_1  and  C_2
REMARK    2  A    between atoms: C_7  and  C_8
REMARK    3  A    between atoms: C_8  and  N_9
REMARK    4  A    between atoms: N_9  and  C_10
REMARK    5  A    between atoms: C_10  and  C_11
REMARK    6  A    between atoms: C_11  and  C_12
REMARK    7  A    between atoms: C_12  and  C_13
REMARK    8  A    between atoms: C_13  and  C_14
REMARK    9  A    between atoms: C_14  and  C_15
REMARK   10  A    between atoms: C_15  and  C_16
REMARK   11  A    between atoms: C_16  and  N_17
REMARK   12  A    between atoms: N_17  and  C_18
REMARK                            x       y       z     vdW  Elec       q    Type
REMARK                         _______ _______ _______ _____ _____    ______ ____
ROOT
ATOM      1  C   UNL     1       2.007   7.751  18.448  0.00  0.00    +0.000 C 
ENDROOT
BRANCH   1   2
ATOM      2  N   UNL     1       3.256   7.099  18.829  0.00  0.00    +0.000 N 
ATOM      3  H   UNL     1       3.397   7.230  19.825  0.00  0.00    +0.000 HD
BRANCH   2   4
ATOM      4  C   UNL     1       3.437   5.720  18.478  0.00  0.00    +0.000 A 
ATOM      5  C   UNL     1       2.782   4.649  19.151  0.00  0.00    +0.000 A 
ATOM      6  C   UNL     1       3.009   3.342  18.696  0.00  0.00    +0.000 A 
ATOM      7  N   UNL     1       3.750   3.054  17.607  0.00  0.00    +0.000 NA
ATOM      8  C   UNL     1       4.311   4.048  16.921  0.00  0.00    +0.000 A 
ATOM      9  C   UNL     1       5.020   3.681  15.787  0.00  0.00    +0.000 A 
ATOM     10  C   UNL     1       5.660   4.623  14.995  0.00  0.00    +0.000 A 
ATOM     11 CL   UNL     1       6.523   4.126  13.591  0.00  0.00    +0.000 Cl
ATOM     12  C   UNL     1       5.601   5.964  15.333  0.00  0.00    +0.000 A 
ATOM     13  C   UNL     1       4.878   6.352  16.465  0.00  0.00    +0.000 A 
ATOM     14  C   UNL     1       4.206   5.408  17.294  0.00  0.00    +0.000 A 
ATOM     15  C   UNL     1       2.372   2.139  19.348  0.00  0.00    +0.000 C 
ATOM     16  C   UNL     1       1.908   2.388  20.776  0.00  0.00    +0.000 C 
ATOM     17  C   UNL     1       1.054   3.637  20.797  0.00  0.00    +0.000 C 
ATOM     18  C   UNL     1       1.879   4.835  20.349  0.00  0.00    +0.000 C 
ENDBRANCH   2   4
ENDBRANCH   1   2
BRANCH   1  19
ATOM     19  C   UNL     1       2.202   9.164  17.904  0.00  0.00    +0.000 C 
BRANCH  19  20
ATOM     20  C   UNL     1       0.841   9.881  17.811  0.00  0.00    +0.000 C 
BRANCH  20  21
ATOM     21  C   UNL     1       0.433  10.524  19.140  0.00  0.00    +0.000 C 
BRANCH  21  22
ATOM     22  C   UNL     1      -1.038  10.296  19.473  0.00  0.00    +0.000 C 
BRANCH  22  23
ATOM     23  C   UNL     1      -1.878  10.432  18.203  0.00  0.00    +0.000 C 
BRANCH  23  24
ATOM     24  C   UNL     1      -2.243  11.888  17.917  0.00  0.00    +0.000 C 
BRANCH  24  25
ATOM     25  N   UNL     1      -3.640  11.933  17.509  0.00  0.00    +0.000 NA
ATOM     26  H   UNL     1      -3.984  12.892  17.546  0.00  0.00    +0.000 HD
BRANCH  25  27
ATOM     27  C   UNL     1      -4.490  11.118  18.379  0.00  0.00    +0.000 C 
BRANCH  27  33
ATOM     28  C   UNL     1      -6.634  12.460  18.050  0.00  0.00    +0.000 A 
ATOM     29  C   UNL     1      -7.700  13.205  18.560  0.00  0.00    +0.000 A 
ATOM     30  C   UNL     1      -7.787  13.437  19.935  0.00  0.00    +0.000 A 
ATOM     31  C   UNL     1      -6.813  12.933  20.792  0.00  0.00    +0.000 A 
ATOM     32  C   UNL     1      -5.749  12.195  20.275  0.00  0.00    +0.000 A 
ATOM     33  C   UNL     1      -5.648  11.942  18.894  0.00  0.00    +0.000 A 
BRANCH  28  34
ATOM     34  O   UNL     1      -6.557  12.218  16.707  0.00  0.00    +0.000 OA
ATOM     35  H   UNL     1      -7.082  11.426  16.501  0.00  0.00    +0.000 HD
ENDBRANCH  28  34
ENDBRANCH  27  33
ENDBRANCH  25  27
ENDBRANCH  24  25
ENDBRANCH  23  24
ENDBRANCH  22  23
ENDBRANCH  21  22
ENDBRANCH  20  21
ENDBRANCH  19  20
ENDBRANCH   1  19
TORSDOF 12
ENDMDL
MODEL 9
REMARK VINA RESULT:      -7.4      2.175      3.786
REMARK  Name = 
REMARK  12 active torsions:
REMARK  status: ('A' for Active; 'I' for Inactive)
REMARK    1  A    between atoms: O_1  and  C_2
REMARK    2  A    between atoms: C_7  and  C_8
REMARK    3  A    between atoms: C_8  and  N_9
REMARK    4  A    between atoms: N_9  and  C_10
REMARK    5  A    between atoms: C_10  and  C_11
REMARK    6  A    between atoms: C_11  and  C_12
REMARK    7  A    between atoms: C_12  and  C_13
REMARK    8  A    between atoms: C_13  and  C_14
REMARK    9  A    between atoms: C_14  and  C_15
REMARK   10  A    between atoms: C_15  and  C_16
REMARK   11  A    between atoms: C_16  and  N_17
REMARK   12  A    between atoms: N_17  and  C_18
REMARK                            x       y       z     vdW  Elec       q    Type
REMARK                         _______ _______ _______ _____ _____    ______ ____
ROOT
ATOM      1  C   UNL     1       1.098   9.141  18.541  0.00  0.00    +0.000 C 
ENDROOT
BRANCH   1   2
ATOM      2  N   UNL     1       0.591  10.345  17.890  0.00  0.00    +0.000 N 
ATOM      3  H   UNL     1       0.147  10.077  17.019  0.00  0.00    +0.000 HD
BRANCH   2   4
ATOM      4  C   UNL     1      -0.269  11.213  18.641  0.00  0.00    +0.000 A 
ATOM      5  C   UNL     1       0.211  12.285  19.446  0.00  0.00    +0.000 A 
ATOM      6  C   UNL     1      -0.728  13.089  20.108  0.00  0.00    +0.000 A 
ATOM      7  N   UNL     1      -2.060  12.950  19.958  0.00  0.00    +0.000 NA
ATOM      8  C   UNL     1      -2.528  11.999  19.151  0.00  0.00    +0.000 A 
ATOM      9  C   UNL     1      -3.907  11.946  19.009  0.00  0.00    +0.000 A 
ATOM     10  C   UNL     1      -4.517  10.993  18.207  0.00  0.00    +0.000 A 
ATOM     11 CL   UNL     1      -6.231  10.965  18.051  0.00  0.00    +0.000 Cl
ATOM     12  C   UNL     1      -3.745  10.066  17.527  0.00  0.00    +0.000 A 
ATOM     13  C   UNL     1      -2.352  10.117  17.647  0.00  0.00    +0.000 A 
ATOM     14  C   UNL     1      -1.698  11.087  18.460  0.00  0.00    +0.000 A 
ATOM     15  C   UNL     1      -0.321  14.242  20.994  0.00  0.00    +0.000 C 
ATOM     16  C   UNL     1       1.110  14.148  21.504  0.00  0.00    +0.000 C 
ATOM     17  C   UNL     1       2.030  13.909  20.326  0.00  0.00    +0.000 C 
ATOM     18  C   UNL     1       1.677  12.589  19.656  0.00  0.00    +0.000 C 
ENDBRANCH   2   4
ENDBRANCH   1   2
BRANCH   1  19
ATOM     19  C   UNL     1       2.372   8.595  17.901  0.00  0.00    +0.000 C 
BRANCH  19  20
ATOM     20  C   UNL     1       2.376   7.056  17.973  0.00  0.00    +0.000 C 
BRANCH  20  21
ATOM     21  C   UNL     1       3.686   6.506  18.545  0.00  0.00    +0.000 C 
BRANCH  21  22
ATOM     22  C   UNL     1       4.614   5.962  17.463  0.00  0.00    +0.000 C 
BRANCH  22  23
ATOM     23  C   UNL     1       6.021   5.790  18.034  0.00  0.00    +0.000 C 
BRANCH  23  24
ATOM     24  C   UNL     1       6.055   4.758  19.160  0.00  0.00    +0.000 C 
BRANCH  24  25
ATOM     25  N   UNL     1       5.397   3.548  18.685  0.00  0.00    +0.000 NA
ATOM     26  H   UNL     1       4.679   3.785  18.001  0.00  0.00    +0.000 HD
BRANCH  25  27
ATOM     27  C   UNL     1       4.752   2.814  19.775  0.00  0.00    +0.000 C 
BRANCH  27  33
ATOM     28  C   UNL     1       2.384   2.790  20.725  0.00  0.00    +0.000 A 
ATOM     29  C   UNL     1       1.001   2.875  20.558  0.00  0.00    +0.000 A 
ATOM     30  C   UNL     1       0.467   3.060  19.280  0.00  0.00    +0.000 A 
ATOM     31  C   UNL     1       1.310   3.153  18.177  0.00  0.00    +0.000 A 
ATOM     32  C   UNL     1       2.691   3.062  18.351  0.00  0.00    +0.000 A 
ATOM     33  C   UNL     1       3.249   2.884  19.631  0.00  0.00    +0.000 A 
BRANCH  28  34
ATOM     34  O   UNL     1       2.908   2.625  21.977  0.00  0.00    +0.000 OA
ATOM     35  H   UNL     1       3.784   2.212  21.896  0.00  0.00    +0.000 HD
ENDBRANCH  28  34
ENDBRANCH  27  33
ENDBRANCH  25  27
ENDBRANCH  24  25
ENDBRANCH  23  24
ENDBRANCH  22  23
ENDBRANCH  21  22
ENDBRANCH  20  21
ENDBRANCH  19  20
ENDBRANCH   1  19
TORSDOF 12
ENDMDL
