MODEL 1
REMARK VINA RESULT:      -9.9      0.000      0.000
REMARK  Name = 
REMARK  5 active torsions:
REMARK  status: ('A' for Active; 'I' for Inactive)
REMARK    1  A    between atoms: C_2  and  C_22
REMARK    2  A    between atoms: N_3  and  C_4
REMARK    3  A    between atoms: C_11  and  C_13
REMARK    4  A    between atoms: C_27  and  O_28
REMARK    5  A    between atoms: O_28  and  C_29
REMARK                            x       y       z     vdW  Elec       q    Type
REMARK                         _______ _______ _______ _____ _____    ______ ____
ROOT
ATOM      1  C   UNL     1       1.507   9.483  17.951  0.00  0.00    +0.000 A 
ATOM      2  C   UNL     1       1.882  10.643  18.633  0.00  0.00    +0.000 A 
ATOM      3  C   UNL     1       0.928  11.577  19.074  0.00  0.00    +0.000 A 
ATOM      4  C   UNL     1      -0.438  11.350  18.830  0.00  0.00    +0.000 A 
ATOM      5  N   UNL     1      -1.491  12.170  19.219  0.00  0.00    +0.000 NA
ATOM      6  C   UNL     1      -2.618  11.681  18.762  0.00  0.00    +0.000 A 
ATOM      7  N   UNL     1      -3.818  12.320  18.980  0.00  0.00    +0.000 N 
ATOM      8  C   UNL     1      -4.992  12.065  18.301  0.00  0.00    +0.000 C 
ATOM      9  O   UNL     1      -5.111  11.271  17.374  0.00  0.00    +0.000 OA
ATOM     10  S   UNL     1      -2.507  10.185  17.953  0.00  0.00    +0.000 S 
ATOM     11  C   UNL     1      -0.800  10.200  18.133  0.00  0.00    +0.000 A 
ATOM     12  C   UNL     1       0.148   9.256  17.691  0.00  0.00    +0.000 A 
ATOM     13  H   UNL     1      -3.738  13.141  19.562  0.00  0.00    +0.000 HD
ENDROOT
BRANCH   8  14
ATOM     14  C   UNL     1      -6.170  12.954  18.736  0.00  0.00    +0.000 C 
ATOM     15  C   UNL     1      -7.467  12.129  18.847  0.00  0.00    +0.000 C 
ATOM     16  C   UNL     1      -7.469  11.193  20.058  0.00  0.00    +0.000 C 
ATOM     17  C   UNL     1      -7.181  11.940  21.355  0.00  0.00    +0.000 C 
ATOM     18  C   UNL     1      -5.910  12.782  21.265  0.00  0.00    +0.000 C 
ATOM     19  C   UNL     1      -5.924  13.708  20.051  0.00  0.00    +0.000 C 
ENDBRANCH   8  14
BRANCH   1  22
ATOM     20  O   UNL     1       2.628   7.204  19.420  0.00  0.00    +0.000 OA
ATOM     21  C   UNL     1       2.889   7.409  18.237  0.00  0.00    +0.000 C 
ATOM     22  N   UNL     1       2.416   8.487  17.509  0.00  0.00    +0.000 N 
ATOM     23  H   UNL     1       2.744   8.566  16.553  0.00  0.00    +0.000 HD
BRANCH  21  24
ATOM     24  C   UNL     1       3.761   6.404  17.531  0.00  0.00    +0.000 A 
ATOM     25  C   UNL     1       4.959   6.925  16.991  0.00  0.00    +0.000 A 
ATOM     26  C   UNL     1       5.896   6.110  16.357  0.00  0.00    +0.000 A 
ATOM     27  C   UNL     1       5.680   4.743  16.292  0.00  0.00    +0.000 A 
ATOM     28  C   UNL     1       4.515   4.203  16.835  0.00  0.00    +0.000 A 
ATOM     29  C   UNL     1       3.514   5.025  17.392  0.00  0.00    +0.000 A 
BRANCH  29  30
ATOM     30  O   UNL     1       2.318   4.488  17.840  0.00  0.00    +0.000 OA
BRANCH  30  31
ATOM     31  C   UNL     1       2.285   3.842  19.064  0.00  0.00    +0.000 A 
ATOM     32  C   UNL     1       1.058   3.812  19.730  0.00  0.00    +0.000 A 
ATOM     33  C   UNL     1       0.956   3.207  20.986  0.00  0.00    +0.000 A 
ATOM     34  C   UNL     1       2.079   2.631  21.580  0.00  0.00    +0.000 A 
ATOM     35  C   UNL     1       3.298   2.630  20.905  0.00  0.00    +0.000 A 
ATOM     36  C   UNL     1       3.394   3.205  19.635  0.00  0.00    +0.000 A 
ENDBRANCH  30  31
ENDBRANCH  29  30
ENDBRANCH  21  24
ENDBRANCH   1  22
TORSDOF 5
ENDMDL
MODEL 2
REMARK VINA RESULT:      -9.5      2.781      4.401
REMARK  Name = 
REMARK  5 active torsions:
REMARK  status: ('A' for Active; 'I' for Inactive)
REMARK    1  A    between atoms: C_2  and  C_22
REMARK    2  A    between atoms: N_3  and  C_4
REMARK    3  A    between atoms: C_11  and  C_13
REMARK    4  A    between atoms: C_27  and  O_28
REMARK    5  A    between atoms: O_28  and  C_29
REMARK                            x       y       z     vdW  Elec       q    Type
REMARK                         _______ _______ _______ _____ _____    ______ ____
ROOT
ATOM      1  C   UNL     1       1.931   8.106  18.950  0.00  0.00    +0.000 A 
ATOM      2  C   UNL     1       2.000   9.165  18.042  0.00  0.00    +0.000 A 
ATOM      3  C   UNL     1       1.490  10.438  18.356  0.00  0.00    +0.000 A 
ATOM      4  C   UNL     1       0.895  10.662  19.612  0.00  0.00    +0.000 A 
ATOM      5  N   UNL     1       0.366  11.863  20.068  0.00  0.00    +0.000 NA
ATOM      6  C   UNL     1      -0.164  11.684  21.254  0.00  0.00    +0.000 A 
ATOM      7  N   UNL     1      -0.788  12.713  21.924  0.00  0.00    +0.000 N 
ATOM      8  C   UNL     1      -1.627  12.565  23.009  0.00  0.00    +0.000 C 
ATOM      9  O   UNL     1      -1.973  11.492  23.490  0.00  0.00    +0.000 OA
ATOM     10  S   UNL     1       0.030  10.132  21.930  0.00  0.00    +0.000 S 
ATOM     11  C   UNL     1       0.815   9.594  20.502  0.00  0.00    +0.000 A 
ATOM     12  C   UNL     1       1.328   8.317  20.197  0.00  0.00    +0.000 A 
ATOM     13  H   UNL     1      -0.735  13.599  21.442  0.00  0.00    +0.000 HD
ENDROOT
BRANCH   8  14
ATOM     14  C   UNL     1      -2.204  13.890  23.536  0.00  0.00    +0.000 C 
ATOM     15  C   UNL     1      -2.660  14.792  22.372  0.00  0.00    +0.000 C 
ATOM     16  C   UNL     1      -3.932  14.280  21.692  0.00  0.00    +0.000 C 
ATOM     17  C   UNL     1      -5.062  14.062  22.691  0.00  0.00    +0.000 C 
ATOM     18  C   UNL     1      -4.630  13.186  23.866  0.00  0.00    +0.000 C 
ATOM     19  C   UNL     1      -3.360  13.710  24.532  0.00  0.00    +0.000 C 
ENDBRANCH   8  14
BRANCH   1  22
ATOM     20  O   UNL     1       1.547   5.626  20.470  0.00  0.00    +0.000 OA
ATOM     21  C   UNL     1       2.215   5.662  19.439  0.00  0.00    +0.000 C 
ATOM     22  N   UNL     1       2.456   6.810  18.705  0.00  0.00    +0.000 N 
ATOM     23  H   UNL     1       3.062   6.712  17.899  0.00  0.00    +0.000 HD
BRANCH  21  24
ATOM     24  C   UNL     1       2.784   4.363  18.931  0.00  0.00    +0.000 A 
ATOM     25  C   UNL     1       2.265   3.201  19.547  0.00  0.00    +0.000 A 
ATOM     26  C   UNL     1       2.652   1.922  19.148  0.00  0.00    +0.000 A 
ATOM     27  C   UNL     1       3.529   1.773  18.086  0.00  0.00    +0.000 A 
ATOM     28  C   UNL     1       4.039   2.904  17.449  0.00  0.00    +0.000 A 
ATOM     29  C   UNL     1       3.734   4.204  17.904  0.00  0.00    +0.000 A 
BRANCH  29  30
ATOM     30  O   UNL     1       4.322   5.318  17.327  0.00  0.00    +0.000 OA
BRANCH  30  31
ATOM     31  C   UNL     1       5.544   5.759  17.804  0.00  0.00    +0.000 A 
ATOM     32  C   UNL     1       6.167   6.785  17.091  0.00  0.00    +0.000 A 
ATOM     33  C   UNL     1       7.419   7.260  17.493  0.00  0.00    +0.000 A 
ATOM     34  C   UNL     1       8.052   6.710  18.608  0.00  0.00    +0.000 A 
ATOM     35  C   UNL     1       7.419   5.708  19.342  0.00  0.00    +0.000 A 
ATOM     36  C   UNL     1       6.153   5.257  18.961  0.00  0.00    +0.000 A 
ENDBRANCH  30  31
ENDBRANCH  29  30
ENDBRANCH  21  24
ENDBRANCH   1  22
TORSDOF 5
ENDMDL
MODEL 3
REMARK VINA RESULT:      -9.3      2.635      4.344
REMARK  Name = 
REMARK  5 active torsions:
REMARK  status: ('A' for Active; 'I' for Inactive)
REMARK    1  A    between atoms: C_2  and  C_22
REMARK    2  A    between atoms: N_3  and  C_4
REMARK    3  A    between atoms: C_11  and  C_13
REMARK    4  A    between atoms: C_27  and  O_28
REMARK    5  A    between atoms: O_28  and  C_29
REMARK                            x       y       z     vdW  Elec       q    Type
REMARK                         _______ _______ _______ _____ _____    ______ ____
ROOT
ATOM      1  C   UNL     1       1.794   7.931  20.015  0.00  0.00    +0.000 A 
ATOM      2  C   UNL     1       1.772   8.763  18.894  0.00  0.00    +0.000 A 
ATOM      3  C   UNL     1       1.072   9.983  18.897  0.00  0.00    +0.000 A 
ATOM      4  C   UNL     1       0.373  10.385  20.051  0.00  0.00    +0.000 A 
ATOM      5  N   UNL     1      -0.345  11.565  20.208  0.00  0.00    +0.000 NA
ATOM      6  C   UNL     1      -0.919  11.573  21.386  0.00  0.00    +0.000 A 
ATOM      7  N   UNL     1      -1.721  12.618  21.787  0.00  0.00    +0.000 N 
ATOM      8  C   UNL     1      -2.598  12.588  22.851  0.00  0.00    +0.000 C 
ATOM      9  O   UNL     1      -2.821  11.607  23.552  0.00  0.00    +0.000 OA
ATOM     10  S   UNL     1      -0.554  10.253  22.402  0.00  0.00    +0.000 S 
ATOM     11  C   UNL     1       0.387   9.539  21.157  0.00  0.00    +0.000 A 
ATOM     12  C   UNL     1       1.090   8.318  21.164  0.00  0.00    +0.000 A 
ATOM     13  H   UNL     1      -1.761  13.374  21.119  0.00  0.00    +0.000 HD
ENDROOT
BRANCH   8  14
ATOM     14  C   UNL     1      -3.386  13.895  23.048  0.00  0.00    +0.000 C 
ATOM     15  C   UNL     1      -4.129  14.286  21.755  0.00  0.00    +0.000 C 
ATOM     16  C   UNL     1      -5.326  13.377  21.465  0.00  0.00    +0.000 C 
ATOM     17  C   UNL     1      -6.284  13.303  22.648  0.00  0.00    +0.000 C 
ATOM     18  C   UNL     1      -5.568  12.935  23.946  0.00  0.00    +0.000 C 
ATOM     19  C   UNL     1      -4.376  13.851  24.220  0.00  0.00    +0.000 C 
ENDBRANCH   8  14
BRANCH   1  22
ATOM     20  O   UNL     1       0.782   5.208  20.429  0.00  0.00    +0.000 OA
ATOM     21  C   UNL     1       1.975   5.440  20.250  0.00  0.00    +0.000 C 
ATOM     22  N   UNL     1       2.508   6.706  20.087  0.00  0.00    +0.000 N 
ATOM     23  H   UNL     1       3.516   6.764  19.994  0.00  0.00    +0.000 HD
BRANCH  21  24
ATOM     24  C   UNL     1       2.912   4.262  20.180  0.00  0.00    +0.000 A 
ATOM     25  C   UNL     1       2.714   3.280  21.178  0.00  0.00    +0.000 A 
ATOM     26  C   UNL     1       3.465   2.105  21.213  0.00  0.00    +0.000 A 
ATOM     27  C   UNL     1       4.398   1.861  20.219  0.00  0.00    +0.000 A 
ATOM     28  C   UNL     1       4.598   2.805  19.213  0.00  0.00    +0.000 A 
ATOM     29  C   UNL     1       3.916   4.040  19.219  0.00  0.00    +0.000 A 
BRANCH  29  30
ATOM     30  O   UNL     1       4.192   5.011  18.270  0.00  0.00    +0.000 OA
BRANCH  30  31
ATOM     31  C   UNL     1       5.423   5.644  18.292  0.00  0.00    +0.000 A 
ATOM     32  C   UNL     1       5.644   6.629  17.327  0.00  0.00    +0.000 A 
ATOM     33  C   UNL     1       6.875   7.288  17.265  0.00  0.00    +0.000 A 
ATOM     34  C   UNL     1       7.890   6.964  18.166  0.00  0.00    +0.000 A 
ATOM     35  C   UNL     1       7.663   6.005  19.152  0.00  0.00    +0.000 A 
ATOM     36  C   UNL     1       6.421   5.370  19.235  0.00  0.00    +0.000 A 
ENDBRANCH  30  31
ENDBRANCH  29  30
ENDBRANCH  21  24
ENDBRANCH   1  22
TORSDOF 5
ENDMDL
MODEL 4
REMARK VINA RESULT:      -9.3      3.643      5.255
REMARK  Name = 
REMARK  5 active torsions:
REMARK  status: ('A' for Active; 'I' for Inactive)
REMARK    1  A    between atoms: C_2  and  C_22
REMARK    2  A    between atoms: N_3  and  C_4
REMARK    3  A    between atoms: C_11  and  C_13
REMARK    4  A    between atoms: C_27  and  O_28
REMARK    5  A    between atoms: O_28  and  C_29
REMARK                            x       y       z     vdW  Elec       q    Type
REMARK                         _______ _______ _______ _____ _____    ______ ____
ROOT
ATOM      1  C   UNL     1       1.793   7.968  20.188  0.00  0.00    +0.000 A 
ATOM      2  C   UNL     1       1.639   8.181  21.560  0.00  0.00    +0.000 A 
ATOM      3  C   UNL     1       1.119   9.387  22.064  0.00  0.00    +0.000 A 
ATOM      4  C   UNL     1       0.739  10.410  21.175  0.00  0.00    +0.000 A 
ATOM      5  N   UNL     1       0.195  11.641  21.523  0.00  0.00    +0.000 NA
ATOM      6  C   UNL     1       0.030  12.365  20.443  0.00  0.00    +0.000 A 
ATOM      7  N   UNL     1      -0.467  13.648  20.508  0.00  0.00    +0.000 N 
ATOM      8  C   UNL     1      -0.395  14.583  19.497  0.00  0.00    +0.000 C 
ATOM      9  O   UNL     1       0.170  14.416  18.421  0.00  0.00    +0.000 OA
ATOM     10  S   UNL     1       0.399  11.598  18.966  0.00  0.00    +0.000 S 
ATOM     11  C   UNL     1       0.914  10.194  19.810  0.00  0.00    +0.000 A 
ATOM     12  C   UNL     1       1.431   8.988  19.297  0.00  0.00    +0.000 A 
ATOM     13  H   UNL     1      -0.736  13.929  21.440  0.00  0.00    +0.000 HD
ENDROOT
BRANCH   8  14
ATOM     14  C   UNL     1      -1.011  15.945  19.862  0.00  0.00    +0.000 C 
ATOM     15  C   UNL     1      -0.408  16.485  21.174  0.00  0.00    +0.000 C 
ATOM     16  C   UNL     1       1.037  16.961  21.008  0.00  0.00    +0.000 C 
ATOM     17  C   UNL     1       1.175  17.979  19.881  0.00  0.00    +0.000 C 
ATOM     18  C   UNL     1       0.567  17.475  18.574  0.00  0.00    +0.000 C 
ATOM     19  C   UNL     1      -0.874  17.003  18.757  0.00  0.00    +0.000 C 
ENDBRANCH   8  14
BRANCH   1  22
ATOM     20  O   UNL     1       1.068   5.192  20.799  0.00  0.00    +0.000 OA
ATOM     21  C   UNL     1       1.878   5.476  19.920  0.00  0.00    +0.000 C 
ATOM     22  N   UNL     1       2.281   6.764  19.617  0.00  0.00    +0.000 N 
ATOM     23  H   UNL     1       2.991   6.860  18.900  0.00  0.00    +0.000 HD
BRANCH  21  24
ATOM     24  C   UNL     1       2.448   4.345  19.104  0.00  0.00    +0.000 A 
ATOM     25  C   UNL     1       1.973   3.059  19.450  0.00  0.00    +0.000 A 
ATOM     26  C   UNL     1       2.365   1.917  18.752  0.00  0.00    +0.000 A 
ATOM     27  C   UNL     1       3.201   2.041  17.655  0.00  0.00    +0.000 A 
ATOM     28  C   UNL     1       3.667   3.301  17.281  0.00  0.00    +0.000 A 
ATOM     29  C   UNL     1       3.359   4.452  18.036  0.00  0.00    +0.000 A 
BRANCH  29  30
ATOM     30  O   UNL     1       3.905   5.683  17.713  0.00  0.00    +0.000 OA
BRANCH  30  31
ATOM     31  C   UNL     1       5.227   5.939  18.032  0.00  0.00    +0.000 A 
ATOM     32  C   UNL     1       5.915   6.830  17.206  0.00  0.00    +0.000 A 
ATOM     33  C   UNL     1       7.264   7.111  17.446  0.00  0.00    +0.000 A 
ATOM     34  C   UNL     1       7.928   6.503  18.511  0.00  0.00    +0.000 A 
ATOM     35  C   UNL     1       7.236   5.638  19.357  0.00  0.00    +0.000 A 
ATOM     36  C   UNL     1       5.880   5.382  19.139  0.00  0.00    +0.000 A 
ENDBRANCH  30  31
ENDBRANCH  29  30
ENDBRANCH  21  24
ENDBRANCH   1  22
TORSDOF 5
ENDMDL
MODEL 5
REMARK VINA RESULT:      -9.3      2.867      4.515
REMARK  Name = 
REMARK  5 active torsions:
REMARK  status: ('A' for Active; 'I' for Inactive)
REMARK    1  A    between atoms: C_2  and  C_22
REMARK    2  A    between atoms: N_3  and  C_4
REMARK    3  A    between atoms: C_11  and  C_13
REMARK    4  A    between atoms: C_27  and  O_28
REMARK    5  A    between atoms: O_28  and  C_29
REMARK                            x       y       z     vdW  Elec       q    Type
REMARK                         _______ _______ _______ _____ _____    ______ ____
ROOT
ATOM      1  C   UNL     1       1.910   7.953  19.223  0.00  0.00    +0.000 A 
ATOM      2  C   UNL     1       1.962   8.941  18.237  0.00  0.00    +0.000 A 
ATOM      3  C   UNL     1       1.447  10.231  18.460  0.00  0.00    +0.000 A 
ATOM      4  C   UNL     1       0.864  10.545  19.701  0.00  0.00    +0.000 A 
ATOM      5  N   UNL     1       0.332  11.775  20.072  0.00  0.00    +0.000 NA
ATOM      6  C   UNL     1      -0.184  11.683  21.273  0.00  0.00    +0.000 A 
ATOM      7  N   UNL     1      -0.808  12.756  21.870  0.00  0.00    +0.000 N 
ATOM      8  C   UNL     1      -1.634  12.686  22.973  0.00  0.00    +0.000 C 
ATOM      9  O   UNL     1      -1.968  11.650  23.538  0.00  0.00    +0.000 OA
ATOM     10  S   UNL     1       0.027  10.188  22.063  0.00  0.00    +0.000 S 
ATOM     11  C   UNL     1       0.801   9.547  20.671  0.00  0.00    +0.000 A 
ATOM     12  C   UNL     1       1.318   8.254  20.457  0.00  0.00    +0.000 A 
ATOM     13  H   UNL     1      -0.766  13.603  21.322  0.00  0.00    +0.000 HD
ENDROOT
BRANCH   8  14
ATOM     14  C   UNL     1      -2.214  14.044  23.405  0.00  0.00    +0.000 C 
ATOM     15  C   UNL     1      -2.707  14.843  22.183  0.00  0.00    +0.000 C 
ATOM     16  C   UNL     1      -3.988  14.266  21.578  0.00  0.00    +0.000 C 
ATOM     17  C   UNL     1      -5.092  14.118  22.618  0.00  0.00    +0.000 C 
ATOM     18  C   UNL     1      -4.624  13.345  23.849  0.00  0.00    +0.000 C 
ATOM     19  C   UNL     1      -3.344  13.933  24.439  0.00  0.00    +0.000 C 
ENDBRANCH   8  14
BRANCH   1  22
ATOM     20  O   UNL     1       1.198   5.481  20.634  0.00  0.00    +0.000 OA
ATOM     21  C   UNL     1       2.043   5.503  19.742  0.00  0.00    +0.000 C 
ATOM     22  N   UNL     1       2.441   6.645  19.071  0.00  0.00    +0.000 N 
ATOM     23  H   UNL     1       3.182   6.534  18.388  0.00  0.00    +0.000 HD
BRANCH  21  24
ATOM     24  C   UNL     1       2.666   4.191  19.339  0.00  0.00    +0.000 A 
ATOM     25  C   UNL     1       1.756   3.217  18.867  0.00  0.00    +0.000 A 
ATOM     26  C   UNL     1       2.185   1.973  18.406  0.00  0.00    +0.000 A 
ATOM     27  C   UNL     1       3.540   1.692  18.357  0.00  0.00    +0.000 A 
ATOM     28  C   UNL     1       4.458   2.644  18.798  0.00  0.00    +0.000 A 
ATOM     29  C   UNL     1       4.036   3.868  19.358  0.00  0.00    +0.000 A 
BRANCH  29  30
ATOM     30  O   UNL     1       4.951   4.765  19.883  0.00  0.00    +0.000 OA
BRANCH  30  31
ATOM     31  C   UNL     1       5.760   5.486  19.021  0.00  0.00    +0.000 A 
ATOM     32  C   UNL     1       7.089   5.670  19.407  0.00  0.00    +0.000 A 
ATOM     33  C   UNL     1       7.957   6.416  18.604  0.00  0.00    +0.000 A 
ATOM     34  C   UNL     1       7.498   6.981  17.413  0.00  0.00    +0.000 A 
ATOM     35  C   UNL     1       6.181   6.773  17.008  0.00  0.00    +0.000 A 
ATOM     36  C   UNL     1       5.322   5.999  17.794  0.00  0.00    +0.000 A 
ENDBRANCH  30  31
ENDBRANCH  29  30
ENDBRANCH  21  24
ENDBRANCH   1  22
TORSDOF 5
ENDMDL
MODEL 6
REMARK VINA RESULT:      -9.1      3.166      4.806
REMARK  Name = 
REMARK  5 active torsions:
REMARK  status: ('A' for Active; 'I' for Inactive)
REMARK    1  A    between atoms: C_2  and  C_22
REMARK    2  A    between atoms: N_3  and  C_4
REMARK    3  A    between atoms: C_11  and  C_13
REMARK    4  A    between atoms: C_27  and  O_28
REMARK    5  A    between atoms: O_28  and  C_29
REMARK                            x       y       z     vdW  Elec       q    Type
REMARK                         _______ _______ _______ _____ _____    ______ ____
ROOT
ATOM      1  C   UNL     1       1.804   8.074  19.841  0.00  0.00    +0.000 A 
ATOM      2  C   UNL     1       1.755   8.858  18.685  0.00  0.00    +0.000 A 
ATOM      3  C   UNL     1       1.074  10.088  18.659  0.00  0.00    +0.000 A 
ATOM      4  C   UNL     1       0.424  10.552  19.818  0.00  0.00    +0.000 A 
ATOM      5  N   UNL     1      -0.269  11.749  19.947  0.00  0.00    +0.000 NA
ATOM      6  C   UNL     1      -0.801  11.819  21.143  0.00  0.00    +0.000 A 
ATOM      7  N   UNL     1      -1.571  12.894  21.526  0.00  0.00    +0.000 N 
ATOM      8  C   UNL     1      -2.410  12.926  22.620  0.00  0.00    +0.000 C 
ATOM      9  O   UNL     1      -2.623  11.980  23.371  0.00  0.00    +0.000 OA
ATOM     10  S   UNL     1      -0.421  10.539  22.203  0.00  0.00    +0.000 S 
ATOM     11  C   UNL     1       0.464   9.754  20.959  0.00  0.00    +0.000 A 
ATOM     12  C   UNL     1       1.147   8.523  20.995  0.00  0.00    +0.000 A 
ATOM     13  H   UNL     1      -1.623  13.621  20.827  0.00  0.00    +0.000 HD
ENDROOT
BRANCH   8  14
ATOM     14  C   UNL     1      -3.170  14.254  22.786  0.00  0.00    +0.000 C 
ATOM     15  C   UNL     1      -3.793  14.356  24.192  0.00  0.00    +0.000 C 
ATOM     16  C   UNL     1      -2.748  14.590  25.285  0.00  0.00    +0.000 C 
ATOM     17  C   UNL     1      -1.871  15.800  24.984  0.00  0.00    +0.000 C 
ATOM     18  C   UNL     1      -1.256  15.731  23.588  0.00  0.00    +0.000 C 
ATOM     19  C   UNL     1      -2.311  15.497  22.510  0.00  0.00    +0.000 C 
ENDBRANCH   8  14
BRANCH   1  22
ATOM     20  O   UNL     1       0.777   5.404  20.491  0.00  0.00    +0.000 OA
ATOM     21  C   UNL     1       1.960   5.600  20.219  0.00  0.00    +0.000 C 
ATOM     22  N   UNL     1       2.501   6.842  19.941  0.00  0.00    +0.000 N 
ATOM     23  H   UNL     1       3.501   6.873  19.778  0.00  0.00    +0.000 HD
BRANCH  21  24
ATOM     24  C   UNL     1       2.870   4.400  20.161  0.00  0.00    +0.000 A 
ATOM     25  C   UNL     1       2.638   3.424  21.158  0.00  0.00    +0.000 A 
ATOM     26  C   UNL     1       3.362   2.233  21.203  0.00  0.00    +0.000 A 
ATOM     27  C   UNL     1       4.300   1.965  20.220  0.00  0.00    +0.000 A 
ATOM     28  C   UNL     1       4.532   2.903  19.214  0.00  0.00    +0.000 A 
ATOM     29  C   UNL     1       3.879   4.154  19.211  0.00  0.00    +0.000 A 
BRANCH  29  30
ATOM     30  O   UNL     1       4.188   5.117  18.264  0.00  0.00    +0.000 OA
BRANCH  30  31
ATOM     31  C   UNL     1       5.438   5.711  18.290  0.00  0.00    +0.000 A 
ATOM     32  C   UNL     1       5.693   6.686  17.323  0.00  0.00    +0.000 A 
ATOM     33  C   UNL     1       6.945   7.306  17.265  0.00  0.00    +0.000 A 
ATOM     34  C   UNL     1       7.944   6.954  18.172  0.00  0.00    +0.000 A 
ATOM     35  C   UNL     1       7.683   6.005  19.158  0.00  0.00    +0.000 A 
ATOM     36  C   UNL     1       6.422   5.409  19.238  0.00  0.00    +0.000 A 
ENDBRANCH  30  31
ENDBRANCH  29  30
ENDBRANCH  21  24
ENDBRANCH   1  22
TORSDOF 5
ENDMDL
MODEL 7
REMARK VINA RESULT:      -9.1      4.086      5.567
REMARK  Name = 
REMARK  5 active torsions:
REMARK  status: ('A' for Active; 'I' for Inactive)
REMARK    1  A    between atoms: C_2  and  C_22
REMARK    2  A    between atoms: N_3  and  C_4
REMARK    3  A    between atoms: C_11  and  C_13
REMARK    4  A    between atoms: C_27  and  O_28
REMARK    5  A    between atoms: O_28  and  C_29
REMARK                            x       y       z     vdW  Elec       q    Type
REMARK                         _______ _______ _______ _____ _____    ______ ____
ROOT
ATOM      1  C   UNL     1       1.660   8.281  19.970  0.00  0.00    +0.000 A 
ATOM      2  C   UNL     1       1.250   8.427  21.298  0.00  0.00    +0.000 A 
ATOM      3  C   UNL     1       0.865   9.677  21.815  0.00  0.00    +0.000 A 
ATOM      4  C   UNL     1       0.889  10.814  20.986  0.00  0.00    +0.000 A 
ATOM      5  N   UNL     1       0.521  12.104  21.349  0.00  0.00    +0.000 NA
ATOM      6  C   UNL     1       0.736  12.919  20.345  0.00  0.00    +0.000 A 
ATOM      7  N   UNL     1       0.485  14.268  20.448  0.00  0.00    +0.000 N 
ATOM      8  C   UNL     1       0.952  15.235  19.583  0.00  0.00    +0.000 C 
ATOM      9  O   UNL     1       1.699  15.028  18.632  0.00  0.00    +0.000 OA
ATOM     10  S   UNL     1       1.272  12.193  18.898  0.00  0.00    +0.000 S 
ATOM     11  C   UNL     1       1.317  10.660  19.670  0.00  0.00    +0.000 A 
ATOM     12  C   UNL     1       1.700   9.411  19.142  0.00  0.00    +0.000 A 
ATOM     13  H   UNL     1       0.074  14.536  21.332  0.00  0.00    +0.000 HD
ENDROOT
BRANCH   8  14
ATOM     14  C   UNL     1       0.536  16.667  19.963  0.00  0.00    +0.000 C 
ATOM     15  C   UNL     1       1.586  17.689  19.483  0.00  0.00    +0.000 C 
ATOM     16  C   UNL     1       1.574  17.878  17.965  0.00  0.00    +0.000 C 
ATOM     17  C   UNL     1       0.185  18.234  17.447  0.00  0.00    +0.000 C 
ATOM     18  C   UNL     1      -0.878  17.246  17.925  0.00  0.00    +0.000 C 
ATOM     19  C   UNL     1      -0.851  17.068  19.441  0.00  0.00    +0.000 C 
ENDBRANCH   8  14
BRANCH   1  22
ATOM     20  O   UNL     1       1.638   5.586  21.132  0.00  0.00    +0.000 OA
ATOM     21  C   UNL     1       1.967   5.791  19.965  0.00  0.00    +0.000 C 
ATOM     22  N   UNL     1       2.029   7.043  19.381  0.00  0.00    +0.000 N 
ATOM     23  H   UNL     1       2.360   7.080  18.423  0.00  0.00    +0.000 HD
BRANCH  21  24
ATOM     24  C   UNL     1       2.299   4.593  19.113  0.00  0.00    +0.000 A 
ATOM     25  C   UNL     1       1.731   3.374  19.548  0.00  0.00    +0.000 A 
ATOM     26  C   UNL     1       1.901   2.188  18.835  0.00  0.00    +0.000 A 
ATOM     27  C   UNL     1       2.600   2.203  17.640  0.00  0.00    +0.000 A 
ATOM     28  C   UNL     1       3.152   3.398  17.179  0.00  0.00    +0.000 A 
ATOM     29  C   UNL     1       3.073   4.585  17.938  0.00  0.00    +0.000 A 
BRANCH  29  30
ATOM     30  O   UNL     1       3.708   5.742  17.519  0.00  0.00    +0.000 OA
BRANCH  30  31
ATOM     31  C   UNL     1       5.049   5.920  17.812  0.00  0.00    +0.000 A 
ATOM     32  C   UNL     1       5.531   5.299  18.967  0.00  0.00    +0.000 A 
ATOM     33  C   UNL     1       6.866   5.461  19.346  0.00  0.00    +0.000 A 
ATOM     34  C   UNL     1       7.724   6.245  18.574  0.00  0.00    +0.000 A 
ATOM     35  C   UNL     1       7.256   6.840  17.404  0.00  0.00    +0.000 A 
ATOM     36  C   UNL     1       5.930   6.651  17.006  0.00  0.00    +0.000 A 
ENDBRANCH  30  31
ENDBRANCH  29  30
ENDBRANCH  21  24
ENDBRANCH   1  22
TORSDOF 5
ENDMDL
MODEL 8
REMARK VINA RESULT:      -9.1      3.144      4.484
REMARK  Name = 
REMARK  5 active torsions:
REMARK  status: ('A' for Active; 'I' for Inactive)
REMARK    1  A    between atoms: C_2  and  C_22
REMARK    2  A    between atoms: N_3  and  C_4
REMARK    3  A    between atoms: C_11  and  C_13
REMARK    4  A    between atoms: C_27  and  O_28
REMARK    5  A    between atoms: O_28  and  C_29
REMARK                            x       y       z     vdW  Elec       q    Type
REMARK                         _______ _______ _______ _____ _____    ______ ____
ROOT
ATOM      1  C   UNL     1       1.705   8.886  18.809  0.00  0.00    +0.000 A 
ATOM      2  C   UNL     1       2.001  10.022  18.053  0.00  0.00    +0.000 A 
ATOM      3  C   UNL     1       1.656  11.312  18.496  0.00  0.00    +0.000 A 
ATOM      4  C   UNL     1       0.998  11.474  19.729  0.00  0.00    +0.000 A 
ATOM      5  N   UNL     1       0.614  12.680  20.303  0.00  0.00    +0.000 NA
ATOM      6  C   UNL     1      -0.033  12.446  21.418  0.00  0.00    +0.000 A 
ATOM      7  N   UNL     1      -0.555  13.472  22.175  0.00  0.00    +0.000 N 
ATOM      8  C   UNL     1      -1.493  13.328  23.175  0.00  0.00    +0.000 C 
ATOM      9  O   UNL     1      -2.030  12.271  23.491  0.00  0.00    +0.000 OA
ATOM     10  S   UNL     1      -0.123  10.814  21.900  0.00  0.00    +0.000 S 
ATOM     11  C   UNL     1       0.692  10.334  20.467  0.00  0.00    +0.000 A 
ATOM     12  C   UNL     1       1.037   9.039  20.032  0.00  0.00    +0.000 A 
ATOM     13  H   UNL     1      -0.334  14.390  21.816  0.00  0.00    +0.000 HD
ENDROOT
BRANCH   8  14
ATOM     14  C   UNL     1      -1.914  14.655  23.832  0.00  0.00    +0.000 C 
ATOM     15  C   UNL     1      -2.143  15.745  22.767  0.00  0.00    +0.000 C 
ATOM     16  C   UNL     1      -3.419  15.515  21.953  0.00  0.00    +0.000 C 
ATOM     17  C   UNL     1      -4.643  15.355  22.847  0.00  0.00    +0.000 C 
ATOM     18  C   UNL     1      -4.434  14.293  23.924  0.00  0.00    +0.000 C 
ATOM     19  C   UNL     1      -3.157  14.536  24.726  0.00  0.00    +0.000 C 
ENDBRANCH   8  14
BRANCH   1  22
ATOM     20  O   UNL     1       2.108   6.518  20.495  0.00  0.00    +0.000 OA
ATOM     21  C   UNL     1       2.200   6.471  19.270  0.00  0.00    +0.000 C 
ATOM     22  N   UNL     1       2.055   7.563  18.434  0.00  0.00    +0.000 N 
ATOM     23  H   UNL     1       2.200   7.397  17.444  0.00  0.00    +0.000 HD
BRANCH  21  24
ATOM     24  C   UNL     1       2.462   5.126  18.642  0.00  0.00    +0.000 A 
ATOM     25  C   UNL     1       1.710   4.057  19.180  0.00  0.00    +0.000 A 
ATOM     26  C   UNL     1       1.801   2.763  18.669  0.00  0.00    +0.000 A 
ATOM     27  C   UNL     1       2.608   2.517  17.571  0.00  0.00    +0.000 A 
ATOM     28  C   UNL     1       3.345   3.560  17.009  0.00  0.00    +0.000 A 
ATOM     29  C   UNL     1       3.340   4.852  17.576  0.00  0.00    +0.000 A 
BRANCH  29  30
ATOM     30  O   UNL     1       4.149   5.855  17.070  0.00  0.00    +0.000 OA
BRANCH  30  31
ATOM     31  C   UNL     1       5.410   6.041  17.610  0.00  0.00    +0.000 A 
ATOM     32  C   UNL     1       5.732   5.283  18.738  0.00  0.00    +0.000 A 
ATOM     33  C   UNL     1       6.974   5.441  19.359  0.00  0.00    +0.000 A 
ATOM     34  C   UNL     1       7.898   6.358  18.856  0.00  0.00    +0.000 A 
ATOM     35  C   UNL     1       7.593   7.093  17.711  0.00  0.00    +0.000 A 
ATOM     36  C   UNL     1       6.365   6.911  17.070  0.00  0.00    +0.000 A 
ENDBRANCH  30  31
ENDBRANCH  29  30
ENDBRANCH  21  24
ENDBRANCH   1  22
TORSDOF 5
ENDMDL
MODEL 9
REMARK VINA RESULT:      -9.1      2.935      3.755
REMARK  Name = 
REMARK  5 active torsions:
REMARK  status: ('A' for Active; 'I' for Inactive)
REMARK    1  A    between atoms: C_2  and  C_22
REMARK    2  A    between atoms: N_3  and  C_4
REMARK    3  A    between atoms: C_11  and  C_13
REMARK    4  A    between atoms: C_27  and  O_28
REMARK    5  A    between atoms: O_28  and  C_29
REMARK                            x       y       z     vdW  Elec       q    Type
REMARK                         _______ _______ _______ _____ _____    ______ ____
ROOT
ATOM      1  C   UNL     1       2.469   7.114  19.232  0.00  0.00    +0.000 A 
ATOM      2  C   UNL     1       1.941   6.338  20.266  0.00  0.00    +0.000 A 
ATOM      3  C   UNL     1       1.070   6.885  21.226  0.00  0.00    +0.000 A 
ATOM      4  C   UNL     1       0.714   8.244  21.153  0.00  0.00    +0.000 A 
ATOM      5  N   UNL     1      -0.145   8.916  22.014  0.00  0.00    +0.000 NA
ATOM      6  C   UNL     1      -0.189  10.184  21.685  0.00  0.00    +0.000 A 
ATOM      7  N   UNL     1      -0.945  11.085  22.400  0.00  0.00    +0.000 N 
ATOM      8  C   UNL     1      -0.825  12.458  22.333  0.00  0.00    +0.000 C 
ATOM      9  O   UNL     1       0.009  13.060  21.666  0.00  0.00    +0.000 OA
ATOM     10  S   UNL     1       0.686  10.623  20.290  0.00  0.00    +0.000 S 
ATOM     11  C   UNL     1       1.261   9.013  20.129  0.00  0.00    +0.000 A 
ATOM     12  C   UNL     1       2.130   8.473  19.161  0.00  0.00    +0.000 A 
ATOM     13  H   UNL     1      -1.489  10.660  23.138  0.00  0.00    +0.000 HD
ENDROOT
BRANCH   8  14
ATOM     14  C   UNL     1      -1.785  13.215  23.268  0.00  0.00    +0.000 C 
ATOM     15  C   UNL     1      -1.944  14.681  22.820  0.00  0.00    +0.000 C 
ATOM     16  C   UNL     1      -2.769  14.819  21.538  0.00  0.00    +0.000 C 
ATOM     17  C   UNL     1      -4.124  14.131  21.656  0.00  0.00    +0.000 C 
ATOM     18  C   UNL     1      -3.995  12.681  22.118  0.00  0.00    +0.000 C 
ATOM     19  C   UNL     1      -3.168  12.561  23.397  0.00  0.00    +0.000 C 
ENDBRANCH   8  14
BRANCH   1  22
ATOM     20  O   UNL     1       4.977   5.612  19.483  0.00  0.00    +0.000 OA
ATOM     21  C   UNL     1       4.484   5.881  18.390  0.00  0.00    +0.000 C 
ATOM     22  N   UNL     1       3.325   6.615  18.216  0.00  0.00    +0.000 N 
ATOM     23  H   UNL     1       3.050   6.807  17.259  0.00  0.00    +0.000 HD
BRANCH  21  24
ATOM     24  C   UNL     1       5.178   5.350  17.163  0.00  0.00    +0.000 A 
ATOM     25  C   UNL     1       6.522   5.763  17.009  0.00  0.00    +0.000 A 
ATOM     26  C   UNL     1       7.314   5.312  15.954  0.00  0.00    +0.000 A 
ATOM     27  C   UNL     1       6.797   4.395  15.054  0.00  0.00    +0.000 A 
ATOM     28  C   UNL     1       5.481   3.956  15.197  0.00  0.00    +0.000 A 
ATOM     29  C   UNL     1       4.637   4.477  16.200  0.00  0.00    +0.000 A 
BRANCH  29  30
ATOM     30  O   UNL     1       3.304   4.108  16.273  0.00  0.00    +0.000 OA
BRANCH  30  31
ATOM     31  C   UNL     1       2.875   3.333  17.337  0.00  0.00    +0.000 A 
ATOM     32  C   UNL     1       1.603   3.604  17.844  0.00  0.00    +0.000 A 
ATOM     33  C   UNL     1       1.115   2.886  18.940  0.00  0.00    +0.000 A 
ATOM     34  C   UNL     1       1.899   1.897  19.534  0.00  0.00    +0.000 A 
ATOM     35  C   UNL     1       3.157   1.601  19.012  0.00  0.00    +0.000 A 
ATOM     36  C   UNL     1       3.631   2.295  17.895  0.00  0.00    +0.000 A 
ENDBRANCH  30  31
ENDBRANCH  29  30
ENDBRANCH  21  24
ENDBRANCH   1  22
TORSDOF 5
ENDMDL
