MODEL 1
REMARK VINA RESULT:      -7.2      0.000      0.000
REMARK  Name = 
REMARK  7 active torsions:
REMARK  status: ('A' for Active; 'I' for Inactive)
REMARK    1  A    between atoms: N_2  and  C_4
REMARK    2  A    between atoms: C_7  and  S_8
REMARK    3  A    between atoms: S_8  and  N_11
REMARK    4  A    between atoms: N_14  and  C_15
REMARK    5  A    between atoms: C_15  and  N_17
REMARK    6  A    between atoms: N_17  and  C_18
REMARK    7  A    between atoms: C_18  and  C_19
REMARK                            x       y       z     vdW  Elec       q    Type
REMARK                         _______ _______ _______ _____ _____    ______ ____
ROOT
ATOM      1  N   UNL     1       3.224   4.440  18.797  0.00  0.00    +0.000 NA
ATOM      2  C   UNL     1       2.326   4.532  19.985  0.00  0.00    +0.000 C 
ATOM      3  C   UNL     1       2.274   5.945  20.569  0.00  0.00    +0.000 C 
ATOM      4  N   UNL     1       1.910   6.958  19.570  0.00  0.00    +0.000 N 
ATOM      5  C   UNL     1       2.711   6.891  18.339  0.00  0.00    +0.000 C 
ATOM      6  C   UNL     1       2.829   5.464  17.766  0.00  0.00    +0.000 C 
ENDROOT
BRANCH   1   7
ATOM      7  S   UNL     1       4.902   4.319  19.081  0.00  0.00    +0.000 S 
ATOM      8  O   UNL     1       5.174   2.981  19.556  0.00  0.00    +0.000 OA
ATOM      9  O   UNL     1       5.308   5.479  19.844  0.00  0.00    +0.000 OA
BRANCH   7  13
ATOM     10  C   UNL     1       6.745   4.781  14.920  0.00  0.00    +0.000 A 
ATOM     11  C   UNL     1       5.820   3.752  15.163  0.00  0.00    +0.000 A 
ATOM     12  C   UNL     1       5.262   3.607  16.441  0.00  0.00    +0.000 A 
ATOM     13  C   UNL     1       5.637   4.487  17.465  0.00  0.00    +0.000 A 
ATOM     14  C   UNL     1       6.549   5.525  17.217  0.00  0.00    +0.000 A 
ATOM     15  C   UNL     1       7.106   5.671  15.941  0.00  0.00    +0.000 A 
BRANCH  10  17
ATOM     16  O   UNL     1       8.241   5.762  13.434  0.00  0.00    +0.000 OA
ATOM     17  N   UNL     1       7.341   4.924  13.584  0.00  0.00    +0.000 N 
ATOM     18  O   UNL     1       6.898   4.204  12.675  0.00  0.00    +0.000 OA
ENDBRANCH  10  17
ENDBRANCH   7  13
ENDBRANCH   1   7
BRANCH   4  19
ATOM     19  C   UNL     1       1.610   8.246  20.057  0.00  0.00    +0.000 C 
ATOM     20  S   UNL     1       1.300   8.614  21.663  0.00  0.00    +0.000 S 
BRANCH  19  21
ATOM     21  N   UNL     1       1.493   9.141  19.017  0.00  0.00    +0.000 N 
ATOM     22  H   UNL     1       1.588   8.766  18.083  0.00  0.00    +0.000 HD
BRANCH  21  23
ATOM     23  C   UNL     1       0.851  10.459  19.085  0.00  0.00    +0.000 C 
BRANCH  23  24
ATOM     24  C   UNL     1      -0.668  10.342  18.890  0.00  0.00    +0.000 C 
ATOM     25  C   UNL     1      -1.105   9.794  17.537  0.00  0.00    +0.000 C 
ATOM     26  C   UNL     1      -2.465  10.427  17.372  0.00  0.00    +0.000 C 
ATOM     27  C   UNL     1      -2.256  11.795  17.983  0.00  0.00    +0.000 C 
ATOM     28  O   UNL     1      -1.275  11.646  19.017  0.00  0.00    +0.000 OA
ENDBRANCH  23  24
ENDBRANCH  21  23
ENDBRANCH  19  21
ENDBRANCH   4  19
TORSDOF 7
ENDMDL
MODEL 2
REMARK VINA RESULT:      -7.2      2.439      2.948
REMARK  Name = 
REMARK  7 active torsions:
REMARK  status: ('A' for Active; 'I' for Inactive)
REMARK    1  A    between atoms: N_2  and  C_4
REMARK    2  A    between atoms: C_7  and  S_8
REMARK    3  A    between atoms: S_8  and  N_11
REMARK    4  A    between atoms: N_14  and  C_15
REMARK    5  A    between atoms: C_15  and  N_17
REMARK    6  A    between atoms: N_17  and  C_18
REMARK    7  A    between atoms: C_18  and  C_19
REMARK                            x       y       z     vdW  Elec       q    Type
REMARK                         _______ _______ _______ _____ _____    ______ ____
ROOT
ATOM      1  N   UNL     1       2.010   3.066  19.572  0.00  0.00    +0.000 NA
ATOM      2  C   UNL     1       1.784   4.001  20.713  0.00  0.00    +0.000 C 
ATOM      3  C   UNL     1       2.396   5.381  20.467  0.00  0.00    +0.000 C 
ATOM      4  N   UNL     1       1.942   5.987  19.210  0.00  0.00    +0.000 N 
ATOM      5  C   UNL     1       2.074   5.101  18.044  0.00  0.00    +0.000 C 
ATOM      6  C   UNL     1       1.519   3.683  18.290  0.00  0.00    +0.000 C 
ENDROOT
BRANCH   1   7
ATOM      7  S   UNL     1       3.534   2.304  19.464  0.00  0.00    +0.000 S 
ATOM      8  O   UNL     1       3.392   1.154  18.601  0.00  0.00    +0.000 OA
ATOM      9  O   UNL     1       4.060   2.171  20.805  0.00  0.00    +0.000 OA
BRANCH   7  13
ATOM     10  C   UNL     1       6.133   5.390  17.310  0.00  0.00    +0.000 A 
ATOM     11  C   UNL     1       5.421   4.436  16.564  0.00  0.00    +0.000 A 
ATOM     12  C   UNL     1       4.630   3.486  17.226  0.00  0.00    +0.000 A 
ATOM     13  C   UNL     1       4.564   3.495  18.626  0.00  0.00    +0.000 A 
ATOM     14  C   UNL     1       5.264   4.458  19.369  0.00  0.00    +0.000 A 
ATOM     15  C   UNL     1       6.052   5.407  18.708  0.00  0.00    +0.000 A 
BRANCH  10  17
ATOM     16  O   UNL     1       6.988   7.538  17.049  0.00  0.00    +0.000 OA
ATOM     17  N   UNL     1       6.973   6.377  16.615  0.00  0.00    +0.000 N 
ATOM     18  O   UNL     1       7.612   5.994  15.623  0.00  0.00    +0.000 OA
ENDBRANCH  10  17
ENDBRANCH   7  13
ENDBRANCH   1   7
BRANCH   4  19
ATOM     19  C   UNL     1       2.265   7.344  19.009  0.00  0.00    +0.000 C 
ATOM     20  S   UNL     1       3.167   7.933  17.724  0.00  0.00    +0.000 S 
BRANCH  19  21
ATOM     21  N   UNL     1       1.839   8.106  20.074  0.00  0.00    +0.000 N 
ATOM     22  H   UNL     1       2.337   7.985  20.946  0.00  0.00    +0.000 HD
BRANCH  21  23
ATOM     23  C   UNL     1       1.046   9.338  19.988  0.00  0.00    +0.000 C 
BRANCH  23  24
ATOM     24  C   UNL     1       0.755   9.904  21.385  0.00  0.00    +0.000 C 
ATOM     25  C   UNL     1      -0.205   9.076  22.231  0.00  0.00    +0.000 C 
ATOM     26  C   UNL     1      -0.814  10.127  23.126  0.00  0.00    +0.000 C 
ATOM     27  C   UNL     1      -0.922  11.314  22.195  0.00  0.00    +0.000 C 
ATOM     28  O   UNL     1       0.162  11.215  21.263  0.00  0.00    +0.000 OA
ENDBRANCH  23  24
ENDBRANCH  21  23
ENDBRANCH  19  21
ENDBRANCH   4  19
TORSDOF 7
ENDMDL
MODEL 3
REMARK VINA RESULT:      -7.0      2.378      3.022
REMARK  Name = 
REMARK  7 active torsions:
REMARK  status: ('A' for Active; 'I' for Inactive)
REMARK    1  A    between atoms: N_2  and  C_4
REMARK    2  A    between atoms: C_7  and  S_8
REMARK    3  A    between atoms: S_8  and  N_11
REMARK    4  A    between atoms: N_14  and  C_15
REMARK    5  A    between atoms: C_15  and  N_17
REMARK    6  A    between atoms: N_17  and  C_18
REMARK    7  A    between atoms: C_18  and  C_19
REMARK                            x       y       z     vdW  Elec       q    Type
REMARK                         _______ _______ _______ _____ _____    ______ ____
ROOT
ATOM      1  N   UNL     1       1.942   3.043  19.637  0.00  0.00    +0.000 NA
ATOM      2  C   UNL     1       1.744   3.979  20.782  0.00  0.00    +0.000 C 
ATOM      3  C   UNL     1       2.376   5.350  20.530  0.00  0.00    +0.000 C 
ATOM      4  N   UNL     1       1.917   5.965  19.278  0.00  0.00    +0.000 N 
ATOM      5  C   UNL     1       2.021   5.078  18.110  0.00  0.00    +0.000 C 
ATOM      6  C   UNL     1       1.445   3.669  18.361  0.00  0.00    +0.000 C 
ENDROOT
BRANCH   1   7
ATOM      7  S   UNL     1       3.451   2.256  19.510  0.00  0.00    +0.000 S 
ATOM      8  O   UNL     1       3.246   1.020  18.790  0.00  0.00    +0.000 OA
ATOM      9  O   UNL     1       4.067   2.264  20.819  0.00  0.00    +0.000 OA
BRANCH   7  13
ATOM     10  C   UNL     1       5.994   4.994  16.873  0.00  0.00    +0.000 A 
ATOM     11  C   UNL     1       6.009   5.159  18.268  0.00  0.00    +0.000 A 
ATOM     12  C   UNL     1       5.224   4.324  19.074  0.00  0.00    +0.000 A 
ATOM     13  C   UNL     1       4.426   3.337  18.479  0.00  0.00    +0.000 A 
ATOM     14  C   UNL     1       4.424   3.163  17.087  0.00  0.00    +0.000 A 
ATOM     15  C   UNL     1       5.209   3.995  16.282  0.00  0.00    +0.000 A 
BRANCH  10  17
ATOM     16  O   UNL     1       6.688   5.783  14.797  0.00  0.00    +0.000 OA
ATOM     17  N   UNL     1       6.807   5.880  16.027  0.00  0.00    +0.000 N 
ATOM     18  O   UNL     1       7.579   6.669  16.593  0.00  0.00    +0.000 OA
ENDBRANCH  10  17
ENDBRANCH   7  13
ENDBRANCH   1   7
BRANCH   4  19
ATOM     19  C   UNL     1       2.259   7.316  19.075  0.00  0.00    +0.000 C 
ATOM     20  S   UNL     1       3.144   7.894  17.773  0.00  0.00    +0.000 S 
BRANCH  19  21
ATOM     21  N   UNL     1       1.870   8.081  20.151  0.00  0.00    +0.000 N 
ATOM     22  H   UNL     1       2.425   7.997  20.992  0.00  0.00    +0.000 HD
BRANCH  21  23
ATOM     23  C   UNL     1       1.024   9.279  20.093  0.00  0.00    +0.000 C 
BRANCH  23  24
ATOM     24  C   UNL     1       0.759   9.835  21.501  0.00  0.00    +0.000 C 
ATOM     25  C   UNL     1      -0.323   9.106  22.289  0.00  0.00    +0.000 C 
ATOM     26  C   UNL     1      -0.827  10.197  23.202  0.00  0.00    +0.000 C 
ATOM     27  C   UNL     1      -0.757  11.416  22.309  0.00  0.00    +0.000 C 
ATOM     28  O   UNL     1       0.337  11.212  21.406  0.00  0.00    +0.000 OA
ENDBRANCH  23  24
ENDBRANCH  21  23
ENDBRANCH  19  21
ENDBRANCH   4  19
TORSDOF 7
ENDMDL
MODEL 4
REMARK VINA RESULT:      -7.0      0.717      1.303
REMARK  Name = 
REMARK  7 active torsions:
REMARK  status: ('A' for Active; 'I' for Inactive)
REMARK    1  A    between atoms: N_2  and  C_4
REMARK    2  A    between atoms: C_7  and  S_8
REMARK    3  A    between atoms: S_8  and  N_11
REMARK    4  A    between atoms: N_14  and  C_15
REMARK    5  A    between atoms: C_15  and  N_17
REMARK    6  A    between atoms: N_17  and  C_18
REMARK    7  A    between atoms: C_18  and  C_19
REMARK                            x       y       z     vdW  Elec       q    Type
REMARK                         _______ _______ _______ _____ _____    ______ ____
ROOT
ATOM      1  N   UNL     1       2.772   4.830  18.769  0.00  0.00    +0.000 NA
ATOM      2  C   UNL     1       1.812   4.848  19.912  0.00  0.00    +0.000 C 
ATOM      3  C   UNL     1       1.837   6.175  20.674  0.00  0.00    +0.000 C 
ATOM      4  N   UNL     1       1.617   7.334  19.801  0.00  0.00    +0.000 N 
ATOM      5  C   UNL     1       2.486   7.355  18.615  0.00  0.00    +0.000 C 
ATOM      6  C   UNL     1       2.525   6.008  17.864  0.00  0.00    +0.000 C 
ENDROOT
BRANCH   1   7
ATOM      7  S   UNL     1       4.415   4.528  19.121  0.00  0.00    +0.000 S 
ATOM      8  O   UNL     1       4.524   3.161  19.578  0.00  0.00    +0.000 OA
ATOM      9  O   UNL     1       4.906   5.626  19.926  0.00  0.00    +0.000 OA
BRANCH   7  13
ATOM     10  C   UNL     1       6.552   4.799  15.086  0.00  0.00    +0.000 A 
ATOM     11  C   UNL     1       6.929   5.655  16.135  0.00  0.00    +0.000 A 
ATOM     12  C   UNL     1       6.268   5.576  17.368  0.00  0.00    +0.000 A 
ATOM     13  C   UNL     1       5.234   4.647  17.541  0.00  0.00    +0.000 A 
ATOM     14  C   UNL     1       4.868   3.781  16.499  0.00  0.00    +0.000 A 
ATOM     15  C   UNL     1       5.529   3.859  15.268  0.00  0.00    +0.000 A 
BRANCH  10  17
ATOM     16  O   UNL     1       8.176   5.693  13.682  0.00  0.00    +0.000 OA
ATOM     17  N   UNL     1       7.236   4.892  13.789  0.00  0.00    +0.000 N 
ATOM     18  O   UNL     1       6.825   4.171  12.867  0.00  0.00    +0.000 OA
ENDBRANCH  10  17
ENDBRANCH   7  13
ENDBRANCH   1   7
BRANCH   4  19
ATOM     19  C   UNL     1       1.392   8.571  20.437  0.00  0.00    +0.000 C 
ATOM     20  S   UNL     1       1.278   8.787  22.096  0.00  0.00    +0.000 S 
BRANCH  19  21
ATOM     21  N   UNL     1       1.162   9.560  19.507  0.00  0.00    +0.000 N 
ATOM     22  H   UNL     1       1.306   9.311  18.537  0.00  0.00    +0.000 HD
BRANCH  21  23
ATOM     23  C   UNL     1       0.356  10.768  19.717  0.00  0.00    +0.000 C 
BRANCH  23  24
ATOM     24  C   UNL     1      -0.451  11.117  18.458  0.00  0.00    +0.000 C 
ATOM     25  C   UNL     1      -1.859  11.639  18.718  0.00  0.00    +0.000 C 
ATOM     26  C   UNL     1      -2.580  11.226  17.458  0.00  0.00    +0.000 C 
ATOM     27  C   UNL     1      -1.948   9.886  17.155  0.00  0.00    +0.000 C 
ATOM     28  O   UNL     1      -0.598   9.941  17.635  0.00  0.00    +0.000 OA
ENDBRANCH  23  24
ENDBRANCH  21  23
ENDBRANCH  19  21
ENDBRANCH   4  19
TORSDOF 7
ENDMDL
MODEL 5
REMARK VINA RESULT:      -6.9      2.473      3.003
REMARK  Name = 
REMARK  7 active torsions:
REMARK  status: ('A' for Active; 'I' for Inactive)
REMARK    1  A    between atoms: N_2  and  C_4
REMARK    2  A    between atoms: C_7  and  S_8
REMARK    3  A    between atoms: S_8  and  N_11
REMARK    4  A    between atoms: N_14  and  C_15
REMARK    5  A    between atoms: C_15  and  N_17
REMARK    6  A    between atoms: N_17  and  C_18
REMARK    7  A    between atoms: C_18  and  C_19
REMARK                            x       y       z     vdW  Elec       q    Type
REMARK                         _______ _______ _______ _____ _____    ______ ____
ROOT
ATOM      1  N   UNL     1       2.105   2.610  19.852  0.00  0.00    +0.000 NA
ATOM      2  C   UNL     1       1.854   3.317  21.142  0.00  0.00    +0.000 C 
ATOM      3  C   UNL     1       2.293   4.783  21.099  0.00  0.00    +0.000 C 
ATOM      4  N   UNL     1       1.692   5.522  19.983  0.00  0.00    +0.000 N 
ATOM      5  C   UNL     1       1.843   4.856  18.682  0.00  0.00    +0.000 C 
ATOM      6  C   UNL     1       1.464   3.361  18.715  0.00  0.00    +0.000 C 
ENDROOT
BRANCH   1   7
ATOM      7  S   UNL     1       3.692   2.062  19.546  0.00  0.00    +0.000 S 
ATOM      8  O   UNL     1       3.598   0.865  18.742  0.00  0.00    +0.000 OA
ATOM      9  O   UNL     1       4.412   2.064  20.801  0.00  0.00    +0.000 OA
BRANCH   7  13
ATOM     10  C   UNL     1       5.593   5.325  16.965  0.00  0.00    +0.000 A 
ATOM     11  C   UNL     1       5.716   5.381  18.364  0.00  0.00    +0.000 A 
ATOM     12  C   UNL     1       5.127   4.385  19.154  0.00  0.00    +0.000 A 
ATOM     13  C   UNL     1       4.415   3.345  18.540  0.00  0.00    +0.000 A 
ATOM     14  C   UNL     1       4.306   3.281  17.142  0.00  0.00    +0.000 A 
ATOM     15  C   UNL     1       4.895   4.275  16.353  0.00  0.00    +0.000 A 
BRANCH  10  17
ATOM     16  O   UNL     1       5.494   6.921  15.276  0.00  0.00    +0.000 OA
ATOM     17  N   UNL     1       6.200   6.378  16.138  0.00  0.00    +0.000 N 
ATOM     18  O   UNL     1       7.391   6.657  16.342  0.00  0.00    +0.000 OA
ENDBRANCH  10  17
ENDBRANCH   7  13
ENDBRANCH   1   7
BRANCH   4  19
ATOM     19  C   UNL     1       1.850   6.922  19.995  0.00  0.00    +0.000 C 
ATOM     20  S   UNL     1       2.376   7.837  18.692  0.00  0.00    +0.000 S 
BRANCH  19  21
ATOM     21  N   UNL     1       1.626   7.424  21.258  0.00  0.00    +0.000 N 
ATOM     22  H   UNL     1       1.729   6.776  22.028  0.00  0.00    +0.000 HD
BRANCH  21  23
ATOM     23  C   UNL     1       1.665   8.841  21.640  0.00  0.00    +0.000 C 
BRANCH  23  24
ATOM     24  C   UNL     1       0.262   9.462  21.593  0.00  0.00    +0.000 C 
ATOM     25  C   UNL     1      -0.046  10.267  20.335  0.00  0.00    +0.000 C 
ATOM     26  C   UNL     1      -1.067  11.255  20.843  0.00  0.00    +0.000 C 
ATOM     27  C   UNL     1      -0.556  11.554  22.235  0.00  0.00    +0.000 C 
ATOM     28  O   UNL     1       0.095  10.367  22.706  0.00  0.00    +0.000 OA
ENDBRANCH  23  24
ENDBRANCH  21  23
ENDBRANCH  19  21
ENDBRANCH   4  19
TORSDOF 7
ENDMDL
MODEL 6
REMARK VINA RESULT:      -6.9      2.551      3.016
REMARK  Name = 
REMARK  7 active torsions:
REMARK  status: ('A' for Active; 'I' for Inactive)
REMARK    1  A    between atoms: N_2  and  C_4
REMARK    2  A    between atoms: C_7  and  S_8
REMARK    3  A    between atoms: S_8  and  N_11
REMARK    4  A    between atoms: N_14  and  C_15
REMARK    5  A    between atoms: C_15  and  N_17
REMARK    6  A    between atoms: N_17  and  C_18
REMARK    7  A    between atoms: C_18  and  C_19
REMARK                            x       y       z     vdW  Elec       q    Type
REMARK                         _______ _______ _______ _____ _____    ______ ____
ROOT
ATOM      1  N   UNL     1       1.947   2.784  19.252  0.00  0.00    +0.000 NA
ATOM      2  C   UNL     1       1.376   3.397  20.487  0.00  0.00    +0.000 C 
ATOM      3  C   UNL     1       1.856   4.835  20.700  0.00  0.00    +0.000 C 
ATOM      4  N   UNL     1       1.604   5.694  19.537  0.00  0.00    +0.000 N 
ATOM      5  C   UNL     1       2.083   5.128  18.267  0.00  0.00    +0.000 C 
ATOM      6  C   UNL     1       1.663   3.658  18.059  0.00  0.00    +0.000 C 
ENDROOT
BRANCH   1   7
ATOM      7  S   UNL     1       3.540   2.177  19.333  0.00  0.00    +0.000 S 
ATOM      8  O   UNL     1       3.600   0.985  18.517  0.00  0.00    +0.000 OA
ATOM      9  O   UNL     1       3.934   2.150  20.725  0.00  0.00    +0.000 OA
BRANCH   7  13
ATOM     10  C   UNL     1       6.040   5.428  17.308  0.00  0.00    +0.000 A 
ATOM     11  C   UNL     1       5.377   4.468  16.525  0.00  0.00    +0.000 A 
ATOM     12  C   UNL     1       4.617   3.468  17.147  0.00  0.00    +0.000 A 
ATOM     13  C   UNL     1       4.532   3.433  18.545  0.00  0.00    +0.000 A 
ATOM     14  C   UNL     1       5.181   4.401  19.326  0.00  0.00    +0.000 A 
ATOM     15  C   UNL     1       5.938   5.401  18.705  0.00  0.00    +0.000 A 
BRANCH  10  17
ATOM     16  O   UNL     1       7.616   6.124  15.746  0.00  0.00    +0.000 OA
ATOM     17  N   UNL     1       6.848   6.468  16.655  0.00  0.00    +0.000 N 
ATOM     18  O   UNL     1       6.724   7.634  17.060  0.00  0.00    +0.000 OA
ENDBRANCH  10  17
ENDBRANCH   7  13
ENDBRANCH   1   7
BRANCH   4  19
ATOM     19  C   UNL     1       1.796   7.078  19.721  0.00  0.00    +0.000 C 
ATOM     20  S   UNL     1       2.381   8.127  18.551  0.00  0.00    +0.000 S 
BRANCH  19  21
ATOM     21  N   UNL     1       1.548   7.432  21.029  0.00  0.00    +0.000 N 
ATOM     22  H   UNL     1       1.646   6.702  21.722  0.00  0.00    +0.000 HD
BRANCH  21  23
ATOM     23  C   UNL     1       1.566   8.796  21.569  0.00  0.00    +0.000 C 
BRANCH  23  24
ATOM     24  C   UNL     1       0.160   9.414  21.552  0.00  0.00    +0.000 C 
ATOM     25  C   UNL     1       0.065  10.786  20.895  0.00  0.00    +0.000 C 
ATOM     26  C   UNL     1      -1.117  11.391  21.612  0.00  0.00    +0.000 C 
ATOM     27  C   UNL     1      -0.942  10.860  23.018  0.00  0.00    +0.000 C 
ATOM     28  O   UNL     1      -0.314   9.577  22.906  0.00  0.00    +0.000 OA
ENDBRANCH  23  24
ENDBRANCH  21  23
ENDBRANCH  19  21
ENDBRANCH   4  19
TORSDOF 7
ENDMDL
MODEL 7
REMARK VINA RESULT:      -6.9      1.142      1.768
REMARK  Name = 
REMARK  7 active torsions:
REMARK  status: ('A' for Active; 'I' for Inactive)
REMARK    1  A    between atoms: N_2  and  C_4
REMARK    2  A    between atoms: C_7  and  S_8
REMARK    3  A    between atoms: S_8  and  N_11
REMARK    4  A    between atoms: N_14  and  C_15
REMARK    5  A    between atoms: C_15  and  N_17
REMARK    6  A    between atoms: N_17  and  C_18
REMARK    7  A    between atoms: C_18  and  C_19
REMARK                            x       y       z     vdW  Elec       q    Type
REMARK                         _______ _______ _______ _____ _____    ______ ____
ROOT
ATOM      1  N   UNL     1       3.024   4.703  18.731  0.00  0.00    +0.000 NA
ATOM      2  C   UNL     1       2.081   4.731  19.887  0.00  0.00    +0.000 C 
ATOM      3  C   UNL     1       2.048   6.096  20.579  0.00  0.00    +0.000 C 
ATOM      4  N   UNL     1       1.756   7.195  19.651  0.00  0.00    +0.000 N 
ATOM      5  C   UNL     1       2.605   7.199  18.451  0.00  0.00    +0.000 C 
ATOM      6  C   UNL     1       2.704   5.818  17.770  0.00  0.00    +0.000 C 
ENDROOT
BRANCH   1   7
ATOM      7  S   UNL     1       4.685   4.504  19.069  0.00  0.00    +0.000 S 
ATOM      8  O   UNL     1       4.880   3.153  19.545  0.00  0.00    +0.000 OA
ATOM      9  O   UNL     1       5.118   5.641  19.853  0.00  0.00    +0.000 OA
BRANCH   7  13
ATOM     10  C   UNL     1       6.765   4.841  15.010  0.00  0.00    +0.000 A 
ATOM     11  C   UNL     1       7.041   5.783  16.015  0.00  0.00    +0.000 A 
ATOM     12  C   UNL     1       6.398   5.682  17.257  0.00  0.00    +0.000 A 
ATOM     13  C   UNL     1       5.480   4.646  17.479  0.00  0.00    +0.000 A 
ATOM     14  C   UNL     1       5.217   3.698  16.479  0.00  0.00    +0.000 A 
ATOM     15  C   UNL     1       5.861   3.797  15.241  0.00  0.00    +0.000 A 
BRANCH  10  17
ATOM     16  O   UNL     1       8.372   5.754  13.597  0.00  0.00    +0.000 OA
ATOM     17  N   UNL     1       7.430   4.955  13.704  0.00  0.00    +0.000 N 
ATOM     18  O   UNL     1       7.002   4.253  12.775  0.00  0.00    +0.000 OA
ENDBRANCH  10  17
ENDBRANCH   7  13
ENDBRANCH   1   7
BRANCH   4  19
ATOM     19  C   UNL     1       1.476   8.450  20.228  0.00  0.00    +0.000 C 
ATOM     20  S   UNL     1       1.305   8.732  21.871  0.00  0.00    +0.000 S 
BRANCH  19  21
ATOM     21  N   UNL     1       1.247   9.392  19.249  0.00  0.00    +0.000 N 
ATOM     22  H   UNL     1       1.876   9.386  18.458  0.00  0.00    +0.000 HD
BRANCH  21  23
ATOM     23  C   UNL     1      -0.015  10.107  19.023  0.00  0.00    +0.000 C 
BRANCH  23  24
ATOM     24  C   UNL     1       0.116  11.589  19.403  0.00  0.00    +0.000 C 
ATOM     25  C   UNL     1      -0.526  12.565  18.424  0.00  0.00    +0.000 C 
ATOM     26  C   UNL     1       0.311  13.804  18.629  0.00  0.00    +0.000 C 
ATOM     27  C   UNL     1       1.690  13.223  18.849  0.00  0.00    +0.000 C 
ATOM     28  O   UNL     1       1.512  11.948  19.479  0.00  0.00    +0.000 OA
ENDBRANCH  23  24
ENDBRANCH  21  23
ENDBRANCH  19  21
ENDBRANCH   4  19
TORSDOF 7
ENDMDL
MODEL 8
REMARK VINA RESULT:      -6.9      1.768      2.238
REMARK  Name = 
REMARK  7 active torsions:
REMARK  status: ('A' for Active; 'I' for Inactive)
REMARK    1  A    between atoms: N_2  and  C_4
REMARK    2  A    between atoms: C_7  and  S_8
REMARK    3  A    between atoms: S_8  and  N_11
REMARK    4  A    between atoms: N_14  and  C_15
REMARK    5  A    between atoms: C_15  and  N_17
REMARK    6  A    between atoms: N_17  and  C_18
REMARK    7  A    between atoms: C_18  and  C_19
REMARK                            x       y       z     vdW  Elec       q    Type
REMARK                         _______ _______ _______ _____ _____    ______ ____
ROOT
ATOM      1  N   UNL     1       3.149   4.376  18.841  0.00  0.00    +0.000 NA
ATOM      2  C   UNL     1       2.267   4.627  20.018  0.00  0.00    +0.000 C 
ATOM      3  C   UNL     1       2.225   6.105  20.410  0.00  0.00    +0.000 C 
ATOM      4  N   UNL     1       1.848   6.978  19.291  0.00  0.00    +0.000 N 
ATOM      5  C   UNL     1       2.633   6.747  18.070  0.00  0.00    +0.000 C 
ATOM      6  C   UNL     1       2.742   5.256  17.689  0.00  0.00    +0.000 C 
ENDROOT
BRANCH   1   7
ATOM      7  S   UNL     1       4.831   4.288  19.117  0.00  0.00    +0.000 S 
ATOM      8  O   UNL     1       5.132   2.955  19.586  0.00  0.00    +0.000 OA
ATOM      9  O   UNL     1       5.216   5.454  19.882  0.00  0.00    +0.000 OA
BRANCH   7  13
ATOM     10  C   UNL     1       6.726   4.741  14.979  0.00  0.00    +0.000 A 
ATOM     11  C   UNL     1       7.108   5.605  16.019  0.00  0.00    +0.000 A 
ATOM     12  C   UNL     1       6.521   5.469  17.285  0.00  0.00    +0.000 A 
ATOM     13  C   UNL     1       5.554   4.477  17.497  0.00  0.00    +0.000 A 
ATOM     14  C   UNL     1       5.185   3.605  16.462  0.00  0.00    +0.000 A 
ATOM     15  C   UNL     1       5.772   3.739  15.199  0.00  0.00    +0.000 A 
BRANCH  10  17
ATOM     16  O   UNL     1       8.204   5.761  13.500  0.00  0.00    +0.000 OA
ATOM     17  N   UNL     1       7.332   4.893  13.648  0.00  0.00    +0.000 N 
ATOM     18  O   UNL     1       6.927   4.149  12.742  0.00  0.00    +0.000 OA
ENDBRANCH  10  17
ENDBRANCH   7  13
ENDBRANCH   1   7
BRANCH   4  19
ATOM     19  C   UNL     1       1.558   8.320  19.607  0.00  0.00    +0.000 C 
ATOM     20  S   UNL     1       1.748   9.614  18.558  0.00  0.00    +0.000 S 
BRANCH  19  21
ATOM     21  N   UNL     1       1.206   8.440  20.933  0.00  0.00    +0.000 N 
ATOM     22  H   UNL     1       1.255   7.599  21.493  0.00  0.00    +0.000 HD
BRANCH  21  23
ATOM     23  C   UNL     1       1.173   9.688  21.705  0.00  0.00    +0.000 C 
BRANCH  23  24
ATOM     24  C   UNL     1      -0.269  10.189  21.880  0.00  0.00    +0.000 C 
ATOM     25  C   UNL     1      -0.727  11.210  20.845  0.00  0.00    +0.000 C 
ATOM     26  C   UNL     1      -1.769  11.984  21.615  0.00  0.00    +0.000 C 
ATOM     27  C   UNL     1      -1.172  12.026  23.004  0.00  0.00    +0.000 C 
ATOM     28  O   UNL     1      -0.408  10.825  23.168  0.00  0.00    +0.000 OA
ENDBRANCH  23  24
ENDBRANCH  21  23
ENDBRANCH  19  21
ENDBRANCH   4  19
TORSDOF 7
ENDMDL
MODEL 9
REMARK VINA RESULT:      -6.8      3.184      7.342
REMARK  Name = 
REMARK  7 active torsions:
REMARK  status: ('A' for Active; 'I' for Inactive)
REMARK    1  A    between atoms: N_2  and  C_4
REMARK    2  A    between atoms: C_7  and  S_8
REMARK    3  A    between atoms: S_8  and  N_11
REMARK    4  A    between atoms: N_14  and  C_15
REMARK    5  A    between atoms: C_15  and  N_17
REMARK    6  A    between atoms: N_17  and  C_18
REMARK    7  A    between atoms: C_18  and  C_19
REMARK                            x       y       z     vdW  Elec       q    Type
REMARK                         _______ _______ _______ _____ _____    ______ ____
ROOT
ATOM      1  N   UNL     1       2.938   1.961  19.500  0.00  0.00    +0.000 NA
ATOM      2  C   UNL     1       3.337   1.726  18.082  0.00  0.00    +0.000 C 
ATOM      3  C   UNL     1       3.889   2.988  17.414  0.00  0.00    +0.000 C 
ATOM      4  N   UNL     1       4.997   3.590  18.166  0.00  0.00    +0.000 N 
ATOM      5  C   UNL     1       4.701   3.795  19.592  0.00  0.00    +0.000 C 
ATOM      6  C   UNL     1       4.087   2.555  20.272  0.00  0.00    +0.000 C 
ENDROOT
BRANCH   1   7
ATOM      7  S   UNL     1       1.426   2.699  19.784  0.00  0.00    +0.000 S 
ATOM      8  O   UNL     1       1.154   2.617  21.201  0.00  0.00    +0.000 OA
ATOM      9  O   UNL     1       0.488   2.179  18.813  0.00  0.00    +0.000 OA
BRANCH   7  13
ATOM     10  C   UNL     1       2.045   7.107  18.731  0.00  0.00    +0.000 A 
ATOM     11  C   UNL     1       1.839   6.167  17.707  0.00  0.00    +0.000 A 
ATOM     12  C   UNL     1       1.656   4.816  18.031  0.00  0.00    +0.000 A 
ATOM     13  C   UNL     1       1.688   4.415  19.373  0.00  0.00    +0.000 A 
ATOM     14  C   UNL     1       1.878   5.357  20.396  0.00  0.00    +0.000 A 
ATOM     15  C   UNL     1       2.058   6.706  20.073  0.00  0.00    +0.000 A 
BRANCH  10  17
ATOM     16  O   UNL     1       2.985   8.789  17.428  0.00  0.00    +0.000 OA
ATOM     17  N   UNL     1       2.250   8.522  18.389  0.00  0.00    +0.000 N 
ATOM     18  O   UNL     1       1.684   9.373  19.093  0.00  0.00    +0.000 OA
ENDBRANCH  10  17
ENDBRANCH   7  13
ENDBRANCH   1   7
BRANCH   4  19
ATOM     19  C   UNL     1       5.718   4.613  17.519  0.00  0.00    +0.000 C 
ATOM     20  S   UNL     1       6.820   5.629  18.270  0.00  0.00    +0.000 S 
BRANCH  19  21
ATOM     21  N   UNL     1       5.308   4.741  16.211  0.00  0.00    +0.000 N 
ATOM     22  H   UNL     1       4.317   4.637  16.034  0.00  0.00    +0.000 HD
BRANCH  21  23
ATOM     23  C   UNL     1       6.056   5.404  15.136  0.00  0.00    +0.000 C 
BRANCH  23  24
ATOM     24  C   UNL     1       6.634   4.375  14.153  0.00  0.00    +0.000 C 
ATOM     25  C   UNL     1       7.336   4.969  12.936  0.00  0.00    +0.000 C 
ATOM     26  C   UNL     1       7.151   3.878  11.910  0.00  0.00    +0.000 C 
ATOM     27  C   UNL     1       5.763   3.369  12.233  0.00  0.00    +0.000 C 
ATOM     28  O   UNL     1       5.572   3.541  13.643  0.00  0.00    +0.000 OA
ENDBRANCH  23  24
ENDBRANCH  21  23
ENDBRANCH  19  21
ENDBRANCH   4  19
TORSDOF 7
ENDMDL
