MODEL 1
REMARK VINA RESULT:      -7.7      0.000      0.000
REMARK  Name = 
REMARK  3 active torsions:
REMARK  status: ('A' for Active; 'I' for Inactive)
REMARK    1  A    between atoms: C_1  and  C_2
REMARK    2  A    between atoms: C_10  and  C_11
REMARK    3  A    between atoms: C_21  and  C_22
REMARK                            x       y       z     vdW  Elec       q    Type
REMARK                         _______ _______ _______ _____ _____    ______ ____
ROOT
ATOM      1  C   UNL     1      -3.161  13.953  22.923  0.00  0.00    +0.000 A 
ATOM      2  C   UNL     1      -2.767  12.763  23.550  0.00  0.00    +0.000 A 
ATOM      3  C   UNL     1      -1.793  12.025  22.863  0.00  0.00    +0.000 A 
ATOM      4  C   UNL     1      -1.186  12.699  21.809  0.00  0.00    +0.000 A 
ATOM      5  C   UNL     1      -0.884  13.978  22.224  0.00  0.00    +0.000 A 
ATOM      6  C   UNL     1      -2.028  14.702  22.566  0.00  0.00    +0.000 A 
ATOM      7  C   UNL     1       0.553  14.472  22.053  0.00  0.00    +0.000 C 
ATOM      8  N   UNL     1       1.228  14.193  20.767  0.00  0.00    +0.000 NA
ATOM      9  C   UNL     1       1.683  12.808  20.573  0.00  0.00    +0.000 C 
ATOM     10  C   UNL     1       0.595  11.764  20.589  0.00  0.00    +0.000 C 
ATOM     11  C   UNL     1      -0.793  12.371  20.363  0.00  0.00    +0.000 C 
ATOM     12  C   UNL     1      -0.919  13.824  19.635  0.00  0.00    +0.000 C 
ATOM     13  C   UNL     1       0.387  14.600  19.655  0.00  0.00    +0.000 C 
ENDROOT
BRANCH   1  23
ATOM     14  C   UNL     1      -4.021  15.952  20.647  0.00  0.00    +0.000 C 
ATOM     15  C   UNL     1      -4.707  14.628  20.778  0.00  0.00    +0.000 A 
ATOM     16  C   UNL     1      -5.705  14.280  19.923  0.00  0.00    +0.000 A 
ATOM     17  C   UNL     1      -6.404  13.048  20.073  0.00  0.00    +0.000 A 
ATOM     18  N   UNL     1      -7.382  12.484  19.396  0.00  0.00    +0.000 NA
ATOM     19  C   UNL     1      -7.592  11.319  20.083  0.00  0.00    +0.000 A 
ATOM     20  N   UNL     1      -6.797  11.123  21.130  0.00  0.00    +0.000 NA
ATOM     21  N   UNL     1      -6.033  12.245  21.125  0.00  0.00    +0.000 N 
ATOM     22  C   UNL     1      -5.020  12.591  21.997  0.00  0.00    +0.000 A 
ATOM     23  C   UNL     1      -4.307  13.745  21.897  0.00  0.00    +0.000 A 
ENDBRANCH   1  23
BRANCH  11  24
ATOM     24  C   UNL     1      -1.372  11.458  19.257  0.00  0.00    +0.000 A 
ATOM     25  C   UNL     1      -0.783  10.418  18.562  0.00  0.00    +0.000 A 
ATOM     26  C   UNL     1      -1.443   9.864  17.434  0.00  0.00    +0.000 A 
ATOM     27  C   UNL     1      -2.687  10.339  16.980  0.00  0.00    +0.000 A 
ATOM     28 CL   UNL     1      -3.350   9.713  15.515  0.00  0.00    +0.000 Cl
ATOM     29  C   UNL     1      -3.318  11.347  17.679  0.00  0.00    +0.000 A 
ATOM     30 CL   UNL     1      -4.828  12.058  17.229  0.00  0.00    +0.000 Cl
ATOM     31  C   UNL     1      -2.667  11.879  18.781  0.00  0.00    +0.000 A 
ENDBRANCH  11  24
TORSDOF 2
ENDMDL
MODEL 2
REMARK VINA RESULT:      -7.7      8.847     12.476
REMARK  Name = 
REMARK  3 active torsions:
REMARK  status: ('A' for Active; 'I' for Inactive)
REMARK    1  A    between atoms: C_1  and  C_2
REMARK    2  A    between atoms: C_10  and  C_11
REMARK    3  A    between atoms: C_21  and  C_22
REMARK                            x       y       z     vdW  Elec       q    Type
REMARK                         _______ _______ _______ _____ _____    ______ ____
ROOT
ATOM      1  C   UNL     1      10.054  16.362  17.736  0.00  0.00    +0.000 A 
ATOM      2  C   UNL     1      10.992  16.719  18.715  0.00  0.00    +0.000 A 
ATOM      3  C   UNL     1      11.391  15.676  19.562  0.00  0.00    +0.000 A 
ATOM      4  C   UNL     1      11.001  14.407  19.149  0.00  0.00    +0.000 A 
ATOM      5  C   UNL     1      11.236  14.295  17.795  0.00  0.00    +0.000 A 
ATOM      6  C   UNL     1      10.489  15.214  17.056  0.00  0.00    +0.000 A 
ATOM      7  C   UNL     1      12.065  13.109  17.303  0.00  0.00    +0.000 C 
ATOM      8  N   UNL     1      11.762  11.776  17.867  0.00  0.00    +0.000 NA
ATOM      9  C   UNL     1      12.241  11.540  19.236  0.00  0.00    +0.000 C 
ATOM     10  C   UNL     1      11.673  12.461  20.286  0.00  0.00    +0.000 C 
ATOM     11  C   UNL     1      10.397  13.162  19.812  0.00  0.00    +0.000 C 
ATOM     12  C   UNL     1       9.534  12.509  18.593  0.00  0.00    +0.000 C 
ATOM     13  C   UNL     1      10.337  11.504  17.785  0.00  0.00    +0.000 C 
ENDROOT
BRANCH   1  23
ATOM     14  C   UNL     1       8.859  18.593  19.610  0.00  0.00    +0.000 C 
ATOM     15  C   UNL     1       7.971  17.516  19.071  0.00  0.00    +0.000 A 
ATOM     16  C   UNL     1       6.649  17.488  19.387  0.00  0.00    +0.000 A 
ATOM     17  C   UNL     1       5.806  16.436  18.927  0.00  0.00    +0.000 A 
ATOM     18  N   UNL     1       4.523  16.181  19.081  0.00  0.00    +0.000 NA
ATOM     19  C   UNL     1       4.365  15.006  18.398  0.00  0.00    +0.000 A 
ATOM     20  N   UNL     1       5.462  14.528  17.821  0.00  0.00    +0.000 NA
ATOM     21  N   UNL     1       6.395  15.451  18.169  0.00  0.00    +0.000 N 
ATOM     22  C   UNL     1       7.737  15.474  17.843  0.00  0.00    +0.000 A 
ATOM     23  C   UNL     1       8.588  16.457  18.240  0.00  0.00    +0.000 A 
ENDBRANCH   1  23
BRANCH  11  24
ATOM     24  C   UNL     1       9.432  12.919  20.995  0.00  0.00    +0.000 A 
ATOM     25  C   UNL     1       9.171  11.764  21.709  0.00  0.00    +0.000 A 
ATOM     26  C   UNL     1       8.080  11.729  22.615  0.00  0.00    +0.000 A 
ATOM     27  C   UNL     1       7.232  12.833  22.817  0.00  0.00    +0.000 A 
ATOM     28 CL   UNL     1       5.840  12.660  23.822  0.00  0.00    +0.000 Cl
ATOM     29  C   UNL     1       7.492  14.012  22.150  0.00  0.00    +0.000 A 
ATOM     30 CL   UNL     1       6.527  15.441  22.268  0.00  0.00    +0.000 Cl
ATOM     31  C   UNL     1       8.563  14.037  21.270  0.00  0.00    +0.000 A 
ENDBRANCH  11  24
TORSDOF 2
ENDMDL
MODEL 3
REMARK VINA RESULT:      -7.3      2.024      3.229
REMARK  Name = 
REMARK  3 active torsions:
REMARK  status: ('A' for Active; 'I' for Inactive)
REMARK    1  A    between atoms: C_1  and  C_2
REMARK    2  A    between atoms: C_10  and  C_11
REMARK    3  A    between atoms: C_21  and  C_22
REMARK                            x       y       z     vdW  Elec       q    Type
REMARK                         _______ _______ _______ _____ _____    ______ ____
ROOT
ATOM      1  C   UNL     1      -6.548  13.904  23.069  0.00  0.00    +0.000 A 
ATOM      2  C   UNL     1      -6.174  13.035  24.104  0.00  0.00    +0.000 A 
ATOM      3  C   UNL     1      -4.792  12.872  24.271  0.00  0.00    +0.000 A 
ATOM      4  C   UNL     1      -4.008  13.780  23.567  0.00  0.00    +0.000 A 
ATOM      5  C   UNL     1      -4.554  15.037  23.713  0.00  0.00    +0.000 A 
ATOM      6  C   UNL     1      -5.843  15.113  23.184  0.00  0.00    +0.000 A 
ATOM      7  C   UNL     1      -3.647  16.164  24.208  0.00  0.00    +0.000 C 
ATOM      8  N   UNL     1      -2.299  16.273  23.611  0.00  0.00    +0.000 NA
ATOM      9  C   UNL     1      -1.315  15.283  24.072  0.00  0.00    +0.000 C 
ATOM     10  C   UNL     1      -1.667  13.844  23.788  0.00  0.00    +0.000 C 
ATOM     11  C   UNL     1      -2.741  13.714  22.704  0.00  0.00    +0.000 C 
ATOM     12  C   UNL     1      -2.973  14.945  21.660  0.00  0.00    +0.000 C 
ATOM     13  C   UNL     1      -2.383  16.252  22.161  0.00  0.00    +0.000 C 
ENDROOT
BRANCH   1  23
ATOM     14  C   UNL     1      -6.287  15.261  20.241  0.00  0.00    +0.000 C 
ATOM     15  C   UNL     1      -6.478  13.781  20.344  0.00  0.00    +0.000 A 
ATOM     16  C   UNL     1      -6.545  13.013  19.224  0.00  0.00    +0.000 A 
ATOM     17  C   UNL     1      -6.785  11.611  19.307  0.00  0.00    +0.000 A 
ATOM     18  N   UNL     1      -6.888  10.663  18.400  0.00  0.00    +0.000 NA
ATOM     19  C   UNL     1      -7.141   9.550  19.155  0.00  0.00    +0.000 A 
ATOM     20  N   UNL     1      -7.184   9.747  20.468  0.00  0.00    +0.000 NA
ATOM     21  N   UNL     1      -6.960  11.083  20.565  0.00  0.00    +0.000 N 
ATOM     22  C   UNL     1      -6.891  11.856  21.707  0.00  0.00    +0.000 A 
ATOM     23  C   UNL     1      -6.653  13.195  21.692  0.00  0.00    +0.000 A 
ENDBRANCH   1  23
BRANCH  11  24
ATOM     24  C   UNL     1      -2.121  12.661  21.756  0.00  0.00    +0.000 A 
ATOM     25  C   UNL     1      -0.918  11.986  21.839  0.00  0.00    +0.000 A 
ATOM     26  C   UNL     1      -0.462  11.224  20.733  0.00  0.00    +0.000 A 
ATOM     27  C   UNL     1      -1.188  11.128  19.532  0.00  0.00    +0.000 A 
ATOM     28 CL   UNL     1      -0.494  10.305  18.184  0.00  0.00    +0.000 Cl
ATOM     29  C   UNL     1      -2.413  11.757  19.435  0.00  0.00    +0.000 A 
ATOM     30 CL   UNL     1      -3.405  11.760  18.020  0.00  0.00    +0.000 Cl
ATOM     31  C   UNL     1      -2.851  12.497  20.523  0.00  0.00    +0.000 A 
ENDBRANCH  11  24
TORSDOF 2
ENDMDL
MODEL 4
REMARK VINA RESULT:      -7.2      2.666      4.265
REMARK  Name = 
REMARK  3 active torsions:
REMARK  status: ('A' for Active; 'I' for Inactive)
REMARK    1  A    between atoms: C_1  and  C_2
REMARK    2  A    between atoms: C_10  and  C_11
REMARK    3  A    between atoms: C_21  and  C_22
REMARK                            x       y       z     vdW  Elec       q    Type
REMARK                         _______ _______ _______ _____ _____    ______ ____
ROOT
ATOM      1  C   UNL     1      -5.553  13.618  20.781  0.00  0.00    +0.000 A 
ATOM      2  C   UNL     1      -5.891  13.128  22.050  0.00  0.00    +0.000 A 
ATOM      3  C   UNL     1      -4.807  12.932  22.917  0.00  0.00    +0.000 A 
ATOM      4  C   UNL     1      -3.607  13.486  22.487  0.00  0.00    +0.000 A 
ATOM      5  C   UNL     1      -3.857  14.754  22.008  0.00  0.00    +0.000 A 
ATOM      6  C   UNL     1      -4.717  14.740  20.909  0.00  0.00    +0.000 A 
ATOM      7  C   UNL     1      -3.035  15.914  22.573  0.00  0.00    +0.000 C 
ATOM      8  N   UNL     1      -1.577  15.716  22.720  0.00  0.00    +0.000 NA
ATOM      9  C   UNL     1      -1.160  14.873  23.849  0.00  0.00    +0.000 C 
ATOM     10  C   UNL     1      -1.666  13.452  23.816  0.00  0.00    +0.000 C 
ATOM     11  C   UNL     1      -2.140  13.040  22.420  0.00  0.00    +0.000 C 
ATOM     12  C   UNL     1      -1.593  13.856  21.118  0.00  0.00    +0.000 C 
ATOM     13  C   UNL     1      -1.007  15.208  21.484  0.00  0.00    +0.000 C 
ENDROOT
BRANCH   1  23
ATOM     14  C   UNL     1      -7.389  11.207  19.930  0.00  0.00    +0.000 C 
ATOM     15  C   UNL     1      -6.041  11.376  19.302  0.00  0.00    +0.000 A 
ATOM     16  C   UNL     1      -5.597  10.494  18.368  0.00  0.00    +0.000 A 
ATOM     17  C   UNL     1      -4.294  10.612  17.807  0.00  0.00    +0.000 A 
ATOM     18  N   UNL     1      -3.638   9.912  16.905  0.00  0.00    +0.000 NA
ATOM     19  C   UNL     1      -2.430  10.552  16.846  0.00  0.00    +0.000 A 
ATOM     20  N   UNL     1      -2.304  11.609  17.640  0.00  0.00    +0.000 NA
ATOM     21  N   UNL     1      -3.509  11.644  18.265  0.00  0.00    +0.000 N 
ATOM     22  C   UNL     1      -3.953  12.545  19.213  0.00  0.00    +0.000 A 
ATOM     23  C   UNL     1      -5.190  12.492  19.775  0.00  0.00    +0.000 A 
ENDBRANCH   1  23
BRANCH  11  24
ATOM     24  C   UNL     1      -1.422  11.685  22.219  0.00  0.00    +0.000 A 
ATOM     25  C   UNL     1      -1.134  10.686  23.130  0.00  0.00    +0.000 A 
ATOM     26  C   UNL     1      -0.270   9.624  22.757  0.00  0.00    +0.000 A 
ATOM     27  C   UNL     1       0.323   9.545  21.484  0.00  0.00    +0.000 A 
ATOM     28 CL   UNL     1       1.479   8.304  21.163  0.00  0.00    +0.000 Cl
ATOM     29  C   UNL     1       0.021  10.505  20.541  0.00  0.00    +0.000 A 
ATOM     30 CL   UNL     1       0.692  10.563  18.949  0.00  0.00    +0.000 Cl
ATOM     31  C   UNL     1      -0.827  11.537  20.913  0.00  0.00    +0.000 A 
ENDBRANCH  11  24
TORSDOF 2
ENDMDL
MODEL 5
REMARK VINA RESULT:      -6.8      2.219      3.237
REMARK  Name = 
REMARK  3 active torsions:
REMARK  status: ('A' for Active; 'I' for Inactive)
REMARK    1  A    between atoms: C_1  and  C_2
REMARK    2  A    between atoms: C_10  and  C_11
REMARK    3  A    between atoms: C_21  and  C_22
REMARK                            x       y       z     vdW  Elec       q    Type
REMARK                         _______ _______ _______ _____ _____    ______ ____
ROOT
ATOM      1  C   UNL     1      -1.288  13.334  23.104  0.00  0.00    +0.000 A 
ATOM      2  C   UNL     1      -1.461  11.966  23.360  0.00  0.00    +0.000 A 
ATOM      3  C   UNL     1      -1.446  11.144  22.224  0.00  0.00    +0.000 A 
ATOM      4  C   UNL     1      -1.010  11.766  21.060  0.00  0.00    +0.000 A 
ATOM      5  C   UNL     1       0.108  12.516  21.355  0.00  0.00    +0.000 A 
ATOM      6  C   UNL     1      -0.168  13.526  22.279  0.00  0.00    +0.000 A 
ATOM      7  C   UNL     1       1.368  12.294  20.518  0.00  0.00    +0.000 C 
ATOM      8  N   UNL     1       1.210  12.192  19.052  0.00  0.00    +0.000 NA
ATOM      9  C   UNL     1       0.661  10.922  18.557  0.00  0.00    +0.000 C 
ATOM     10  C   UNL     1      -0.727  10.586  19.044  0.00  0.00    +0.000 C 
ATOM     11  C   UNL     1      -1.460  11.813  19.593  0.00  0.00    +0.000 C 
ATOM     12  C   UNL     1      -0.978  13.302  19.135  0.00  0.00    +0.000 C 
ATOM     13  C   UNL     1       0.423  13.305  18.548  0.00  0.00    +0.000 C 
ENDROOT
BRANCH   1  23
ATOM     14  C   UNL     1      -4.062  12.863  24.516  0.00  0.00    +0.000 C 
ATOM     15  C   UNL     1      -3.930  13.916  23.461  0.00  0.00    +0.000 A 
ATOM     16  C   UNL     1      -5.002  14.672  23.101  0.00  0.00    +0.000 A 
ATOM     17  C   UNL     1      -4.902  15.637  22.058  0.00  0.00    +0.000 A 
ATOM     18  N   UNL     1      -5.765  16.481  21.532  0.00  0.00    +0.000 NA
ATOM     19  C   UNL     1      -5.027  17.100  20.559  0.00  0.00    +0.000 A 
ATOM     20  N   UNL     1      -3.763  16.703  20.463  0.00  0.00    +0.000 NA
ATOM     21  N   UNL     1      -3.685  15.752  21.429  0.00  0.00    +0.000 N 
ATOM     22  C   UNL     1      -2.592  14.990  21.790  0.00  0.00    +0.000 A 
ATOM     23  C   UNL     1      -2.621  14.063  22.785  0.00  0.00    +0.000 A 
ENDBRANCH   1  23
BRANCH  11  24
ATOM     24  C   UNL     1      -2.823  11.729  18.869  0.00  0.00    +0.000 A 
ATOM     25  C   UNL     1      -3.118  11.397  17.560  0.00  0.00    +0.000 A 
ATOM     26  C   UNL     1      -4.431  11.601  17.062  0.00  0.00    +0.000 A 
ATOM     27  C   UNL     1      -5.462  12.142  17.851  0.00  0.00    +0.000 A 
ATOM     28 CL   UNL     1      -6.987  12.498  17.126  0.00  0.00    +0.000 Cl
ATOM     29  C   UNL     1      -5.209  12.445  19.173  0.00  0.00    +0.000 A 
ATOM     30 CL   UNL     1      -6.357  13.144  20.258  0.00  0.00    +0.000 Cl
ATOM     31  C   UNL     1      -3.923  12.239  19.652  0.00  0.00    +0.000 A 
ENDBRANCH  11  24
TORSDOF 2
ENDMDL
MODEL 6
REMARK VINA RESULT:      -6.7      2.510      3.802
REMARK  Name = 
REMARK  3 active torsions:
REMARK  status: ('A' for Active; 'I' for Inactive)
REMARK    1  A    between atoms: C_1  and  C_2
REMARK    2  A    between atoms: C_10  and  C_11
REMARK    3  A    between atoms: C_21  and  C_22
REMARK                            x       y       z     vdW  Elec       q    Type
REMARK                         _______ _______ _______ _____ _____    ______ ____
ROOT
ATOM      1  C   UNL     1      -6.556  14.012  23.278  0.00  0.00    +0.000 A 
ATOM      2  C   UNL     1      -6.142  13.000  24.155  0.00  0.00    +0.000 A 
ATOM      3  C   UNL     1      -4.754  12.894  24.325  0.00  0.00    +0.000 A 
ATOM      4  C   UNL     1      -4.020  13.956  23.808  0.00  0.00    +0.000 A 
ATOM      5  C   UNL     1      -4.647  15.133  24.157  0.00  0.00    +0.000 A 
ATOM      6  C   UNL     1      -5.931  15.223  23.617  0.00  0.00    +0.000 A 
ATOM      7  C   UNL     1      -3.820  16.209  24.862  0.00  0.00    +0.000 C 
ATOM      8  N   UNL     1      -2.473  16.502  24.326  0.00  0.00    +0.000 NA
ATOM      9  C   UNL     1      -1.435  15.507  24.632  0.00  0.00    +0.000 C 
ATOM     10  C   UNL     1      -1.691  14.122  24.094  0.00  0.00    +0.000 C 
ATOM     11  C   UNL     1      -2.740  14.119  22.978  0.00  0.00    +0.000 C 
ATOM     12  C   UNL     1      -3.035  15.496  22.158  0.00  0.00    +0.000 C 
ATOM     13  C   UNL     1      -2.537  16.729  22.892  0.00  0.00    +0.000 C 
ENDROOT
BRANCH   1  23
ATOM     14  C   UNL     1      -6.249  15.844  20.736  0.00  0.00    +0.000 C 
ATOM     15  C   UNL     1      -6.398  14.364  20.576  0.00  0.00    +0.000 A 
ATOM     16  C   UNL     1      -6.408  13.799  19.339  0.00  0.00    +0.000 A 
ATOM     17  C   UNL     1      -6.607  12.399  19.172  0.00  0.00    +0.000 A 
ATOM     18  N   UNL     1      -6.654  11.619  18.112  0.00  0.00    +0.000 NA
ATOM     19  C   UNL     1      -6.896  10.386  18.655  0.00  0.00    +0.000 A 
ATOM     20  N   UNL     1      -6.986  10.353  19.980  0.00  0.00    +0.000 NA
ATOM     21  N   UNL     1      -6.805  11.657  20.312  0.00  0.00    +0.000 N 
ATOM     22  C   UNL     1      -6.795  12.222  21.572  0.00  0.00    +0.000 A 
ATOM     23  C   UNL     1      -6.597  13.549  21.797  0.00  0.00    +0.000 A 
ENDBRANCH   1  23
BRANCH  11  24
ATOM     24  C   UNL     1      -2.042  13.286  21.878  0.00  0.00    +0.000 A 
ATOM     25  C   UNL     1      -2.134  13.375  20.501  0.00  0.00    +0.000 A 
ATOM     26  C   UNL     1      -1.566  12.357  19.692  0.00  0.00    +0.000 A 
ATOM     27  C   UNL     1      -0.908  11.239  20.237  0.00  0.00    +0.000 A 
ATOM     28 CL   UNL     1      -0.378   9.974  19.190  0.00  0.00    +0.000 Cl
ATOM     29  C   UNL     1      -0.764  11.145  21.606  0.00  0.00    +0.000 A 
ATOM     30 CL   UNL     1      -0.013   9.822  22.425  0.00  0.00    +0.000 Cl
ATOM     31  C   UNL     1      -1.320  12.146  22.388  0.00  0.00    +0.000 A 
ENDBRANCH  11  24
TORSDOF 2
ENDMDL
MODEL 7
REMARK VINA RESULT:      -6.7      2.141      5.217
REMARK  Name = 
REMARK  3 active torsions:
REMARK  status: ('A' for Active; 'I' for Inactive)
REMARK    1  A    between atoms: C_1  and  C_2
REMARK    2  A    between atoms: C_10  and  C_11
REMARK    3  A    between atoms: C_21  and  C_22
REMARK                            x       y       z     vdW  Elec       q    Type
REMARK                         _______ _______ _______ _____ _____    ______ ____
ROOT
ATOM      1  C   UNL     1      -0.997  14.615  22.945  0.00  0.00    +0.000 A 
ATOM      2  C   UNL     1      -1.143  15.679  22.044  0.00  0.00    +0.000 A 
ATOM      3  C   UNL     1      -2.345  15.685  21.323  0.00  0.00    +0.000 A 
ATOM      4  C   UNL     1      -3.308  14.796  21.788  0.00  0.00    +0.000 A 
ATOM      5  C   UNL     1      -3.354  14.879  23.163  0.00  0.00    +0.000 A 
ATOM      6  C   UNL     1      -2.142  14.512  23.751  0.00  0.00    +0.000 A 
ATOM      7  C   UNL     1      -4.709  15.133  23.825  0.00  0.00    +0.000 C 
ATOM      8  N   UNL     1      -5.870  14.362  23.334  0.00  0.00    +0.000 NA
ATOM      9  C   UNL     1      -6.423  14.796  22.043  0.00  0.00    +0.000 C 
ATOM     10  C   UNL     1      -5.474  14.710  20.874  0.00  0.00    +0.000 C 
ATOM     11  C   UNL     1      -4.284  13.791  21.161  0.00  0.00    +0.000 C 
ATOM     12  C   UNL     1      -4.412  12.662  22.330  0.00  0.00    +0.000 C 
ATOM     13  C   UNL     1      -5.555  12.944  23.289  0.00  0.00    +0.000 C 
ENDROOT
BRANCH   1  23
ATOM     14  C   UNL     1       1.151  14.538  20.645  0.00  0.00    +0.000 C 
ATOM     15  C   UNL     1       0.657  13.261  21.248  0.00  0.00    +0.000 A 
ATOM     16  C   UNL     1       1.124  12.062  20.808  0.00  0.00    +0.000 A 
ATOM     17  C   UNL     1       0.619  10.839  21.335  0.00  0.00    +0.000 A 
ATOM     18  N   UNL     1       0.897   9.575  21.093  0.00  0.00    +0.000 NA
ATOM     19  C   UNL     1       0.038   8.912  21.926  0.00  0.00    +0.000 A 
ATOM     20  N   UNL     1      -0.740   9.684  22.676  0.00  0.00    +0.000 NA
ATOM     21  N   UNL     1      -0.367  10.931  22.289  0.00  0.00    +0.000 N 
ATOM     22  C   UNL     1      -0.846  12.144  22.741  0.00  0.00    +0.000 A 
ATOM     23  C   UNL     1      -0.394  13.344  22.288  0.00  0.00    +0.000 A 
ENDBRANCH   1  23
BRANCH  11  24
ATOM     24  C   UNL     1      -4.260  12.888  19.906  0.00  0.00    +0.000 A 
ATOM     25  C   UNL     1      -5.298  12.276  19.229  0.00  0.00    +0.000 A 
ATOM     26  C   UNL     1      -5.013  11.312  18.228  0.00  0.00    +0.000 A 
ATOM     27  C   UNL     1      -3.698  10.938  17.893  0.00  0.00    +0.000 A 
ATOM     28 CL   UNL     1      -3.442   9.651  16.772  0.00  0.00    +0.000 Cl
ATOM     29  C   UNL     1      -2.641  11.562  18.522  0.00  0.00    +0.000 A 
ATOM     30 CL   UNL     1      -0.976  11.192  18.245  0.00  0.00    +0.000 Cl
ATOM     31  C   UNL     1      -2.930  12.506  19.497  0.00  0.00    +0.000 A 
ENDBRANCH  11  24
TORSDOF 2
ENDMDL
MODEL 8
REMARK VINA RESULT:      -6.7      1.989      2.727
REMARK  Name = 
REMARK  3 active torsions:
REMARK  status: ('A' for Active; 'I' for Inactive)
REMARK    1  A    between atoms: C_1  and  C_2
REMARK    2  A    between atoms: C_10  and  C_11
REMARK    3  A    between atoms: C_21  and  C_22
REMARK                            x       y       z     vdW  Elec       q    Type
REMARK                         _______ _______ _______ _____ _____    ______ ____
ROOT
ATOM      1  C   UNL     1      -1.396  12.943  23.441  0.00  0.00    +0.000 A 
ATOM      2  C   UNL     1      -1.291  11.546  23.395  0.00  0.00    +0.000 A 
ATOM      3  C   UNL     1      -1.250  10.996  22.106  0.00  0.00    +0.000 A 
ATOM      4  C   UNL     1      -1.064  11.920  21.084  0.00  0.00    +0.000 A 
ATOM      5  C   UNL     1      -0.075  12.801  21.464  0.00  0.00    +0.000 A 
ATOM      6  C   UNL     1      -0.427  13.522  22.607  0.00  0.00    +0.000 A 
ATOM      7  C   UNL     1       1.106  13.014  20.517  0.00  0.00    +0.000 C 
ATOM      8  N   UNL     1       0.811  13.188  19.079  0.00  0.00    +0.000 NA
ATOM      9  C   UNL     1       0.449  11.964  18.350  0.00  0.00    +0.000 C 
ATOM     10  C   UNL     1      -0.793  11.263  18.841  0.00  0.00    +0.000 C 
ATOM     11  C   UNL     1      -1.672  12.178  19.699  0.00  0.00    +0.000 C 
ATOM     12  C   UNL     1      -1.520  13.795  19.554  0.00  0.00    +0.000 C 
ATOM     13  C   UNL     1      -0.215  14.200  18.891  0.00  0.00    +0.000 C 
ENDROOT
BRANCH   1  23
ATOM     14  C   UNL     1      -2.383  15.753  22.420  0.00  0.00    +0.000 C 
ATOM     15  C   UNL     1      -3.379  14.726  22.858  0.00  0.00    +0.000 A 
ATOM     16  C   UNL     1      -4.711  14.996  22.824  0.00  0.00    +0.000 A 
ATOM     17  C   UNL     1      -5.665  14.048  23.293  0.00  0.00    +0.000 A 
ATOM     18  N   UNL     1      -6.980  14.058  23.364  0.00  0.00    +0.000 NA
ATOM     19  C   UNL     1      -7.261  12.845  23.931  0.00  0.00    +0.000 A 
ATOM     20  N   UNL     1      -6.207  12.082  24.199  0.00  0.00    +0.000 NA
ATOM     21  N   UNL     1      -5.175  12.865  23.791  0.00  0.00    +0.000 N 
ATOM     22  C   UNL     1      -3.823  12.582  23.828  0.00  0.00    +0.000 A 
ATOM     23  C   UNL     1      -2.866  13.440  23.384  0.00  0.00    +0.000 A 
ENDBRANCH   1  23
BRANCH  11  24
ATOM     24  C   UNL     1      -3.069  11.974  19.067  0.00  0.00    +0.000 A 
ATOM     25  C   UNL     1      -3.441  11.272  17.936  0.00  0.00    +0.000 A 
ATOM     26  C   UNL     1      -4.758  11.408  17.427  0.00  0.00    +0.000 A 
ATOM     27  C   UNL     1      -5.717  12.244  18.027  0.00  0.00    +0.000 A 
ATOM     28 CL   UNL     1      -7.246  12.468  17.260  0.00  0.00    +0.000 Cl
ATOM     29  C   UNL     1      -5.387  12.925  19.181  0.00  0.00    +0.000 A 
ATOM     30 CL   UNL     1      -6.440  14.012  20.015  0.00  0.00    +0.000 Cl
ATOM     31  C   UNL     1      -4.098  12.783  19.673  0.00  0.00    +0.000 A 
ENDBRANCH  11  24
TORSDOF 2
ENDMDL
MODEL 9
REMARK VINA RESULT:      -6.6      2.356      3.761
REMARK  Name = 
REMARK  3 active torsions:
REMARK  status: ('A' for Active; 'I' for Inactive)
REMARK    1  A    between atoms: C_1  and  C_2
REMARK    2  A    between atoms: C_10  and  C_11
REMARK    3  A    between atoms: C_21  and  C_22
REMARK                            x       y       z     vdW  Elec       q    Type
REMARK                         _______ _______ _______ _____ _____    ______ ____
ROOT
ATOM      1  C   UNL     1      -5.861  14.659  22.031  0.00  0.00    +0.000 A 
ATOM      2  C   UNL     1      -5.757  14.409  23.407  0.00  0.00    +0.000 A 
ATOM      3  C   UNL     1      -4.455  14.177  23.871  0.00  0.00    +0.000 A 
ATOM      4  C   UNL     1      -3.449  14.480  22.960  0.00  0.00    +0.000 A 
ATOM      5  C   UNL     1      -3.741  15.691  22.370  0.00  0.00    +0.000 A 
ATOM      6  C   UNL     1      -4.940  15.650  21.656  0.00  0.00    +0.000 A 
ATOM      7  C   UNL     1      -2.671  16.783  22.395  0.00  0.00    +0.000 C 
ATOM      8  N   UNL     1      -1.283  16.393  22.068  0.00  0.00    +0.000 NA
ATOM      9  C   UNL     1      -0.561  15.665  23.121  0.00  0.00    +0.000 C 
ATOM     10  C   UNL     1      -1.169  14.346  23.526  0.00  0.00    +0.000 C 
ATOM     11  C   UNL     1      -2.152  13.816  22.479  0.00  0.00    +0.000 C 
ATOM     12  C   UNL     1      -2.044  14.348  20.942  0.00  0.00    +0.000 C 
ATOM     13  C   UNL     1      -1.248  15.637  20.827  0.00  0.00    +0.000 C 
ENDROOT
BRANCH   1  23
ATOM     14  C   UNL     1      -7.916  12.320  22.500  0.00  0.00    +0.000 C 
ATOM     15  C   UNL     1      -6.976  12.266  21.336  0.00  0.00    +0.000 A 
ATOM     16  C   UNL     1      -6.997  11.212  20.479  0.00  0.00    +0.000 A 
ATOM     17  C   UNL     1      -6.069  11.122  19.402  0.00  0.00    +0.000 A 
ATOM     18  N   UNL     1      -5.883  10.232  18.449  0.00  0.00    +0.000 NA
ATOM     19  C   UNL     1      -4.815  10.743  17.764  0.00  0.00    +0.000 A 
ATOM     20  N   UNL     1      -4.341  11.896  18.222  0.00  0.00    +0.000 NA
ATOM     21  N   UNL     1      -5.150  12.137  19.286  0.00  0.00    +0.000 N 
ATOM     22  C   UNL     1      -5.122  13.212  20.152  0.00  0.00    +0.000 A 
ATOM     23  C   UNL     1      -5.990  13.361  21.189  0.00  0.00    +0.000 A 
ENDBRANCH   1  23
BRANCH  11  24
ATOM     24  C   UNL     1      -1.680  12.354  22.298  0.00  0.00    +0.000 A 
ATOM     25  C   UNL     1      -1.406  11.383  23.243  0.00  0.00    +0.000 A 
ATOM     26  C   UNL     1      -0.774  10.176  22.848  0.00  0.00    +0.000 A 
ATOM     27  C   UNL     1      -0.399   9.922  21.516  0.00  0.00    +0.000 A 
ATOM     28 CL   UNL     1       0.499   8.496  21.145  0.00  0.00    +0.000 Cl
ATOM     29  C   UNL     1      -0.697  10.854  20.544  0.00  0.00    +0.000 A 
ATOM     30 CL   UNL     1      -0.274  10.703  18.875  0.00  0.00    +0.000 Cl
ATOM     31  C   UNL     1      -1.318  12.029  20.940  0.00  0.00    +0.000 A 
ENDBRANCH  11  24
TORSDOF 2
ENDMDL
