MODEL 1
REMARK VINA RESULT:      -6.3      0.000      0.000
REMARK  Name = 
REMARK  9 active torsions:
REMARK  status: ('A' for Active; 'I' for Inactive)
REMARK    1  A    between atoms: C_1  and  S_2
REMARK    2  A    between atoms: S_2  and  N_5
REMARK    3  A    between atoms: N_5  and  C_6
REMARK    4  A    between atoms: C_6  and  C_7
REMARK    5  A    between atoms: C_7  and  C_8
REMARK    6  A    between atoms: C_8  and  C_9
REMARK    7  A    between atoms: C_9  and  C_10
REMARK    8  A    between atoms: C_10  and  C_11
REMARK    9  A    between atoms: N_13  and  C_14
REMARK                            x       y       z     vdW  Elec       q    Type
REMARK                         _______ _______ _______ _____ _____    ______ ____
ROOT
ATOM      1  C   UNL     1       7.332   6.746  17.807  0.00  0.00    +0.000 C 
ENDROOT
BRANCH   1   2
ATOM      2  C   UNL     1       6.719   6.346  16.473  0.00  0.00    +0.000 C 
ATOM      3  O   UNL     1       5.714   6.916  16.047  0.00  0.00    +0.000 OA
ATOM      4  N   UNL     1       7.392   5.318  15.844  0.00  0.00    +0.000 N 
ATOM      5  H   UNL     1       8.070   4.794  16.386  0.00  0.00    +0.000 HD
BRANCH   4   6
ATOM      6  C   UNL     1       7.098   4.837  14.549  0.00  0.00    +0.000 A 
ATOM      7  C   UNL     1       7.792   5.253  13.407  0.00  0.00    +0.000 A 
ATOM      8  C   UNL     1       7.453   4.770  12.144  0.00  0.00    +0.000 A 
ATOM      9  C   UNL     1       6.416   3.855  12.007  0.00  0.00    +0.000 A 
ATOM     10  C   UNL     1       5.728   3.415  13.135  0.00  0.00    +0.000 A 
ATOM     11  C   UNL     1       6.073   3.895  14.405  0.00  0.00    +0.000 A 
ENDBRANCH   4   6
ENDBRANCH   1   2
BRANCH   1  12
ATOM     12  C   UNL     1       7.202   5.585  18.789  0.00  0.00    +0.000 C 
BRANCH  12  13
ATOM     13  C   UNL     1       5.759   5.294  19.168  0.00  0.00    +0.000 C 
BRANCH  13  14
ATOM     14  C   UNL     1       5.334   3.929  18.618  0.00  0.00    +0.000 C 
BRANCH  14  15
ATOM     15  C   UNL     1       4.179   3.316  19.404  0.00  0.00    +0.000 C 
BRANCH  15  16
ATOM     16  N   UNL     1       3.384   4.377  20.044  0.00  0.00    +0.000 NA
ATOM     17  H   UNL     1       3.897   4.987  20.682  0.00  0.00    +0.000 HD
BRANCH  16  19
ATOM     18  C   UNL     1       1.362   2.631  19.713  0.00  0.00    +0.000 C 
ATOM     19  S   UNL     1       1.952   3.912  20.798  0.00  0.00    +0.000 S 
ATOM     20  O   UNL     1       1.068   5.050  20.701  0.00  0.00    +0.000 OA
ATOM     21  O   UNL     1       2.301   3.333  22.076  0.00  0.00    +0.000 OA
ENDBRANCH  16  19
ENDBRANCH  15  16
ENDBRANCH  14  15
ENDBRANCH  13  14
ENDBRANCH  12  13
ENDBRANCH   1  12
TORSDOF 8
ENDMDL
MODEL 2
REMARK VINA RESULT:      -6.3      5.128      7.855
REMARK  Name = 
REMARK  9 active torsions:
REMARK  status: ('A' for Active; 'I' for Inactive)
REMARK    1  A    between atoms: C_1  and  S_2
REMARK    2  A    between atoms: S_2  and  N_5
REMARK    3  A    between atoms: N_5  and  C_6
REMARK    4  A    between atoms: C_6  and  C_7
REMARK    5  A    between atoms: C_7  and  C_8
REMARK    6  A    between atoms: C_8  and  C_9
REMARK    7  A    between atoms: C_9  and  C_10
REMARK    8  A    between atoms: C_10  and  C_11
REMARK    9  A    between atoms: N_13  and  C_14
REMARK                            x       y       z     vdW  Elec       q    Type
REMARK                         _______ _______ _______ _____ _____    ______ ____
ROOT
ATOM      1  C   UNL     1       7.773   6.349  18.555  0.00  0.00    +0.000 C 
ENDROOT
BRANCH   1   2
ATOM      2  C   UNL     1       6.473   5.604  18.823  0.00  0.00    +0.000 C 
ATOM      3  O   UNL     1       6.270   5.066  19.912  0.00  0.00    +0.000 OA
ATOM      4  N   UNL     1       5.607   5.602  17.748  0.00  0.00    +0.000 N 
ATOM      5  H   UNL     1       5.971   5.892  16.847  0.00  0.00    +0.000 HD
BRANCH   4   6
ATOM      6  C   UNL     1       4.295   5.081  17.773  0.00  0.00    +0.000 A 
ATOM      7  C   UNL     1       3.242   5.702  18.456  0.00  0.00    +0.000 A 
ATOM      8  C   UNL     1       1.966   5.140  18.473  0.00  0.00    +0.000 A 
ATOM      9  C   UNL     1       1.724   3.949  17.798  0.00  0.00    +0.000 A 
ATOM     10  C   UNL     1       2.755   3.329  17.096  0.00  0.00    +0.000 A 
ATOM     11  C   UNL     1       4.035   3.897  17.074  0.00  0.00    +0.000 A 
ENDBRANCH   4   6
ENDBRANCH   1   2
BRANCH   1  12
ATOM     12  C   UNL     1       7.615   7.200  17.299  0.00  0.00    +0.000 C 
BRANCH  12  13
ATOM     13  C   UNL     1       7.587   8.690  17.598  0.00  0.00    +0.000 C 
BRANCH  13  14
ATOM     14  C   UNL     1       8.669   9.045  18.622  0.00  0.00    +0.000 C 
BRANCH  14  15
ATOM     15  C   UNL     1       9.115  10.500  18.523  0.00  0.00    +0.000 C 
BRANCH  15  16
ATOM     16  N   UNL     1      10.033  10.823  19.628  0.00  0.00    +0.000 NA
ATOM     17  H   UNL     1       9.591  11.178  20.478  0.00  0.00    +0.000 HD
BRANCH  16  19
ATOM     18  C   UNL     1      10.633  13.437  19.388  0.00  0.00    +0.000 C 
ATOM     19  S   UNL     1      11.347  11.812  19.267  0.00  0.00    +0.000 S 
ATOM     20  O   UNL     1      11.671  11.547  17.883  0.00  0.00    +0.000 OA
ATOM     21  O   UNL     1      12.325  11.638  20.317  0.00  0.00    +0.000 OA
ENDBRANCH  16  19
ENDBRANCH  15  16
ENDBRANCH  14  15
ENDBRANCH  13  14
ENDBRANCH  12  13
ENDBRANCH   1  12
TORSDOF 8
ENDMDL
MODEL 3
REMARK VINA RESULT:      -6.3      1.277      1.817
REMARK  Name = 
REMARK  9 active torsions:
REMARK  status: ('A' for Active; 'I' for Inactive)
REMARK    1  A    between atoms: C_1  and  S_2
REMARK    2  A    between atoms: S_2  and  N_5
REMARK    3  A    between atoms: N_5  and  C_6
REMARK    4  A    between atoms: C_6  and  C_7
REMARK    5  A    between atoms: C_7  and  C_8
REMARK    6  A    between atoms: C_8  and  C_9
REMARK    7  A    between atoms: C_9  and  C_10
REMARK    8  A    between atoms: C_10  and  C_11
REMARK    9  A    between atoms: N_13  and  C_14
REMARK                            x       y       z     vdW  Elec       q    Type
REMARK                         _______ _______ _______ _____ _____    ______ ____
ROOT
ATOM      1  C   UNL     1       7.335   6.839  17.835  0.00  0.00    +0.000 C 
ENDROOT
BRANCH   1   2
ATOM      2  C   UNL     1       6.694   6.434  16.516  0.00  0.00    +0.000 C 
ATOM      3  O   UNL     1       5.709   7.035  16.084  0.00  0.00    +0.000 OA
ATOM      4  N   UNL     1       7.318   5.365  15.905  0.00  0.00    +0.000 N 
ATOM      5  H   UNL     1       7.979   4.826  16.454  0.00  0.00    +0.000 HD
BRANCH   4   6
ATOM      6  C   UNL     1       6.993   4.867  14.624  0.00  0.00    +0.000 A 
ATOM      7  C   UNL     1       5.915   4.004  14.394  0.00  0.00    +0.000 A 
ATOM      8  C   UNL     1       5.644   3.519  13.116  0.00  0.00    +0.000 A 
ATOM      9  C   UNL     1       6.446   3.897  12.045  0.00  0.00    +0.000 A 
ATOM     10  C   UNL     1       7.510   4.771  12.253  0.00  0.00    +0.000 A 
ATOM     11  C   UNL     1       7.779   5.264  13.536  0.00  0.00    +0.000 A 
ENDBRANCH   4   6
ENDBRANCH   1   2
BRANCH   1  12
ATOM     12  C   UNL     1       7.332   5.643  18.784  0.00  0.00    +0.000 C 
BRANCH  12  13
ATOM     13  C   UNL     1       5.960   5.367  19.377  0.00  0.00    +0.000 C 
BRANCH  13  14
ATOM     14  C   UNL     1       5.397   4.057  18.819  0.00  0.00    +0.000 C 
BRANCH  14  15
ATOM     15  C   UNL     1       4.297   4.285  17.787  0.00  0.00    +0.000 C 
BRANCH  15  16
ATOM     16  N   UNL     1       3.238   3.275  17.946  0.00  0.00    +0.000 NA
ATOM     17  H   UNL     1       3.150   2.604  17.182  0.00  0.00    +0.000 HD
BRANCH  16  19
ATOM     18  C   UNL     1       0.900   2.355  18.915  0.00  0.00    +0.000 C 
ATOM     19  S   UNL     1       1.697   3.835  18.333  0.00  0.00    +0.000 S 
ATOM     20  O   UNL     1       1.095   4.227  17.079  0.00  0.00    +0.000 OA
ATOM     21  O   UNL     1       1.835   4.768  19.429  0.00  0.00    +0.000 OA
ENDBRANCH  16  19
ENDBRANCH  15  16
ENDBRANCH  14  15
ENDBRANCH  13  14
ENDBRANCH  12  13
ENDBRANCH   1  12
TORSDOF 8
ENDMDL
MODEL 4
REMARK VINA RESULT:      -6.2      1.297      1.730
REMARK  Name = 
REMARK  9 active torsions:
REMARK  status: ('A' for Active; 'I' for Inactive)
REMARK    1  A    between atoms: C_1  and  S_2
REMARK    2  A    between atoms: S_2  and  N_5
REMARK    3  A    between atoms: N_5  and  C_6
REMARK    4  A    between atoms: C_6  and  C_7
REMARK    5  A    between atoms: C_7  and  C_8
REMARK    6  A    between atoms: C_8  and  C_9
REMARK    7  A    between atoms: C_9  and  C_10
REMARK    8  A    between atoms: C_10  and  C_11
REMARK    9  A    between atoms: N_13  and  C_14
REMARK                            x       y       z     vdW  Elec       q    Type
REMARK                         _______ _______ _______ _____ _____    ______ ____
ROOT
ATOM      1  C   UNL     1       6.554   6.084  17.824  0.00  0.00    +0.000 C 
ENDROOT
BRANCH   1   2
ATOM      2  C   UNL     1       7.006   5.289  16.608  0.00  0.00    +0.000 C 
ATOM      3  O   UNL     1       7.918   4.466  16.699  0.00  0.00    +0.000 OA
ATOM      4  N   UNL     1       6.309   5.597  15.458  0.00  0.00    +0.000 N 
ATOM      5  H   UNL     1       5.734   6.431  15.462  0.00  0.00    +0.000 HD
BRANCH   4   6
ATOM      6  C   UNL     1       6.455   4.925  14.224  0.00  0.00    +0.000 A 
ATOM      7  C   UNL     1       5.597   3.899  13.810  0.00  0.00    +0.000 A 
ATOM      8  C   UNL     1       5.791   3.247  12.593  0.00  0.00    +0.000 A 
ATOM      9  C   UNL     1       6.848   3.618  11.768  0.00  0.00    +0.000 A 
ATOM     10  C   UNL     1       7.698   4.650  12.156  0.00  0.00    +0.000 A 
ATOM     11  C   UNL     1       7.499   5.310  13.375  0.00  0.00    +0.000 A 
ENDBRANCH   4   6
ENDBRANCH   1   2
BRANCH   1  12
ATOM     12  C   UNL     1       5.086   6.467  17.658  0.00  0.00    +0.000 C 
BRANCH  12  13
ATOM     13  C   UNL     1       4.175   5.746  18.638  0.00  0.00    +0.000 C 
BRANCH  13  14
ATOM     14  C   UNL     1       4.787   4.399  19.036  0.00  0.00    +0.000 C 
BRANCH  14  15
ATOM     15  C   UNL     1       3.772   3.261  18.998  0.00  0.00    +0.000 C 
BRANCH  15  16
ATOM     16  N   UNL     1       3.491   2.790  20.365  0.00  0.00    +0.000 NA
ATOM     17  H   UNL     1       3.556   1.781  20.505  0.00  0.00    +0.000 HD
BRANCH  16  19
ATOM     18  C   UNL     1       0.910   3.224  19.736  0.00  0.00    +0.000 C 
ATOM     19  S   UNL     1       2.067   3.330  21.083  0.00  0.00    +0.000 S 
ATOM     20  O   UNL     1       2.288   4.722  21.400  0.00  0.00    +0.000 OA
ATOM     21  O   UNL     1       1.703   2.371  22.103  0.00  0.00    +0.000 OA
ENDBRANCH  16  19
ENDBRANCH  15  16
ENDBRANCH  14  15
ENDBRANCH  13  14
ENDBRANCH  12  13
ENDBRANCH   1  12
TORSDOF 8
ENDMDL
MODEL 5
REMARK VINA RESULT:      -6.2      1.767      2.227
REMARK  Name = 
REMARK  9 active torsions:
REMARK  status: ('A' for Active; 'I' for Inactive)
REMARK    1  A    between atoms: C_1  and  S_2
REMARK    2  A    between atoms: S_2  and  N_5
REMARK    3  A    between atoms: N_5  and  C_6
REMARK    4  A    between atoms: C_6  and  C_7
REMARK    5  A    between atoms: C_7  and  C_8
REMARK    6  A    between atoms: C_8  and  C_9
REMARK    7  A    between atoms: C_9  and  C_10
REMARK    8  A    between atoms: C_10  and  C_11
REMARK    9  A    between atoms: N_13  and  C_14
REMARK                            x       y       z     vdW  Elec       q    Type
REMARK                         _______ _______ _______ _____ _____    ______ ____
ROOT
ATOM      1  C   UNL     1       7.256   6.064  18.239  0.00  0.00    +0.000 C 
ENDROOT
BRANCH   1   2
ATOM      2  C   UNL     1       7.439   5.203  16.997  0.00  0.00    +0.000 C 
ATOM      3  O   UNL     1       8.057   4.138  17.056  0.00  0.00    +0.000 OA
ATOM      4  N   UNL     1       6.865   5.741  15.864  0.00  0.00    +0.000 N 
ATOM      5  H   UNL     1       6.572   6.711  15.897  0.00  0.00    +0.000 HD
BRANCH   4   6
ATOM      6  C   UNL     1       6.794   5.091  14.611  0.00  0.00    +0.000 A 
ATOM      7  C   UNL     1       5.827   4.126  14.309  0.00  0.00    +0.000 A 
ATOM      8  C   UNL     1       5.808   3.493  13.067  0.00  0.00    +0.000 A 
ATOM      9  C   UNL     1       6.756   3.824  12.105  0.00  0.00    +0.000 A 
ATOM     10  C   UNL     1       7.712   4.797  12.383  0.00  0.00    +0.000 A 
ATOM     11  C   UNL     1       7.727   5.438  13.628  0.00  0.00    +0.000 A 
ENDBRANCH   4   6
ENDBRANCH   1   2
BRANCH   1  12
ATOM     12  C   UNL     1       6.278   5.376  19.188  0.00  0.00    +0.000 C 
BRANCH  12  13
ATOM     13  C   UNL     1       5.014   4.905  18.489  0.00  0.00    +0.000 C 
BRANCH  13  14
ATOM     14  C   UNL     1       3.971   6.026  18.469  0.00  0.00    +0.000 C 
BRANCH  14  15
ATOM     15  C   UNL     1       2.546   5.498  18.334  0.00  0.00    +0.000 C 
BRANCH  15  16
ATOM     16  N   UNL     1       2.564   4.038  18.148  0.00  0.00    +0.000 NA
ATOM     17  H   UNL     1       2.243   3.705  17.238  0.00  0.00    +0.000 HD
BRANCH  16  19
ATOM     18  C   UNL     1       1.179   4.350  20.436  0.00  0.00    +0.000 C 
ATOM     19  S   UNL     1       1.825   3.106  19.340  0.00  0.00    +0.000 S 
ATOM     20  O   UNL     1       2.895   2.403  20.010  0.00  0.00    +0.000 OA
ATOM     21  O   UNL     1       0.728   2.396  18.721  0.00  0.00    +0.000 OA
ENDBRANCH  16  19
ENDBRANCH  15  16
ENDBRANCH  14  15
ENDBRANCH  13  14
ENDBRANCH  12  13
ENDBRANCH   1  12
TORSDOF 8
ENDMDL
MODEL 6
REMARK VINA RESULT:      -6.2      4.570      7.898
REMARK  Name = 
REMARK  9 active torsions:
REMARK  status: ('A' for Active; 'I' for Inactive)
REMARK    1  A    between atoms: C_1  and  S_2
REMARK    2  A    between atoms: S_2  and  N_5
REMARK    3  A    between atoms: N_5  and  C_6
REMARK    4  A    between atoms: C_6  and  C_7
REMARK    5  A    between atoms: C_7  and  C_8
REMARK    6  A    between atoms: C_8  and  C_9
REMARK    7  A    between atoms: C_9  and  C_10
REMARK    8  A    between atoms: C_10  and  C_11
REMARK    9  A    between atoms: N_13  and  C_14
REMARK                            x       y       z     vdW  Elec       q    Type
REMARK                         _______ _______ _______ _____ _____    ______ ____
ROOT
ATOM      1  C   UNL     1       6.992   5.841  18.888  0.00  0.00    +0.000 C 
ENDROOT
BRANCH   1   2
ATOM      2  C   UNL     1       5.801   4.898  18.981  0.00  0.00    +0.000 C 
ATOM      3  O   UNL     1       5.965   3.677  18.977  0.00  0.00    +0.000 OA
ATOM      4  N   UNL     1       4.587   5.549  19.060  0.00  0.00    +0.000 N 
ATOM      5  H   UNL     1       4.566   6.539  18.843  0.00  0.00    +0.000 HD
BRANCH   4   6
ATOM      6  C   UNL     1       3.344   4.912  19.268  0.00  0.00    +0.000 A 
ATOM      7  C   UNL     1       2.587   4.362  18.226  0.00  0.00    +0.000 A 
ATOM      8  C   UNL     1       1.353   3.762  18.474  0.00  0.00    +0.000 A 
ATOM      9  C   UNL     1       0.861   3.697  19.773  0.00  0.00    +0.000 A 
ATOM     10  C   UNL     1       1.612   4.221  20.823  0.00  0.00    +0.000 A 
ATOM     11  C   UNL     1       2.854   4.818  20.575  0.00  0.00    +0.000 A 
ENDBRANCH   4   6
ENDBRANCH   1   2
BRANCH   1  12
ATOM     12  C   UNL     1       7.177   6.275  17.437  0.00  0.00    +0.000 C 
BRANCH  12  13
ATOM     13  C   UNL     1       7.472   7.759  17.300  0.00  0.00    +0.000 C 
BRANCH  13  14
ATOM     14  C   UNL     1       8.357   8.232  18.457  0.00  0.00    +0.000 C 
BRANCH  14  15
ATOM     15  C   UNL     1       8.676   9.721  18.380  0.00  0.00    +0.000 C 
BRANCH  15  16
ATOM     16  N   UNL     1       9.401  10.146  19.590  0.00  0.00    +0.000 NA
ATOM     17  H   UNL     1       8.919   9.977  20.474  0.00  0.00    +0.000 HD
BRANCH  16  19
ATOM     18  C   UNL     1      10.114  12.094  17.875  0.00  0.00    +0.000 C 
ATOM     19  S   UNL     1      10.001  11.719  19.610  0.00  0.00    +0.000 S 
ATOM     20  O   UNL     1      11.336  11.624  20.155  0.00  0.00    +0.000 OA
ATOM     21  O   UNL     1       8.995  12.561  20.218  0.00  0.00    +0.000 OA
ENDBRANCH  16  19
ENDBRANCH  15  16
ENDBRANCH  14  15
ENDBRANCH  13  14
ENDBRANCH  12  13
ENDBRANCH   1  12
TORSDOF 8
ENDMDL
MODEL 7
REMARK VINA RESULT:      -6.1      3.597      6.745
REMARK  Name = 
REMARK  9 active torsions:
REMARK  status: ('A' for Active; 'I' for Inactive)
REMARK    1  A    between atoms: C_1  and  S_2
REMARK    2  A    between atoms: S_2  and  N_5
REMARK    3  A    between atoms: N_5  and  C_6
REMARK    4  A    between atoms: C_6  and  C_7
REMARK    5  A    between atoms: C_7  and  C_8
REMARK    6  A    between atoms: C_8  and  C_9
REMARK    7  A    between atoms: C_9  and  C_10
REMARK    8  A    between atoms: C_10  and  C_11
REMARK    9  A    between atoms: N_13  and  C_14
REMARK                            x       y       z     vdW  Elec       q    Type
REMARK                         _______ _______ _______ _____ _____    ______ ____
ROOT
ATOM      1  C   UNL     1       3.772   2.891  20.103  0.00  0.00    +0.000 C 
ENDROOT
BRANCH   1   2
ATOM      2  C   UNL     1       3.767   4.405  19.944  0.00  0.00    +0.000 C 
ATOM      3  O   UNL     1       4.824   5.035  19.896  0.00  0.00    +0.000 OA
ATOM      4  N   UNL     1       2.500   4.947  19.873  0.00  0.00    +0.000 N 
ATOM      5  H   UNL     1       1.717   4.357  20.134  0.00  0.00    +0.000 HD
BRANCH   4   6
ATOM      6  C   UNL     1       2.219   6.306  19.613  0.00  0.00    +0.000 A 
ATOM      7  C   UNL     1       1.767   7.192  20.598  0.00  0.00    +0.000 A 
ATOM      8  C   UNL     1       1.480   8.521  20.292  0.00  0.00    +0.000 A 
ATOM      9  C   UNL     1       1.650   8.986  18.993  0.00  0.00    +0.000 A 
ATOM     10  C   UNL     1       2.119   8.124  18.005  0.00  0.00    +0.000 A 
ATOM     11  C   UNL     1       2.413   6.790  18.314  0.00  0.00    +0.000 A 
ENDBRANCH   4   6
ENDBRANCH   1   2
BRANCH   1  12
ATOM     12  C   UNL     1       3.008   2.260  18.942  0.00  0.00    +0.000 C 
BRANCH  12  13
ATOM     13  C   UNL     1       3.824   2.207  17.661  0.00  0.00    +0.000 C 
BRANCH  13  14
ATOM     14  C   UNL     1       3.481   3.401  16.765  0.00  0.00    +0.000 C 
BRANCH  14  15
ATOM     15  C   UNL     1       4.721   4.151  16.290  0.00  0.00    +0.000 C 
BRANCH  15  16
ATOM     16  N   UNL     1       5.863   3.846  17.168  0.00  0.00    +0.000 NA
ATOM     17  H   UNL     1       5.668   3.874  18.170  0.00  0.00    +0.000 HD
BRANCH  16  19
ATOM     18  C   UNL     1       6.867   6.329  17.438  0.00  0.00    +0.000 C 
ATOM     19  S   UNL     1       7.292   4.692  16.887  0.00  0.00    +0.000 S 
ATOM     20  O   UNL     1       7.462   4.712  15.452  0.00  0.00    +0.000 OA
ATOM     21  O   UNL     1       8.304   4.140  17.760  0.00  0.00    +0.000 OA
ENDBRANCH  16  19
ENDBRANCH  15  16
ENDBRANCH  14  15
ENDBRANCH  13  14
ENDBRANCH  12  13
ENDBRANCH   1  12
TORSDOF 8
ENDMDL
MODEL 8
REMARK VINA RESULT:      -6.1      1.893      2.061
REMARK  Name = 
REMARK  9 active torsions:
REMARK  status: ('A' for Active; 'I' for Inactive)
REMARK    1  A    between atoms: C_1  and  S_2
REMARK    2  A    between atoms: S_2  and  N_5
REMARK    3  A    between atoms: N_5  and  C_6
REMARK    4  A    between atoms: C_6  and  C_7
REMARK    5  A    between atoms: C_7  and  C_8
REMARK    6  A    between atoms: C_8  and  C_9
REMARK    7  A    between atoms: C_9  and  C_10
REMARK    8  A    between atoms: C_10  and  C_11
REMARK    9  A    between atoms: N_13  and  C_14
REMARK                            x       y       z     vdW  Elec       q    Type
REMARK                         _______ _______ _______ _____ _____    ______ ____
ROOT
ATOM      1  C   UNL     1       7.123   6.399  17.881  0.00  0.00    +0.000 C 
ENDROOT
BRANCH   1   2
ATOM      2  C   UNL     1       7.312   5.424  16.728  0.00  0.00    +0.000 C 
ATOM      3  O   UNL     1       7.963   4.389  16.880  0.00  0.00    +0.000 OA
ATOM      4  N   UNL     1       6.701   5.828  15.558  0.00  0.00    +0.000 N 
ATOM      5  H   UNL     1       6.379   6.788  15.500  0.00  0.00    +0.000 HD
BRANCH   4   6
ATOM      6  C   UNL     1       6.629   5.055  14.379  0.00  0.00    +0.000 A 
ATOM      7  C   UNL     1       7.600   5.110  13.372  0.00  0.00    +0.000 A 
ATOM      8  C   UNL     1       7.477   4.345  12.213  0.00  0.00    +0.000 A 
ATOM      9  C   UNL     1       6.380   3.507  12.048  0.00  0.00    +0.000 A 
ATOM     10  C   UNL     1       5.416   3.425  13.049  0.00  0.00    +0.000 A 
ATOM     11  C   UNL     1       5.543   4.188  14.216  0.00  0.00    +0.000 A 
ENDBRANCH   4   6
ENDBRANCH   1   2
BRANCH   1  12
ATOM     12  C   UNL     1       7.041   5.620  19.191  0.00  0.00    +0.000 C 
BRANCH  12  13
ATOM     13  C   UNL     1       5.750   4.829  19.325  0.00  0.00    +0.000 C 
BRANCH  13  14
ATOM     14  C   UNL     1       4.547   5.777  19.323  0.00  0.00    +0.000 C 
BRANCH  14  15
ATOM     15  C   UNL     1       3.217   5.034  19.256  0.00  0.00    +0.000 C 
BRANCH  15  16
ATOM     16  N   UNL     1       3.249   4.038  18.173  0.00  0.00    +0.000 NA
ATOM     17  H   UNL     1       2.804   4.322  17.299  0.00  0.00    +0.000 HD
BRANCH  16  19
ATOM     18  C   UNL     1       1.540   2.791  19.837  0.00  0.00    +0.000 C 
ATOM     19  S   UNL     1       2.726   2.482  18.547  0.00  0.00    +0.000 S 
ATOM     20  O   UNL     1       3.869   1.807  19.117  0.00  0.00    +0.000 OA
ATOM     21  O   UNL     1       2.043   1.960  17.384  0.00  0.00    +0.000 OA
ENDBRANCH  16  19
ENDBRANCH  15  16
ENDBRANCH  14  15
ENDBRANCH  13  14
ENDBRANCH  12  13
ENDBRANCH   1  12
TORSDOF 8
ENDMDL
MODEL 9
REMARK VINA RESULT:      -6.1      2.102      2.292
REMARK  Name = 
REMARK  9 active torsions:
REMARK  status: ('A' for Active; 'I' for Inactive)
REMARK    1  A    between atoms: C_1  and  S_2
REMARK    2  A    between atoms: S_2  and  N_5
REMARK    3  A    between atoms: N_5  and  C_6
REMARK    4  A    between atoms: C_6  and  C_7
REMARK    5  A    between atoms: C_7  and  C_8
REMARK    6  A    between atoms: C_8  and  C_9
REMARK    7  A    between atoms: C_9  and  C_10
REMARK    8  A    between atoms: C_10  and  C_11
REMARK    9  A    between atoms: N_13  and  C_14
REMARK                            x       y       z     vdW  Elec       q    Type
REMARK                         _______ _______ _______ _____ _____    ______ ____
ROOT
ATOM      1  C   UNL     1       6.019   4.668  18.200  0.00  0.00    +0.000 C 
ENDROOT
BRANCH   1   2
ATOM      2  C   UNL     1       6.802   4.533  16.902  0.00  0.00    +0.000 C 
ATOM      3  O   UNL     1       7.999   4.244  16.917  0.00  0.00    +0.000 OA
ATOM      4  N   UNL     1       6.043   4.769  15.773  0.00  0.00    +0.000 N 
ATOM      5  H   UNL     1       5.134   5.201  15.897  0.00  0.00    +0.000 HD
BRANCH   4   6
ATOM      6  C   UNL     1       6.498   4.598  14.447  0.00  0.00    +0.000 A 
ATOM      7  C   UNL     1       7.524   5.371  13.889  0.00  0.00    +0.000 A 
ATOM      8  C   UNL     1       7.926   5.184  12.568  0.00  0.00    +0.000 A 
ATOM      9  C   UNL     1       7.309   4.214  11.786  0.00  0.00    +0.000 A 
ATOM     10  C   UNL     1       6.301   3.423  12.332  0.00  0.00    +0.000 A 
ATOM     11  C   UNL     1       5.902   3.606  13.661  0.00  0.00    +0.000 A 
ENDBRANCH   4   6
ENDBRANCH   1   2
BRANCH   1  12
ATOM     12  C   UNL     1       5.206   5.959  18.166  0.00  0.00    +0.000 C 
BRANCH  12  13
ATOM     13  C   UNL     1       3.999   5.918  19.087  0.00  0.00    +0.000 C 
BRANCH  13  14
ATOM     14  C   UNL     1       2.709   6.077  18.277  0.00  0.00    +0.000 C 
BRANCH  14  15
ATOM     15  C   UNL     1       2.094   4.737  17.887  0.00  0.00    +0.000 C 
BRANCH  15  16
ATOM     16  N   UNL     1       1.272   4.217  18.992  0.00  0.00    +0.000 NA
ATOM     17  H   UNL     1       1.333   4.738  19.868  0.00  0.00    +0.000 HD
BRANCH  16  19
ATOM     18  C   UNL     1       1.401   2.579  21.125  0.00  0.00    +0.000 C 
ATOM     19  S   UNL     1       1.412   2.577  19.346  0.00  0.00    +0.000 S 
ATOM     20  O   UNL     1       2.726   2.186  18.888  0.00  0.00    +0.000 OA
ATOM     21  O   UNL     1       0.218   1.923  18.860  0.00  0.00    +0.000 OA
ENDBRANCH  16  19
ENDBRANCH  15  16
ENDBRANCH  14  15
ENDBRANCH  13  14
ENDBRANCH  12  13
ENDBRANCH   1  12
TORSDOF 8
ENDMDL
