MODEL 1
REMARK VINA RESULT:      -7.7      0.000      0.000
REMARK  Name = 
REMARK  7 active torsions:
REMARK  status: ('A' for Active; 'I' for Inactive)
REMARK    1  A    between atoms: C_1  and  O_2
REMARK    2  A    between atoms: O_2  and  C_3
REMARK    3  A    between atoms: C_6  and  C_7
REMARK    4  A    between atoms: C_12  and  C_13
REMARK    5  A    between atoms: N_16  and  C_17
REMARK    6  A    between atoms: C_19  and  C_20
REMARK    7  A    between atoms: C_27  and  C_28
REMARK                            x       y       z     vdW  Elec       q    Type
REMARK                         _______ _______ _______ _____ _____    ______ ____
ROOT
ATOM      1  C   UNL     1       3.572   6.506  17.299  0.00  0.00    +0.000 A 
ATOM      2  C   UNL     1       3.194   7.859  17.118  0.00  0.00    +0.000 A 
ATOM      3  C   UNL     1       2.342   8.559  17.982  0.00  0.00    +0.000 A 
ATOM      4  C   UNL     1       1.855   7.982  19.156  0.00  0.00    +0.000 A 
ATOM      5  C   UNL     1       2.107   6.618  19.277  0.00  0.00    +0.000 A 
ATOM      6  C   UNL     1       2.871   5.827  18.350  0.00  0.00    +0.000 A 
ATOM      7  N   UNL     1       1.147   8.772  20.086  0.00  0.00    +0.000 N 
ATOM      8  C   UNL     1       0.995  10.098  19.740  0.00  0.00    +0.000 C 
ATOM      9  N   UNL     1       0.997  11.105  20.562  0.00  0.00    +0.000 NA
ATOM     10  N   UNL     1       1.226  10.815  21.879  0.00  0.00    +0.000 N 
ATOM     11  C   UNL     1       1.287   9.542  22.422  0.00  0.00    +0.000 C 
ATOM     12  O   UNL     1       1.512   9.372  23.622  0.00  0.00    +0.000 OA
ATOM     13  C   UNL     1       0.865   8.400  21.484  0.00  0.00    +0.000 C 
ATOM     14  C   UNL     1      -0.646   8.214  21.687  0.00  0.00    +0.000 C 
ATOM     15  C   UNL     1       0.888  10.349  18.250  0.00  0.00    +0.000 C 
ATOM     16  O   UNL     1       2.069   9.858  17.611  0.00  0.00    +0.000 OA
ATOM     17  H   UNL     1       1.444  11.597  22.482  0.00  0.00    +0.000 HD
ENDROOT
BRANCH   6  18
ATOM     18  C   UNL     1       2.775   4.287  18.494  0.00  0.00    +0.000 C 
ATOM     19  C   UNL     1       1.329   3.813  18.756  0.00  0.00    +0.000 C 
ATOM     20  C   UNL     1       0.856   4.066  20.189  0.00  0.00    +0.000 C 
ATOM     21  N   UNL     1       1.799   3.738  21.264  0.00  0.00    +0.000 NA
ATOM     22  C   UNL     1       1.408   2.553  22.012  0.00  0.00    +0.000 C 
ATOM     23  C   UNL     1       3.240   3.787  20.976  0.00  0.00    +0.000 C 
ATOM     24  C   UNL     1       3.656   3.548  19.522  0.00  0.00    +0.000 C 
ATOM     25  C   UNL     1       5.145   3.788  19.284  0.00  0.00    +0.000 C 
ENDBRANCH   6  18
BRANCH   1  29
ATOM     26  C   UNL     1       7.044   5.101  14.955  0.00  0.00    +0.000 A 
ATOM     27  C   UNL     1       5.778   4.573  14.712  0.00  0.00    +0.000 A 
ATOM     28  C   UNL     1       4.640   5.056  15.408  0.00  0.00    +0.000 A 
ATOM     29  C   UNL     1       4.724   6.016  16.430  0.00  0.00    +0.000 A 
ATOM     30  C   UNL     1       6.033   6.544  16.606  0.00  0.00    +0.000 A 
ATOM     31  F   UNL     1       6.278   7.508  17.512  0.00  0.00    +0.000 F 
ATOM     32  C   UNL     1       7.153   6.127  15.873  0.00  0.00    +0.000 A 
BRANCH  26  34
ATOM     33  C   UNL     1       8.527   5.336  13.109  0.00  0.00    +0.000 C 
ATOM     34  O   UNL     1       8.212   4.732  14.356  0.00  0.00    +0.000 OA
ENDBRANCH  26  34
ENDBRANCH   1  29
TORSDOF 3
ENDMDL
MODEL 2
REMARK VINA RESULT:      -7.7      0.821      1.160
REMARK  Name = 
REMARK  7 active torsions:
REMARK  status: ('A' for Active; 'I' for Inactive)
REMARK    1  A    between atoms: C_1  and  O_2
REMARK    2  A    between atoms: O_2  and  C_3
REMARK    3  A    between atoms: C_6  and  C_7
REMARK    4  A    between atoms: C_12  and  C_13
REMARK    5  A    between atoms: N_16  and  C_17
REMARK    6  A    between atoms: C_19  and  C_20
REMARK    7  A    between atoms: C_27  and  C_28
REMARK                            x       y       z     vdW  Elec       q    Type
REMARK                         _______ _______ _______ _____ _____    ______ ____
ROOT
ATOM      1  C   UNL     1       3.689   6.558  17.465  0.00  0.00    +0.000 A 
ATOM      2  C   UNL     1       3.327   7.914  17.270  0.00  0.00    +0.000 A 
ATOM      3  C   UNL     1       2.416   8.608  18.077  0.00  0.00    +0.000 A 
ATOM      4  C   UNL     1       1.846   8.022  19.209  0.00  0.00    +0.000 A 
ATOM      5  C   UNL     1       2.087   6.657  19.335  0.00  0.00    +0.000 A 
ATOM      6  C   UNL     1       2.914   5.872  18.458  0.00  0.00    +0.000 A 
ATOM      7  N   UNL     1       1.075   8.805  20.092  0.00  0.00    +0.000 N 
ATOM      8  C   UNL     1       0.949  10.135  19.748  0.00  0.00    +0.000 C 
ATOM      9  N   UNL     1       0.894  11.134  20.576  0.00  0.00    +0.000 NA
ATOM     10  N   UNL     1       1.029  10.833  21.904  0.00  0.00    +0.000 N 
ATOM     11  C   UNL     1       1.049   9.556  22.439  0.00  0.00    +0.000 C 
ATOM     12  O   UNL     1       1.188   9.375  23.650  0.00  0.00    +0.000 OA
ATOM     13  C   UNL     1       0.694   8.423  21.463  0.00  0.00    +0.000 C 
ATOM     14  C   UNL     1      -0.829   8.237  21.556  0.00  0.00    +0.000 C 
ATOM     15  C   UNL     1       0.950  10.399  18.256  0.00  0.00    +0.000 C 
ATOM     16  O   UNL     1       2.172   9.911  17.699  0.00  0.00    +0.000 OA
ATOM     17  H   UNL     1       1.205  11.610  22.527  0.00  0.00    +0.000 HD
ENDROOT
BRANCH   6  18
ATOM     18  C   UNL     1       2.806   4.332  18.582  0.00  0.00    +0.000 C 
ATOM     19  C   UNL     1       1.352   3.863  18.812  0.00  0.00    +0.000 C 
ATOM     20  C   UNL     1       0.856   4.102  20.240  0.00  0.00    +0.000 C 
ATOM     21  N   UNL     1       1.777   3.755  21.327  0.00  0.00    +0.000 NA
ATOM     22  C   UNL     1       1.365   2.564  22.054  0.00  0.00    +0.000 C 
ATOM     23  C   UNL     1       3.223   3.798  21.065  0.00  0.00    +0.000 C 
ATOM     24  C   UNL     1       3.663   3.574  19.616  0.00  0.00    +0.000 C 
ATOM     25  C   UNL     1       5.159   3.808  19.407  0.00  0.00    +0.000 C 
ENDBRANCH   6  18
BRANCH   1  29
ATOM     26  C   UNL     1       7.065   5.101  15.016  0.00  0.00    +0.000 A 
ATOM     27  C   UNL     1       7.231   6.209  15.845  0.00  0.00    +0.000 A 
ATOM     28  C   UNL     1       6.179   6.653  16.687  0.00  0.00    +0.000 A 
ATOM     29  C   UNL     1       4.899   6.074  16.677  0.00  0.00    +0.000 A 
ATOM     30  C   UNL     1       4.803   4.927  15.842  0.00  0.00    +0.000 A 
ATOM     31  F   UNL     1       3.659   4.225  15.755  0.00  0.00    +0.000 F 
ATOM     32  C   UNL     1       5.857   4.434  15.060  0.00  0.00    +0.000 A 
BRANCH  26  34
ATOM     33  C   UNL     1       8.038   5.092  12.845  0.00  0.00    +0.000 C 
ATOM     34  O   UNL     1       7.991   4.571  14.166  0.00  0.00    +0.000 OA
ENDBRANCH  26  34
ENDBRANCH   1  29
TORSDOF 3
ENDMDL
MODEL 3
REMARK VINA RESULT:      -6.9      4.278      7.392
REMARK  Name = 
REMARK  7 active torsions:
REMARK  status: ('A' for Active; 'I' for Inactive)
REMARK    1  A    between atoms: C_1  and  O_2
REMARK    2  A    between atoms: O_2  and  C_3
REMARK    3  A    between atoms: C_6  and  C_7
REMARK    4  A    between atoms: C_12  and  C_13
REMARK    5  A    between atoms: N_16  and  C_17
REMARK    6  A    between atoms: C_19  and  C_20
REMARK    7  A    between atoms: C_27  and  C_28
REMARK                            x       y       z     vdW  Elec       q    Type
REMARK                         _______ _______ _______ _____ _____    ______ ____
ROOT
ATOM      1  C   UNL     1       1.275  10.732  18.780  0.00  0.00    +0.000 A 
ATOM      2  C   UNL     1       2.280  11.629  18.340  0.00  0.00    +0.000 A 
ATOM      3  C   UNL     1       2.157  13.024  18.375  0.00  0.00    +0.000 A 
ATOM      4  C   UNL     1       1.041  13.648  18.934  0.00  0.00    +0.000 A 
ATOM      5  C   UNL     1      -0.007  12.785  19.246  0.00  0.00    +0.000 A 
ATOM      6  C   UNL     1       0.025  11.353  19.108  0.00  0.00    +0.000 A 
ATOM      7  N   UNL     1       1.032  15.047  19.111  0.00  0.00    +0.000 N 
ATOM      8  C   UNL     1       2.175  15.701  18.703  0.00  0.00    +0.000 C 
ATOM      9  N   UNL     1       2.700  16.746  19.271  0.00  0.00    +0.000 NA
ATOM     10  N   UNL     1       2.084  17.194  20.408  0.00  0.00    +0.000 N 
ATOM     11  C   UNL     1       0.872  16.736  20.898  0.00  0.00    +0.000 C 
ATOM     12  O   UNL     1       0.395  17.188  21.941  0.00  0.00    +0.000 OA
ATOM     13  C   UNL     1       0.093  15.795  19.966  0.00  0.00    +0.000 C 
ATOM     14  C   UNL     1      -0.806  16.693  19.103  0.00  0.00    +0.000 C 
ATOM     15  C   UNL     1       2.877  15.060  17.523  0.00  0.00    +0.000 C 
ATOM     16  O   UNL     1       3.234  13.720  17.868  0.00  0.00    +0.000 OA
ATOM     17  H   UNL     1       2.601  17.857  20.969  0.00  0.00    +0.000 HD
ENDROOT
BRANCH   6  18
ATOM     18  C   UNL     1      -1.330  10.608  19.209  0.00  0.00    +0.000 C 
ATOM     19  C   UNL     1      -1.588   9.695  17.990  0.00  0.00    +0.000 C 
ATOM     20  C   UNL     1      -2.001  10.462  16.732  0.00  0.00    +0.000 C 
ATOM     21  N   UNL     1      -2.995  11.527  16.905  0.00  0.00    +0.000 NA
ATOM     22  C   UNL     1      -4.297  11.175  16.357  0.00  0.00    +0.000 C 
ATOM     23  C   UNL     1      -3.083  12.204  18.207  0.00  0.00    +0.000 C 
ATOM     24  C   UNL     1      -2.636  11.398  19.429  0.00  0.00    +0.000 C 
ATOM     25  C   UNL     1      -2.595  12.232  20.709  0.00  0.00    +0.000 C 
ENDBRANCH   6  18
BRANCH   1  29
ATOM     26  C   UNL     1       2.345   6.484  19.359  0.00  0.00    +0.000 A 
ATOM     27  C   UNL     1       2.583   7.104  18.134  0.00  0.00    +0.000 A 
ATOM     28  C   UNL     1       2.307   8.483  17.947  0.00  0.00    +0.000 A 
ATOM     29  C   UNL     1       1.704   9.279  18.936  0.00  0.00    +0.000 A 
ATOM     30  C   UNL     1       1.521   8.603  20.174  0.00  0.00    +0.000 A 
ATOM     31  F   UNL     1       1.000   9.236  21.241  0.00  0.00    +0.000 F 
ATOM     32  C   UNL     1       1.858   7.260  20.393  0.00  0.00    +0.000 A 
BRANCH  26  34
ATOM     33  C   UNL     1       1.805   4.617  20.731  0.00  0.00    +0.000 C 
ATOM     34  O   UNL     1       2.568   5.176  19.670  0.00  0.00    +0.000 OA
ENDBRANCH  26  34
ENDBRANCH   1  29
TORSDOF 3
ENDMDL
MODEL 4
REMARK VINA RESULT:      -6.9      5.933      9.756
REMARK  Name = 
REMARK  7 active torsions:
REMARK  status: ('A' for Active; 'I' for Inactive)
REMARK    1  A    between atoms: C_1  and  O_2
REMARK    2  A    between atoms: O_2  and  C_3
REMARK    3  A    between atoms: C_6  and  C_7
REMARK    4  A    between atoms: C_12  and  C_13
REMARK    5  A    between atoms: N_16  and  C_17
REMARK    6  A    between atoms: C_19  and  C_20
REMARK    7  A    between atoms: C_27  and  C_28
REMARK                            x       y       z     vdW  Elec       q    Type
REMARK                         _______ _______ _______ _____ _____    ______ ____
ROOT
ATOM      1  C   UNL     1      -0.835  11.794  21.907  0.00  0.00    +0.000 A 
ATOM      2  C   UNL     1      -1.855  11.416  22.814  0.00  0.00    +0.000 A 
ATOM      3  C   UNL     1      -2.877  12.271  23.247  0.00  0.00    +0.000 A 
ATOM      4  C   UNL     1      -3.012  13.566  22.743  0.00  0.00    +0.000 A 
ATOM      5  C   UNL     1      -1.944  13.994  21.958  0.00  0.00    +0.000 A 
ATOM      6  C   UNL     1      -0.809  13.192  21.588  0.00  0.00    +0.000 A 
ATOM      7  N   UNL     1      -4.150  14.332  23.069  0.00  0.00    +0.000 N 
ATOM      8  C   UNL     1      -5.068  13.708  23.888  0.00  0.00    +0.000 C 
ATOM      9  N   UNL     1      -6.358  13.847  23.831  0.00  0.00    +0.000 NA
ATOM     10  N   UNL     1      -6.841  14.644  22.829  0.00  0.00    +0.000 N 
ATOM     11  C   UNL     1      -6.072  15.434  21.991  0.00  0.00    +0.000 C 
ATOM     12  O   UNL     1      -6.591  16.114  21.103  0.00  0.00    +0.000 OA
ATOM     13  C   UNL     1      -4.587  15.553  22.371  0.00  0.00    +0.000 C 
ATOM     14  C   UNL     1      -4.479  16.766  23.308  0.00  0.00    +0.000 C 
ATOM     15  C   UNL     1      -4.464  12.733  24.878  0.00  0.00    +0.000 C 
ATOM     16  O   UNL     1      -3.753  11.722  24.159  0.00  0.00    +0.000 OA
ATOM     17  H   UNL     1      -7.834  14.584  22.644  0.00  0.00    +0.000 HD
ENDROOT
BRANCH   6  18
ATOM     18  C   UNL     1       0.408  13.934  20.980  0.00  0.00    +0.000 C 
ATOM     19  C   UNL     1       1.045  14.928  21.977  0.00  0.00    +0.000 C 
ATOM     20  C   UNL     1       0.236  16.214  22.156  0.00  0.00    +0.000 C 
ATOM     21  N   UNL     1      -0.287  16.840  20.937  0.00  0.00    +0.000 NA
ATOM     22  C   UNL     1       0.409  18.071  20.594  0.00  0.00    +0.000 C 
ATOM     23  C   UNL     1      -0.561  15.989  19.770  0.00  0.00    +0.000 C 
ATOM     24  C   UNL     1       0.262  14.704  19.652  0.00  0.00    +0.000 C 
ATOM     25  C   UNL     1      -0.207  13.801  18.512  0.00  0.00    +0.000 C 
ENDBRANCH   6  18
BRANCH   1  29
ATOM     26  C   UNL     1       1.495   8.358  20.393  0.00  0.00    +0.000 A 
ATOM     27  C   UNL     1       1.033   9.332  19.510  0.00  0.00    +0.000 A 
ATOM     28  C   UNL     1       0.339  10.475  19.983  0.00  0.00    +0.000 A 
ATOM     29  C   UNL     1       0.001  10.655  21.335  0.00  0.00    +0.000 A 
ATOM     30  C   UNL     1       0.532   9.651  22.190  0.00  0.00    +0.000 A 
ATOM     31  F   UNL     1       0.342   9.700  23.521  0.00  0.00    +0.000 F 
ATOM     32  C   UNL     1       1.282   8.555  21.743  0.00  0.00    +0.000 A 
BRANCH  26  34
ATOM     33  C   UNL     1       2.578   7.061  18.718  0.00  0.00    +0.000 C 
ATOM     34  O   UNL     1       2.175   7.221  20.071  0.00  0.00    +0.000 OA
ENDBRANCH  26  34
ENDBRANCH   1  29
TORSDOF 3
ENDMDL
MODEL 5
REMARK VINA RESULT:      -6.9      7.912     10.277
REMARK  Name = 
REMARK  7 active torsions:
REMARK  status: ('A' for Active; 'I' for Inactive)
REMARK    1  A    between atoms: C_1  and  O_2
REMARK    2  A    between atoms: O_2  and  C_3
REMARK    3  A    between atoms: C_6  and  C_7
REMARK    4  A    between atoms: C_12  and  C_13
REMARK    5  A    between atoms: N_16  and  C_17
REMARK    6  A    between atoms: C_19  and  C_20
REMARK    7  A    between atoms: C_27  and  C_28
REMARK                            x       y       z     vdW  Elec       q    Type
REMARK                         _______ _______ _______ _____ _____    ______ ____
ROOT
ATOM      1  C   UNL     1      -3.683  11.899  19.331  0.00  0.00    +0.000 A 
ATOM      2  C   UNL     1      -5.042  11.972  19.722  0.00  0.00    +0.000 A 
ATOM      3  C   UNL     1      -5.516  12.766  20.773  0.00  0.00    +0.000 A 
ATOM      4  C   UNL     1      -4.673  13.626  21.479  0.00  0.00    +0.000 A 
ATOM      5  C   UNL     1      -3.319  13.467  21.197  0.00  0.00    +0.000 A 
ATOM      6  C   UNL     1      -2.773  12.571  20.212  0.00  0.00    +0.000 A 
ATOM      7  N   UNL     1      -5.216  14.536  22.410  0.00  0.00    +0.000 N 
ATOM      8  C   UNL     1      -6.588  14.497  22.543  0.00  0.00    +0.000 C 
ATOM      9  N   UNL     1      -7.361  15.516  22.768  0.00  0.00    +0.000 NA
ATOM     10  N   UNL     1      -6.754  16.742  22.820  0.00  0.00    +0.000 N 
ATOM     11  C   UNL     1      -5.386  16.960  22.821  0.00  0.00    +0.000 C 
ATOM     12  O   UNL     1      -4.924  18.102  22.857  0.00  0.00    +0.000 OA
ATOM     13  C   UNL     1      -4.515  15.703  22.973  0.00  0.00    +0.000 C 
ATOM     14  C   UNL     1      -4.298  15.511  24.482  0.00  0.00    +0.000 C 
ATOM     15  C   UNL     1      -7.199  13.127  22.332  0.00  0.00    +0.000 C 
ATOM     16  O   UNL     1      -6.869  12.669  21.018  0.00  0.00    +0.000 OA
ATOM     17  H   UNL     1      -7.362  17.549  22.775  0.00  0.00    +0.000 HD
ENDROOT
BRANCH   6  18
ATOM     18  C   UNL     1      -1.246  12.313  20.266  0.00  0.00    +0.000 C 
ATOM     19  C   UNL     1      -0.718  12.225  21.716  0.00  0.00    +0.000 C 
ATOM     20  C   UNL     1      -0.603  13.587  22.405  0.00  0.00    +0.000 C 
ATOM     21  N   UNL     1      -0.018  14.678  21.619  0.00  0.00    +0.000 NA
ATOM     22  C   UNL     1       1.318  15.041  22.068  0.00  0.00    +0.000 C 
ATOM     23  C   UNL     1      -0.140  14.635  20.154  0.00  0.00    +0.000 C 
ATOM     24  C   UNL     1      -0.274  13.249  19.519  0.00  0.00    +0.000 C 
ATOM     25  C   UNL     1      -0.570  13.308  18.021  0.00  0.00    +0.000 C 
ENDBRANCH   6  18
BRANCH   1  29
ATOM     26  C   UNL     1      -2.930  10.118  15.357  0.00  0.00    +0.000 A 
ATOM     27  C   UNL     1      -2.195   9.696  16.463  0.00  0.00    +0.000 A 
ATOM     28  C   UNL     1      -2.464  10.208  17.758  0.00  0.00    +0.000 A 
ATOM     29  C   UNL     1      -3.411  11.219  17.994  0.00  0.00    +0.000 A 
ATOM     30  C   UNL     1      -4.154  11.581  16.837  0.00  0.00    +0.000 A 
ATOM     31  F   UNL     1      -5.134  12.502  16.901  0.00  0.00    +0.000 F 
ATOM     32  C   UNL     1      -3.946  11.029  15.566  0.00  0.00    +0.000 A 
BRANCH  26  34
ATOM     33  C   UNL     1      -3.867   9.908  13.181  0.00  0.00    +0.000 C 
ATOM     34  O   UNL     1      -2.775   9.705  14.067  0.00  0.00    +0.000 OA
ENDBRANCH  26  34
ENDBRANCH   1  29
TORSDOF 3
ENDMDL
MODEL 6
REMARK VINA RESULT:      -6.8      7.686      9.855
REMARK  Name = 
REMARK  7 active torsions:
REMARK  status: ('A' for Active; 'I' for Inactive)
REMARK    1  A    between atoms: C_1  and  O_2
REMARK    2  A    between atoms: O_2  and  C_3
REMARK    3  A    between atoms: C_6  and  C_7
REMARK    4  A    between atoms: C_12  and  C_13
REMARK    5  A    between atoms: N_16  and  C_17
REMARK    6  A    between atoms: C_19  and  C_20
REMARK    7  A    between atoms: C_27  and  C_28
REMARK                            x       y       z     vdW  Elec       q    Type
REMARK                         _______ _______ _______ _____ _____    ______ ____
ROOT
ATOM      1  C   UNL     1      -0.149  13.210  20.131  0.00  0.00    +0.000 A 
ATOM      2  C   UNL     1      -0.141  12.295  19.050  0.00  0.00    +0.000 A 
ATOM      3  C   UNL     1      -1.289  11.684  18.529  0.00  0.00    +0.000 A 
ATOM      4  C   UNL     1      -2.565  12.001  18.998  0.00  0.00    +0.000 A 
ATOM      5  C   UNL     1      -2.578  12.793  20.143  0.00  0.00    +0.000 A 
ATOM      6  C   UNL     1      -1.416  13.342  20.790  0.00  0.00    +0.000 A 
ATOM      7  N   UNL     1      -3.703  11.500  18.333  0.00  0.00    +0.000 N 
ATOM      8  C   UNL     1      -3.444  10.712  17.232  0.00  0.00    +0.000 C 
ATOM      9  N   UNL     1      -4.156  10.662  16.146  0.00  0.00    +0.000 NA
ATOM     10  N   UNL     1      -5.225  11.515  16.079  0.00  0.00    +0.000 N 
ATOM     11  C   UNL     1      -5.699  12.290  17.123  0.00  0.00    +0.000 C 
ATOM     12  O   UNL     1      -6.663  13.043  16.971  0.00  0.00    +0.000 OA
ATOM     13  C   UNL     1      -5.079  11.999  18.499  0.00  0.00    +0.000 C 
ATOM     14  C   UNL     1      -5.959  10.919  19.147  0.00  0.00    +0.000 C 
ATOM     15  C   UNL     1      -2.167   9.903  17.326  0.00  0.00    +0.000 C 
ATOM     16  O   UNL     1      -1.064  10.796  17.499  0.00  0.00    +0.000 OA
ATOM     17  H   UNL     1      -5.646  11.638  15.168  0.00  0.00    +0.000 HD
ENDROOT
BRANCH   6  18
ATOM     18  C   UNL     1      -1.613  13.927  22.211  0.00  0.00    +0.000 C 
ATOM     19  C   UNL     1      -1.383  12.872  23.316  0.00  0.00    +0.000 C 
ATOM     20  C   UNL     1      -2.542  11.884  23.464  0.00  0.00    +0.000 C 
ATOM     21  N   UNL     1      -3.897  12.447  23.446  0.00  0.00    +0.000 NA
ATOM     22  C   UNL     1      -4.534  12.422  24.753  0.00  0.00    +0.000 C 
ATOM     23  C   UNL     1      -4.127  13.703  22.717  0.00  0.00    +0.000 C 
ATOM     24  C   UNL     1      -2.928  14.644  22.579  0.00  0.00    +0.000 C 
ATOM     25  C   UNL     1      -3.210  15.835  21.664  0.00  0.00    +0.000 C 
ENDBRANCH   6  18
BRANCH   1  29
ATOM     26  C   UNL     1       3.483  15.617  20.867  0.00  0.00    +0.000 A 
ATOM     27  C   UNL     1       3.512  14.235  21.045  0.00  0.00    +0.000 A 
ATOM     28  C   UNL     1       2.377  13.437  20.752  0.00  0.00    +0.000 A 
ATOM     29  C   UNL     1       1.144  13.984  20.357  0.00  0.00    +0.000 A 
ATOM     30  C   UNL     1       1.186  15.391  20.155  0.00  0.00    +0.000 A 
ATOM     31  F   UNL     1       0.103  16.064  19.729  0.00  0.00    +0.000 F 
ATOM     32  C   UNL     1       2.324  16.181  20.371  0.00  0.00    +0.000 A 
BRANCH  26  34
ATOM     33  C   UNL     1       5.002  17.228  19.997  0.00  0.00    +0.000 C 
ATOM     34  O   UNL     1       4.499  16.493  21.105  0.00  0.00    +0.000 OA
ENDBRANCH  26  34
ENDBRANCH   1  29
TORSDOF 3
ENDMDL
MODEL 7
REMARK VINA RESULT:      -6.8      8.104      9.604
REMARK  Name = 
REMARK  7 active torsions:
REMARK  status: ('A' for Active; 'I' for Inactive)
REMARK    1  A    between atoms: C_1  and  O_2
REMARK    2  A    between atoms: O_2  and  C_3
REMARK    3  A    between atoms: C_6  and  C_7
REMARK    4  A    between atoms: C_12  and  C_13
REMARK    5  A    between atoms: N_16  and  C_17
REMARK    6  A    between atoms: C_19  and  C_20
REMARK    7  A    between atoms: C_27  and  C_28
REMARK                            x       y       z     vdW  Elec       q    Type
REMARK                         _______ _______ _______ _____ _____    ______ ____
ROOT
ATOM      1  C   UNL     1      -0.467  13.254  19.628  0.00  0.00    +0.000 A 
ATOM      2  C   UNL     1      -0.806  12.499  18.479  0.00  0.00    +0.000 A 
ATOM      3  C   UNL     1      -2.085  11.989  18.223  0.00  0.00    +0.000 A 
ATOM      4  C   UNL     1      -3.164  12.261  19.066  0.00  0.00    +0.000 A 
ATOM      5  C   UNL     1      -2.819  12.884  20.262  0.00  0.00    +0.000 A 
ATOM      6  C   UNL     1      -1.495  13.315  20.626  0.00  0.00    +0.000 A 
ATOM      7  N   UNL     1      -4.467  11.879  18.685  0.00  0.00    +0.000 N 
ATOM      8  C   UNL     1      -4.565  11.249  17.463  0.00  0.00    +0.000 C 
ATOM      9  N   UNL     1      -5.548  11.365  16.621  0.00  0.00    +0.000 NA
ATOM     10  N   UNL     1      -6.544  12.239  16.965  0.00  0.00    +0.000 N 
ATOM     11  C   UNL     1      -6.670  12.869  18.192  0.00  0.00    +0.000 C 
ATOM     12  O   UNL     1      -7.595  13.653  18.413  0.00  0.00    +0.000 OA
ATOM     13  C   UNL     1      -5.715  12.376  19.291  0.00  0.00    +0.000 C 
ATOM     14  C   UNL     1      -6.444  11.232  20.012  0.00  0.00    +0.000 C 
ATOM     15  C   UNL     1      -3.358  10.411  17.092  0.00  0.00    +0.000 C 
ATOM     16  O   UNL     1      -2.201  11.250  17.065  0.00  0.00    +0.000 OA
ATOM     17  H   UNL     1      -7.190  12.497  16.231  0.00  0.00    +0.000 HD
ENDROOT
BRANCH   6  18
ATOM     18  C   UNL     1      -1.264  13.699  22.109  0.00  0.00    +0.000 C 
ATOM     19  C   UNL     1      -1.239  12.463  23.036  0.00  0.00    +0.000 C 
ATOM     20  C   UNL     1      -2.626  11.881  23.310  0.00  0.00    +0.000 C 
ATOM     21  N   UNL     1      -3.696  12.837  23.615  0.00  0.00    +0.000 NA
ATOM     22  C   UNL     1      -4.096  12.806  25.013  0.00  0.00    +0.000 C 
ATOM     23  C   UNL     1      -3.596  14.201  23.074  0.00  0.00    +0.000 C 
ATOM     24  C   UNL     1      -2.185  14.726  22.798  0.00  0.00    +0.000 C 
ATOM     25  C   UNL     1      -2.183  16.074  22.080  0.00  0.00    +0.000 C 
ENDBRANCH   6  18
BRANCH   1  29
ATOM     26  C   UNL     1       3.538  15.117  19.493  0.00  0.00    +0.000 A 
ATOM     27  C   UNL     1       2.467  15.712  18.828  0.00  0.00    +0.000 A 
ATOM     28  C   UNL     1       1.161  15.166  18.912  0.00  0.00    +0.000 A 
ATOM     29  C   UNL     1       0.881  13.964  19.584  0.00  0.00    +0.000 A 
ATOM     30  C   UNL     1       2.002  13.425  20.273  0.00  0.00    +0.000 A 
ATOM     31  F   UNL     1       1.893  12.302  21.006  0.00  0.00    +0.000 F 
ATOM     32  C   UNL     1       3.282  13.997  20.257  0.00  0.00    +0.000 A 
BRANCH  26  34
ATOM     33  C   UNL     1       5.616  15.262  18.343  0.00  0.00    +0.000 C 
ATOM     34  O   UNL     1       4.834  15.540  19.497  0.00  0.00    +0.000 OA
ENDBRANCH  26  34
ENDBRANCH   1  29
TORSDOF 3
ENDMDL
MODEL 8
REMARK VINA RESULT:      -6.8      4.238      7.472
REMARK  Name = 
REMARK  7 active torsions:
REMARK  status: ('A' for Active; 'I' for Inactive)
REMARK    1  A    between atoms: C_1  and  O_2
REMARK    2  A    between atoms: O_2  and  C_3
REMARK    3  A    between atoms: C_6  and  C_7
REMARK    4  A    between atoms: C_12  and  C_13
REMARK    5  A    between atoms: N_16  and  C_17
REMARK    6  A    between atoms: C_19  and  C_20
REMARK    7  A    between atoms: C_27  and  C_28
REMARK                            x       y       z     vdW  Elec       q    Type
REMARK                         _______ _______ _______ _____ _____    ______ ____
ROOT
ATOM      1  C   UNL     1       1.051  10.755  19.080  0.00  0.00    +0.000 A 
ATOM      2  C   UNL     1       2.123  11.594  18.687  0.00  0.00    +0.000 A 
ATOM      3  C   UNL     1       2.041  12.990  18.613  0.00  0.00    +0.000 A 
ATOM      4  C   UNL     1       0.893  13.679  19.008  0.00  0.00    +0.000 A 
ATOM      5  C   UNL     1      -0.208  12.866  19.266  0.00  0.00    +0.000 A 
ATOM      6  C   UNL     1      -0.207  11.428  19.232  0.00  0.00    +0.000 A 
ATOM      7  N   UNL     1       0.910  15.087  19.086  0.00  0.00    +0.000 N 
ATOM      8  C   UNL     1       2.108  15.683  18.757  0.00  0.00    +0.000 C 
ATOM      9  N   UNL     1       2.604  16.753  19.304  0.00  0.00    +0.000 NA
ATOM     10  N   UNL     1       1.889  17.295  20.336  0.00  0.00    +0.000 N 
ATOM     11  C   UNL     1       0.620  16.903  20.727  0.00  0.00    +0.000 C 
ATOM     12  O   UNL     1       0.052  17.440  21.680  0.00  0.00    +0.000 OA
ATOM     13  C   UNL     1      -0.089  15.916  19.785  0.00  0.00    +0.000 C 
ATOM     14  C   UNL     1      -0.866  16.772  18.773  0.00  0.00    +0.000 C 
ATOM     15  C   UNL     1       2.908  14.943  17.704  0.00  0.00    +0.000 C 
ATOM     16  O   UNL     1       3.185  13.622  18.175  0.00  0.00    +0.000 OA
ATOM     17  H   UNL     1       2.366  17.985  20.902  0.00  0.00    +0.000 HD
ENDROOT
BRANCH   6  18
ATOM     18  C   UNL     1      -1.587  10.724  19.241  0.00  0.00    +0.000 C 
ATOM     19  C   UNL     1      -1.668   9.580  18.206  0.00  0.00    +0.000 C 
ATOM     20  C   UNL     1      -1.829  10.073  16.766  0.00  0.00    +0.000 C 
ATOM     21  N   UNL     1      -2.794  11.154  16.542  0.00  0.00    +0.000 NA
ATOM     22  C   UNL     1      -3.995  10.702  15.856  0.00  0.00    +0.000 C 
ATOM     23  C   UNL     1      -3.077  12.086  17.644  0.00  0.00    +0.000 C 
ATOM     24  C   UNL     1      -2.879  11.547  19.063  0.00  0.00    +0.000 C 
ATOM     25  C   UNL     1      -3.026  12.627  20.134  0.00  0.00    +0.000 C 
ENDBRANCH   6  18
BRANCH   1  29
ATOM     26  C   UNL     1       2.288   6.580  19.827  0.00  0.00    +0.000 A 
ATOM     27  C   UNL     1       1.669   7.316  20.835  0.00  0.00    +0.000 A 
ATOM     28  C   UNL     1       1.206   8.635  20.596  0.00  0.00    +0.000 A 
ATOM     29  C   UNL     1       1.416   9.307  19.380  0.00  0.00    +0.000 A 
ATOM     30  C   UNL     1       2.017   8.494  18.380  0.00  0.00    +0.000 A 
ATOM     31  F   UNL     1       2.244   8.968  17.142  0.00  0.00    +0.000 F 
ATOM     32  C   UNL     1       2.412   7.164  18.583  0.00  0.00    +0.000 A 
BRANCH  26  34
ATOM     33  C   UNL     1       2.208   4.469  20.922  0.00  0.00    +0.000 C 
ATOM     34  O   UNL     1       2.772   5.309  19.924  0.00  0.00    +0.000 OA
ENDBRANCH  26  34
ENDBRANCH   1  29
TORSDOF 3
ENDMDL
MODEL 9
REMARK VINA RESULT:      -6.8      8.231      9.846
REMARK  Name = 
REMARK  7 active torsions:
REMARK  status: ('A' for Active; 'I' for Inactive)
REMARK    1  A    between atoms: C_1  and  O_2
REMARK    2  A    between atoms: O_2  and  C_3
REMARK    3  A    between atoms: C_6  and  C_7
REMARK    4  A    between atoms: C_12  and  C_13
REMARK    5  A    between atoms: N_16  and  C_17
REMARK    6  A    between atoms: C_19  and  C_20
REMARK    7  A    between atoms: C_27  and  C_28
REMARK                            x       y       z     vdW  Elec       q    Type
REMARK                         _______ _______ _______ _____ _____    ______ ____
ROOT
ATOM      1  C   UNL     1      -0.389  13.234  19.657  0.00  0.00    +0.000 A 
ATOM      2  C   UNL     1      -0.715  12.487  18.499  0.00  0.00    +0.000 A 
ATOM      3  C   UNL     1      -1.990  11.975  18.228  0.00  0.00    +0.000 A 
ATOM      4  C   UNL     1      -3.078  12.239  19.062  0.00  0.00    +0.000 A 
ATOM      5  C   UNL     1      -2.747  12.854  20.266  0.00  0.00    +0.000 A 
ATOM      6  C   UNL     1      -1.427  13.286  20.645  0.00  0.00    +0.000 A 
ATOM      7  N   UNL     1      -4.376  11.857  18.665  0.00  0.00    +0.000 N 
ATOM      8  C   UNL     1      -4.461  11.234  17.438  0.00  0.00    +0.000 C 
ATOM      9  N   UNL     1      -5.436  11.354  16.587  0.00  0.00    +0.000 NA
ATOM     10  N   UNL     1      -6.437  12.223  16.928  0.00  0.00    +0.000 N 
ATOM     11  C   UNL     1      -6.577  12.844  18.158  0.00  0.00    +0.000 C 
ATOM     12  O   UNL     1      -7.506  13.624  18.375  0.00  0.00    +0.000 OA
ATOM     13  C   UNL     1      -5.631  12.346  19.263  0.00  0.00    +0.000 C 
ATOM     14  C   UNL     1      -6.364  11.195  19.969  0.00  0.00    +0.000 C 
ATOM     15  C   UNL     1      -3.248  10.402  17.073  0.00  0.00    +0.000 C 
ATOM     16  O   UNL     1      -2.093  11.244  17.063  0.00  0.00    +0.000 OA
ATOM     17  H   UNL     1      -7.077  12.485  16.190  0.00  0.00    +0.000 HD
ENDROOT
BRANCH   6  18
ATOM     18  C   UNL     1      -1.211  13.659  22.133  0.00  0.00    +0.000 C 
ATOM     19  C   UNL     1      -1.225  12.421  23.055  0.00  0.00    +0.000 C 
ATOM     20  C   UNL     1      -2.628  11.865  23.306  0.00  0.00    +0.000 C 
ATOM     21  N   UNL     1      -3.683  12.841  23.598  0.00  0.00    +0.000 NA
ATOM     22  C   UNL     1      -4.105  12.813  24.990  0.00  0.00    +0.000 C 
ATOM     23  C   UNL     1      -3.548  14.205  23.064  0.00  0.00    +0.000 C 
ATOM     24  C   UNL     1      -2.122  14.702  22.811  0.00  0.00    +0.000 C 
ATOM     25  C   UNL     1      -2.083  16.053  22.099  0.00  0.00    +0.000 C 
ENDBRANCH   6  18
BRANCH   1  29
ATOM     26  C   UNL     1       3.409  15.492  19.602  0.00  0.00    +0.000 A 
ATOM     27  C   UNL     1       3.347  14.244  20.219  0.00  0.00    +0.000 A 
ATOM     28  C   UNL     1       2.156  13.475  20.192  0.00  0.00    +0.000 A 
ATOM     29  C   UNL     1       0.957  13.948  19.631  0.00  0.00    +0.000 A 
ATOM     30  C   UNL     1       1.092  15.207  18.984  0.00  0.00    +0.000 A 
ATOM     31  F   UNL     1       0.051  15.779  18.353  0.00  0.00    +0.000 F 
ATOM     32  C   UNL     1       2.284  15.943  18.941  0.00  0.00    +0.000 A 
BRANCH  26  34
ATOM     33  C   UNL     1       4.469  17.468  20.398  0.00  0.00    +0.000 C 
ATOM     34  O   UNL     1       4.486  16.326  19.552  0.00  0.00    +0.000 OA
ENDBRANCH  26  34
ENDBRANCH   1  29
TORSDOF 3
ENDMDL
