MODEL 1
REMARK VINA RESULT:      -6.2      0.000      0.000
REMARK  Name = 
REMARK  4 active torsions:
REMARK  status: ('A' for Active; 'I' for Inactive)
REMARK    1  A    between atoms: C_1  and  O_2
REMARK    2  A    between atoms: O_2  and  C_3
REMARK    3  A    between atoms: C_7  and  N_8
REMARK    4  A    between atoms: N_8  and  O_9
REMARK                            x       y       z     vdW  Elec       q    Type
REMARK                         _______ _______ _______ _____ _____    ______ ____
ROOT
ATOM      1  N   UNL     1       4.529   4.952  17.416  0.00  0.00    +0.000 N 
ATOM      2  C   UNL     1       3.672   5.708  18.257  0.00  0.00    +0.000 A 
ATOM      3  C   UNL     1       3.194   5.136  19.443  0.00  0.00    +0.000 A 
ATOM      4  C   UNL     1       2.395   5.884  20.309  0.00  0.00    +0.000 A 
ATOM      5  C   UNL     1       2.070   7.185  19.964  0.00  0.00    +0.000 A 
ATOM      6 BR   UNL     1       1.024   8.254  21.108  0.00  0.00    +0.000 Br
ATOM      7  C   UNL     1       2.542   7.678  18.764  0.00  0.00    +0.000 A 
ATOM      8  N   UNL     1       3.329   6.971  17.915  0.00  0.00    +0.000 NA
ENDROOT
BRANCH   1  13
ATOM      9  C   UNL     1       6.912   5.485  16.759  0.00  0.00    +0.000 C 
ATOM     10  C   UNL     1       7.245   4.581  15.607  0.00  0.00    +0.000 C 
ATOM     11  C   UNL     1       6.288   4.573  14.671  0.00  0.00    +0.000 C 
ATOM     12  C   UNL     1       5.160   5.485  15.043  0.00  0.00    +0.000 C 
ATOM     13  C   UNL     1       5.402   5.788  16.539  0.00  0.00    +0.000 C 
BRANCH   9  15
ATOM     14  C   UNL     1       7.461   7.655  17.561  0.00  0.00    +0.000 C 
ATOM     15  O   UNL     1       7.760   6.629  16.623  0.00  0.00    +0.000 OA
ENDBRANCH   9  15
ENDBRANCH   1  13
BRANCH   1  16
ATOM     16  O   UNL     1       5.183   3.833  17.962  0.00  0.00    +0.000 OA
ATOM     17  H   UNL     1       5.658   3.464  17.194  0.00  0.00    +0.000 HD
ENDBRANCH   1  16
TORSDOF 3
ENDMDL
MODEL 2
REMARK VINA RESULT:      -6.1      3.439      5.881
REMARK  Name = 
REMARK  4 active torsions:
REMARK  status: ('A' for Active; 'I' for Inactive)
REMARK    1  A    between atoms: C_1  and  O_2
REMARK    2  A    between atoms: O_2  and  C_3
REMARK    3  A    between atoms: C_7  and  N_8
REMARK    4  A    between atoms: N_8  and  O_9
REMARK                            x       y       z     vdW  Elec       q    Type
REMARK                         _______ _______ _______ _____ _____    ______ ____
ROOT
ATOM      1  N   UNL     1       3.157   4.981  18.768  0.00  0.00    +0.000 N 
ATOM      2  C   UNL     1       4.047   5.010  17.661  0.00  0.00    +0.000 A 
ATOM      3  C   UNL     1       4.764   6.181  17.387  0.00  0.00    +0.000 A 
ATOM      4  C   UNL     1       5.682   6.211  16.337  0.00  0.00    +0.000 A 
ATOM      5  C   UNL     1       5.853   5.075  15.565  0.00  0.00    +0.000 A 
ATOM      6 BR   UNL     1       7.103   5.043  14.157  0.00  0.00    +0.000 Br
ATOM      7  C   UNL     1       5.089   3.963  15.864  0.00  0.00    +0.000 A 
ATOM      8  N   UNL     1       4.200   3.912  16.887  0.00  0.00    +0.000 NA
ENDROOT
BRANCH   1  13
ATOM      9  C   UNL     1       2.908   3.574  20.855  0.00  0.00    +0.000 C 
ATOM     10  C   UNL     1       1.445   3.579  21.195  0.00  0.00    +0.000 C 
ATOM     11  C   UNL     1       0.673   3.326  20.131  0.00  0.00    +0.000 C 
ATOM     12  C   UNL     1       1.499   3.098  18.904  0.00  0.00    +0.000 C 
ATOM     13  C   UNL     1       2.903   3.608  19.299  0.00  0.00    +0.000 C 
BRANCH   9  15
ATOM     14  C   UNL     1       4.538   1.854  20.666  0.00  0.00    +0.000 C 
ATOM     15  O   UNL     1       3.439   2.366  21.408  0.00  0.00    +0.000 OA
ENDBRANCH   9  15
ENDBRANCH   1  13
BRANCH   1  16
ATOM     16  O   UNL     1       3.307   5.955  19.769  0.00  0.00    +0.000 OA
ATOM     17  H   UNL     1       3.547   5.426  20.553  0.00  0.00    +0.000 HD
ENDBRANCH   1  16
TORSDOF 3
ENDMDL
MODEL 3
REMARK VINA RESULT:      -6.0      2.381      3.470
REMARK  Name = 
REMARK  4 active torsions:
REMARK  status: ('A' for Active; 'I' for Inactive)
REMARK    1  A    between atoms: C_1  and  O_2
REMARK    2  A    between atoms: O_2  and  C_3
REMARK    3  A    between atoms: C_7  and  N_8
REMARK    4  A    between atoms: N_8  and  O_9
REMARK                            x       y       z     vdW  Elec       q    Type
REMARK                         _______ _______ _______ _____ _____    ______ ____
ROOT
ATOM      1  N   UNL     1       4.835   6.226  18.098  0.00  0.00    +0.000 N 
ATOM      2  C   UNL     1       3.866   5.221  18.354  0.00  0.00    +0.000 A 
ATOM      3  C   UNL     1       2.506   5.532  18.234  0.00  0.00    +0.000 A 
ATOM      4  C   UNL     1       1.541   4.543  18.427  0.00  0.00    +0.000 A 
ATOM      5  C   UNL     1       1.951   3.264  18.759  0.00  0.00    +0.000 A 
ATOM      6 BR   UNL     1       0.698   1.879  19.000  0.00  0.00    +0.000 Br
ATOM      7  C   UNL     1       3.306   3.030  18.899  0.00  0.00    +0.000 A 
ATOM      8  N   UNL     1       4.258   3.975  18.703  0.00  0.00    +0.000 NA
ENDROOT
BRANCH   1  13
ATOM      9  C   UNL     1       6.844   6.552  16.597  0.00  0.00    +0.000 C 
ATOM     10  C   UNL     1       7.821   7.387  17.373  0.00  0.00    +0.000 C 
ATOM     11  C   UNL     1       7.996   6.939  18.622  0.00  0.00    +0.000 C 
ATOM     12  C   UNL     1       7.169   5.718  18.880  0.00  0.00    +0.000 C 
ATOM     13  C   UNL     1       6.170   5.687  17.701  0.00  0.00    +0.000 C 
BRANCH   9  15
ATOM     14  C   UNL     1       6.955   4.630  15.202  0.00  0.00    +0.000 C 
ATOM     15  O   UNL     1       7.622   5.798  15.662  0.00  0.00    +0.000 OA
ENDBRANCH   9  15
ENDBRANCH   1  13
BRANCH   1  16
ATOM     16  O   UNL     1       4.444   7.360  17.367  0.00  0.00    +0.000 OA
ATOM     17  H   UNL     1       4.316   7.005  16.467  0.00  0.00    +0.000 HD
ENDBRANCH   1  16
TORSDOF 3
ENDMDL
MODEL 4
REMARK VINA RESULT:      -5.8      3.174      4.468
REMARK  Name = 
REMARK  4 active torsions:
REMARK  status: ('A' for Active; 'I' for Inactive)
REMARK    1  A    between atoms: C_1  and  O_2
REMARK    2  A    between atoms: O_2  and  C_3
REMARK    3  A    between atoms: C_7  and  N_8
REMARK    4  A    between atoms: N_8  and  O_9
REMARK                            x       y       z     vdW  Elec       q    Type
REMARK                         _______ _______ _______ _____ _____    ______ ____
ROOT
ATOM      1  N   UNL     1       3.593   5.194  18.399  0.00  0.00    +0.000 N 
ATOM      2  C   UNL     1       2.951   6.419  18.721  0.00  0.00    +0.000 A 
ATOM      3  C   UNL     1       2.935   7.455  17.778  0.00  0.00    +0.000 A 
ATOM      4  C   UNL     1       2.262   8.645  18.057  0.00  0.00    +0.000 A 
ATOM      5  C   UNL     1       1.634   8.788  19.282  0.00  0.00    +0.000 A 
ATOM      6 BR   UNL     1       0.681  10.357  19.702  0.00  0.00    +0.000 Br
ATOM      7  C   UNL     1       1.717   7.743  20.182  0.00  0.00    +0.000 A 
ATOM      8  N   UNL     1       2.356   6.575  19.925  0.00  0.00    +0.000 NA
ENDROOT
BRANCH   1  13
ATOM      9  C   UNL     1       1.800   3.417  18.541  0.00  0.00    +0.000 C 
ATOM     10  C   UNL     1       2.328   2.224  17.796  0.00  0.00    +0.000 C 
ATOM     11  C   UNL     1       3.585   1.923  18.140  0.00  0.00    +0.000 C 
ATOM     12  C   UNL     1       4.101   2.862  19.185  0.00  0.00    +0.000 C 
ATOM     13  C   UNL     1       3.084   4.026  19.176  0.00  0.00    +0.000 C 
BRANCH   9  15
ATOM     14  C   UNL     1       1.110   3.375  20.815  0.00  0.00    +0.000 C 
ATOM     15  O   UNL     1       0.866   2.905  19.496  0.00  0.00    +0.000 OA
ENDBRANCH   9  15
ENDBRANCH   1  13
BRANCH   1  16
ATOM     16  O   UNL     1       3.842   4.907  17.046  0.00  0.00    +0.000 OA
ATOM     17  H   UNL     1       4.781   4.645  17.048  0.00  0.00    +0.000 HD
ENDBRANCH   1  16
TORSDOF 3
ENDMDL
MODEL 5
REMARK VINA RESULT:      -5.8      3.428      5.427
REMARK  Name = 
REMARK  4 active torsions:
REMARK  status: ('A' for Active; 'I' for Inactive)
REMARK    1  A    between atoms: C_1  and  O_2
REMARK    2  A    between atoms: O_2  and  C_3
REMARK    3  A    between atoms: C_7  and  N_8
REMARK    4  A    between atoms: N_8  and  O_9
REMARK                            x       y       z     vdW  Elec       q    Type
REMARK                         _______ _______ _______ _____ _____    ______ ____
ROOT
ATOM      1  N   UNL     1       2.715   4.092  17.669  0.00  0.00    +0.000 N 
ATOM      2  C   UNL     1       3.925   4.834  17.670  0.00  0.00    +0.000 A 
ATOM      3  C   UNL     1       3.921   6.155  17.204  0.00  0.00    +0.000 A 
ATOM      4  C   UNL     1       5.088   6.918  17.249  0.00  0.00    +0.000 A 
ATOM      5  C   UNL     1       6.247   6.340  17.739  0.00  0.00    +0.000 A 
ATOM      6 BR   UNL     1       7.845   7.329  17.857  0.00  0.00    +0.000 Br
ATOM      7  C   UNL     1       6.194   5.022  18.149  0.00  0.00    +0.000 A 
ATOM      8  N   UNL     1       5.067   4.269  18.124  0.00  0.00    +0.000 NA
ENDROOT
BRANCH   1  13
ATOM      9  C   UNL     1       2.780   3.496  20.126  0.00  0.00    +0.000 C 
ATOM     10  C   UNL     1       1.351   3.444  20.586  0.00  0.00    +0.000 C 
ATOM     11  C   UNL     1       0.573   2.739  19.756  0.00  0.00    +0.000 C 
ATOM     12  C   UNL     1       1.362   2.193  18.607  0.00  0.00    +0.000 C 
ATOM     13  C   UNL     1       2.693   2.976  18.662  0.00  0.00    +0.000 C 
BRANCH   9  15
ATOM     14  C   UNL     1       4.560   1.936  20.349  0.00  0.00    +0.000 C 
ATOM     15  O   UNL     1       3.511   2.636  21.005  0.00  0.00    +0.000 OA
ENDBRANCH   9  15
ENDBRANCH   1  13
BRANCH   1  16
ATOM     16  O   UNL     1       1.501   4.794  17.582  0.00  0.00    +0.000 OA
ATOM     17  H   UNL     1       1.380   5.131  18.489  0.00  0.00    +0.000 HD
ENDBRANCH   1  16
TORSDOF 3
ENDMDL
MODEL 6
REMARK VINA RESULT:      -5.8      2.313      2.729
REMARK  Name = 
REMARK  4 active torsions:
REMARK  status: ('A' for Active; 'I' for Inactive)
REMARK    1  A    between atoms: C_1  and  O_2
REMARK    2  A    between atoms: O_2  and  C_3
REMARK    3  A    between atoms: C_7  and  N_8
REMARK    4  A    between atoms: N_8  and  O_9
REMARK                            x       y       z     vdW  Elec       q    Type
REMARK                         _______ _______ _______ _____ _____    ______ ____
ROOT
ATOM      1  N   UNL     1       4.727   3.645  16.548  0.00  0.00    +0.000 N 
ATOM      2  C   UNL     1       3.921   3.437  17.699  0.00  0.00    +0.000 A 
ATOM      3  C   UNL     1       3.536   2.134  18.040  0.00  0.00    +0.000 A 
ATOM      4  C   UNL     1       2.790   1.905  19.197  0.00  0.00    +0.000 A 
ATOM      5  C   UNL     1       2.424   2.984  19.982  0.00  0.00    +0.000 A 
ATOM      6 BR   UNL     1       1.447   2.735  21.573  0.00  0.00    +0.000 Br
ATOM      7  C   UNL     1       2.804   4.247  19.571  0.00  0.00    +0.000 A 
ATOM      8  N   UNL     1       3.538   4.489  18.457  0.00  0.00    +0.000 NA
ENDROOT
BRANCH   1  13
ATOM      9  C   UNL     1       7.054   4.629  16.655  0.00  0.00    +0.000 C 
ATOM     10  C   UNL     1       7.490   4.837  15.233  0.00  0.00    +0.000 C 
ATOM     11  C   UNL     1       6.551   5.440  14.494  0.00  0.00    +0.000 C 
ATOM     12  C   UNL     1       5.334   5.745  15.309  0.00  0.00    +0.000 C 
ATOM     13  C   UNL     1       5.524   4.907  16.593  0.00  0.00    +0.000 C 
BRANCH   9  15
ATOM     14  C   UNL     1       7.255   5.745  18.744  0.00  0.00    +0.000 C 
ATOM     15  O   UNL     1       7.786   5.579  17.436  0.00  0.00    +0.000 OA
ENDBRANCH   9  15
ENDBRANCH   1  13
BRANCH   1  16
ATOM     16  O   UNL     1       5.432   2.550  16.020  0.00  0.00    +0.000 OA
ATOM     17  H   UNL     1       5.446   2.742  15.064  0.00  0.00    +0.000 HD
ENDBRANCH   1  16
TORSDOF 3
ENDMDL
MODEL 7
REMARK VINA RESULT:      -5.8      1.042      1.214
REMARK  Name = 
REMARK  4 active torsions:
REMARK  status: ('A' for Active; 'I' for Inactive)
REMARK    1  A    between atoms: C_1  and  O_2
REMARK    2  A    between atoms: O_2  and  C_3
REMARK    3  A    between atoms: C_7  and  N_8
REMARK    4  A    between atoms: N_8  and  O_9
REMARK                            x       y       z     vdW  Elec       q    Type
REMARK                         _______ _______ _______ _____ _____    ______ ____
ROOT
ATOM      1  N   UNL     1       4.118   5.563  17.720  0.00  0.00    +0.000 N 
ATOM      2  C   UNL     1       3.263   6.574  18.236  0.00  0.00    +0.000 A 
ATOM      3  C   UNL     1       2.689   6.406  19.502  0.00  0.00    +0.000 A 
ATOM      4  C   UNL     1       1.891   7.412  20.048  0.00  0.00    +0.000 A 
ATOM      5  C   UNL     1       1.663   8.561  19.309  0.00  0.00    +0.000 A 
ATOM      6 BR   UNL     1       0.623   9.968  20.005  0.00  0.00    +0.000 Br
ATOM      7  C   UNL     1       2.228   8.648  18.051  0.00  0.00    +0.000 A 
ATOM      8  N   UNL     1       3.016   7.687  17.509  0.00  0.00    +0.000 NA
ENDROOT
BRANCH   1  13
ATOM      9  C   UNL     1       6.497   6.308  17.300  0.00  0.00    +0.000 C 
ATOM     10  C   UNL     1       7.258   5.079  16.891  0.00  0.00    +0.000 C 
ATOM     11  C   UNL     1       6.615   4.367  15.958  0.00  0.00    +0.000 C 
ATOM     12  C   UNL     1       5.318   5.013  15.582  0.00  0.00    +0.000 C 
ATOM     13  C   UNL     1       5.085   6.059  16.696  0.00  0.00    +0.000 C 
BRANCH   9  15
ATOM     14  C   UNL     1       7.934   8.166  17.669  0.00  0.00    +0.000 C 
ATOM     15  O   UNL     1       7.191   7.416  16.717  0.00  0.00    +0.000 OA
ENDBRANCH   9  15
ENDBRANCH   1  13
BRANCH   1  16
ATOM     16  O   UNL     1       4.672   4.636  18.619  0.00  0.00    +0.000 OA
ATOM     17  H   UNL     1       4.306   3.787  18.309  0.00  0.00    +0.000 HD
ENDBRANCH   1  16
TORSDOF 3
ENDMDL
MODEL 8
REMARK VINA RESULT:      -5.8      2.666      3.391
REMARK  Name = 
REMARK  4 active torsions:
REMARK  status: ('A' for Active; 'I' for Inactive)
REMARK    1  A    between atoms: C_1  and  O_2
REMARK    2  A    between atoms: O_2  and  C_3
REMARK    3  A    between atoms: C_7  and  N_8
REMARK    4  A    between atoms: N_8  and  O_9
REMARK                            x       y       z     vdW  Elec       q    Type
REMARK                         _______ _______ _______ _____ _____    ______ ____
ROOT
ATOM      1  N   UNL     1       2.542   5.553  19.727  0.00  0.00    +0.000 N 
ATOM      2  C   UNL     1       2.134   6.897  19.520  0.00  0.00    +0.000 A 
ATOM      3  C   UNL     1       1.527   7.600  20.569  0.00  0.00    +0.000 A 
ATOM      4  C   UNL     1       1.169   8.938  20.401  0.00  0.00    +0.000 A 
ATOM      5  C   UNL     1       1.405   9.546  19.180  0.00  0.00    +0.000 A 
ATOM      6 BR   UNL     1       0.976  11.358  18.903  0.00  0.00    +0.000 Br
ATOM      7  C   UNL     1       1.973   8.787  18.174  0.00  0.00    +0.000 A 
ATOM      8  N   UNL     1       2.338   7.490  18.322  0.00  0.00    +0.000 NA
ENDROOT
BRANCH   1  13
ATOM      9  C   UNL     1       4.530   4.014  19.461  0.00  0.00    +0.000 C 
ATOM     10  C   UNL     1       4.004   2.746  18.853  0.00  0.00    +0.000 C 
ATOM     11  C   UNL     1       3.203   2.976  17.806  0.00  0.00    +0.000 C 
ATOM     12  C   UNL     1       3.072   4.442  17.536  0.00  0.00    +0.000 C 
ATOM     13  C   UNL     1       3.635   5.109  18.812  0.00  0.00    +0.000 C 
BRANCH   9  15
ATOM     14  C   UNL     1       6.412   5.422  19.101  0.00  0.00    +0.000 C 
ATOM     15  O   UNL     1       5.909   4.092  19.084  0.00  0.00    +0.000 OA
ENDBRANCH   9  15
ENDBRANCH   1  13
BRANCH   1  16
ATOM     16  O   UNL     1       2.691   5.097  21.048  0.00  0.00    +0.000 OA
ATOM     17  H   UNL     1       1.918   4.514  21.165  0.00  0.00    +0.000 HD
ENDBRANCH   1  16
TORSDOF 3
ENDMDL
MODEL 9
REMARK VINA RESULT:      -5.7      3.259      5.901
REMARK  Name = 
REMARK  4 active torsions:
REMARK  status: ('A' for Active; 'I' for Inactive)
REMARK    1  A    between atoms: C_1  and  O_2
REMARK    2  A    between atoms: O_2  and  C_3
REMARK    3  A    between atoms: C_7  and  N_8
REMARK    4  A    between atoms: N_8  and  O_9
REMARK                            x       y       z     vdW  Elec       q    Type
REMARK                         _______ _______ _______ _____ _____    ______ ____
ROOT
ATOM      1  N   UNL     1       4.792   4.836  18.872  0.00  0.00    +0.000 N 
ATOM      2  C   UNL     1       5.409   4.875  17.594  0.00  0.00    +0.000 A 
ATOM      3  C   UNL     1       6.798   4.725  17.496  0.00  0.00    +0.000 A 
ATOM      4  C   UNL     1       7.414   4.706  16.245  0.00  0.00    +0.000 A 
ATOM      5  C   UNL     1       6.634   4.859  15.112  0.00  0.00    +0.000 A 
ATOM      6 BR   UNL     1       7.403   4.808  13.394  0.00  0.00    +0.000 Br
ATOM      7  C   UNL     1       5.274   5.040  15.277  0.00  0.00    +0.000 A 
ATOM      8  N   UNL     1       4.656   5.050  16.484  0.00  0.00    +0.000 NA
ENDROOT
BRANCH   1  13
ATOM      9  C   UNL     1       2.989   3.453  19.981  0.00  0.00    +0.000 C 
ATOM     10  C   UNL     1       2.337   4.346  20.997  0.00  0.00    +0.000 C 
ATOM     11  C   UNL     1       2.032   5.550  20.498  0.00  0.00    +0.000 C 
ATOM     12  C   UNL     1       2.423   5.653  19.057  0.00  0.00    +0.000 C 
ATOM     13  C   UNL     1       3.353   4.439  18.834  0.00  0.00    +0.000 C 
BRANCH   9  15
ATOM     14  C   UNL     1       2.035   2.149  18.237  0.00  0.00    +0.000 C 
ATOM     15  O   UNL     1       2.005   2.479  19.620  0.00  0.00    +0.000 OA
ENDBRANCH   9  15
ENDBRANCH   1  13
BRANCH   1  16
ATOM     16  O   UNL     1       5.507   4.268  19.940  0.00  0.00    +0.000 OA
ATOM     17  H   UNL     1       6.281   4.856  20.022  0.00  0.00    +0.000 HD
ENDBRANCH   1  16
TORSDOF 3
ENDMDL
