MODEL 1
REMARK VINA RESULT:      -6.5      0.000      0.000
REMARK  Name = 
REMARK  5 active torsions:
REMARK  status: ('A' for Active; 'I' for Inactive)
REMARK    1  A    between atoms: C_1  and  C_2
REMARK    2  A    between atoms: C_5  and  C_6
REMARK    3  A    between atoms: C_7  and  N_8
REMARK    4  A    between atoms: C_16  and  O_17
REMARK    5  A    between atoms: C_26  and  O_27
REMARK                            x       y       z     vdW  Elec       q    Type
REMARK                         _______ _______ _______ _____ _____    ______ ____
ROOT
ATOM      1  N   UNL     1       1.007  12.074  20.169  0.00  0.00    +0.000 N 
ATOM      2  C   UNL     1       1.568  13.355  20.347  0.00  0.00    +0.000 C 
ATOM      3  C   UNL     1       0.837  14.291  19.727  0.00  0.00    +0.000 C 
ATOM      4  C   UNL     1       1.217  15.709  19.949  0.00  0.00    +0.000 C 
ATOM      5  O   UNL     1       0.905  16.594  19.157  0.00  0.00    +0.000 OA
ATOM      6  C   UNL     1       1.995  15.968  21.216  0.00  0.00    +0.000 C 
ATOM      7  C   UNL     1       3.240  15.093  21.131  0.00  0.00    +0.000 C 
ATOM      8  C   UNL     1       2.852  13.603  21.108  0.00  0.00    +0.000 C 
ATOM      9  C   UNL     1      -0.378  13.829  18.908  0.00  0.00    +0.000 C 
ATOM     10  C   UNL     1      -1.842  13.108  19.248  0.00  0.00    +0.000 C 
ATOM     11  O   UNL     1      -2.815  13.465  19.907  0.00  0.00    +0.000 OA
ATOM     12  C   UNL     1      -2.000  11.846  18.561  0.00  0.00    +0.000 A 
ATOM     13  C   UNL     1      -3.171  11.291  18.063  0.00  0.00    +0.000 A 
ATOM     14  C   UNL     1      -3.048  10.138  17.292  0.00  0.00    +0.000 A 
ATOM     15  C   UNL     1      -1.785   9.571  17.079  0.00  0.00    +0.000 A 
ATOM     16  C   UNL     1      -0.631  10.149  17.632  0.00  0.00    +0.000 A 
ATOM     17  C   UNL     1      -0.758  11.315  18.384  0.00  0.00    +0.000 A 
ATOM     18  C   UNL     1       0.243  12.290  18.895  0.00  0.00    +0.000 C 
ENDROOT
BRANCH   1  25
ATOM     19  C   UNL     1      -2.224  13.153  23.829  0.00  0.00    +0.000 C 
ATOM     20  C   UNL     1      -1.378  12.138  23.124  0.00  0.00    +0.000 A 
ATOM     21  C   UNL     1      -1.409  10.796  23.480  0.00  0.00    +0.000 A 
ATOM     22  C   UNL     1      -0.644   9.876  22.767  0.00  0.00    +0.000 A 
ATOM     23  C   UNL     1       0.173  10.261  21.675  0.00  0.00    +0.000 A 
ATOM     24  C   UNL     1       0.952   9.169  21.004  0.00  0.00    +0.000 C 
ATOM     25  C   UNL     1       0.195  11.612  21.278  0.00  0.00    +0.000 A 
ATOM     26  C   UNL     1      -0.580  12.522  22.044  0.00  0.00    +0.000 A 
ENDBRANCH   1  25
BRANCH   9  27
ATOM     27  O   UNL     1      -1.159  14.892  19.509  0.00  0.00    +0.000 OA
ATOM     28  H   UNL     1      -1.260  15.593  18.840  0.00  0.00    +0.000 HD
ENDBRANCH   9  27
BRANCH  18  29
ATOM     29  O   UNL     1       1.240  12.243  17.841  0.00  0.00    +0.000 OA
ATOM     30  H   UNL     1       0.692  12.344  17.041  0.00  0.00    +0.000 HD
ENDBRANCH  18  29
TORSDOF 3
ENDMDL
MODEL 2
REMARK VINA RESULT:      -6.5      7.982     10.164
REMARK  Name = 
REMARK  5 active torsions:
REMARK  status: ('A' for Active; 'I' for Inactive)
REMARK    1  A    between atoms: C_1  and  C_2
REMARK    2  A    between atoms: C_5  and  C_6
REMARK    3  A    between atoms: C_7  and  N_8
REMARK    4  A    between atoms: C_16  and  O_17
REMARK    5  A    between atoms: C_26  and  O_27
REMARK                            x       y       z     vdW  Elec       q    Type
REMARK                         _______ _______ _______ _____ _____    ______ ____
ROOT
ATOM      1  N   UNL     1      10.307  14.202  20.639  0.00  0.00    +0.000 N 
ATOM      2  C   UNL     1      10.960  15.372  20.203  0.00  0.00    +0.000 C 
ATOM      3  C   UNL     1      11.000  15.431  18.864  0.00  0.00    +0.000 C 
ATOM      4  C   UNL     1      11.523  16.679  18.253  0.00  0.00    +0.000 C 
ATOM      5  O   UNL     1      11.973  16.700  17.111  0.00  0.00    +0.000 OA
ATOM      6  C   UNL     1      11.444  17.900  19.135  0.00  0.00    +0.000 C 
ATOM      7  C   UNL     1      12.229  17.560  20.397  0.00  0.00    +0.000 C 
ATOM      8  C   UNL     1      11.564  16.390  21.145  0.00  0.00    +0.000 C 
ATOM      9  C   UNL     1      10.428  14.244  18.075  0.00  0.00    +0.000 C 
ATOM     10  C   UNL     1       8.919  13.568  17.862  0.00  0.00    +0.000 C 
ATOM     11  O   UNL     1       7.875  13.993  17.374  0.00  0.00    +0.000 OA
ATOM     12  C   UNL     1       8.879  12.184  18.279  0.00  0.00    +0.000 A 
ATOM     13  C   UNL     1       8.129  11.153  17.730  0.00  0.00    +0.000 A 
ATOM     14  C   UNL     1       8.382   9.866  18.198  0.00  0.00    +0.000 A 
ATOM     15  C   UNL     1       9.333   9.662  19.205  0.00  0.00    +0.000 A 
ATOM     16  C   UNL     1      10.045  10.742  19.755  0.00  0.00    +0.000 A 
ATOM     17  C   UNL     1       9.802  12.024  19.268  0.00  0.00    +0.000 A 
ATOM     18  C   UNL     1      10.521  13.314  19.447  0.00  0.00    +0.000 C 
ENDROOT
BRANCH   1  25
ATOM     19  C   UNL     1       6.038  16.729  20.009  0.00  0.00    +0.000 C 
ATOM     20  C   UNL     1       6.800  15.658  20.726  0.00  0.00    +0.000 A 
ATOM     21  C   UNL     1       6.185  14.835  21.662  0.00  0.00    +0.000 A 
ATOM     22  C   UNL     1       6.917  13.818  22.272  0.00  0.00    +0.000 A 
ATOM     23  C   UNL     1       8.280  13.585  21.967  0.00  0.00    +0.000 A 
ATOM     24  C   UNL     1       8.949  12.463  22.706  0.00  0.00    +0.000 C 
ATOM     25  C   UNL     1       8.914  14.387  20.999  0.00  0.00    +0.000 A 
ATOM     26  C   UNL     1       8.142  15.427  20.419  0.00  0.00    +0.000 A 
ENDBRANCH   1  25
BRANCH   9  27
ATOM     27  O   UNL     1       9.746  15.180  17.204  0.00  0.00    +0.000 OA
ATOM     28  H   UNL     1       9.611  14.736  16.347  0.00  0.00    +0.000 HD
ENDBRANCH   9  27
BRANCH  18  29
ATOM     29  O   UNL     1      11.893  12.855  19.558  0.00  0.00    +0.000 OA
ATOM     30  H   UNL     1      12.114  12.654  18.629  0.00  0.00    +0.000 HD
ENDBRANCH  18  29
TORSDOF 3
ENDMDL
MODEL 3
REMARK VINA RESULT:      -6.3      7.533     10.904
REMARK  Name = 
REMARK  5 active torsions:
REMARK  status: ('A' for Active; 'I' for Inactive)
REMARK    1  A    between atoms: C_1  and  C_2
REMARK    2  A    between atoms: C_5  and  C_6
REMARK    3  A    between atoms: C_7  and  N_8
REMARK    4  A    between atoms: C_16  and  O_17
REMARK    5  A    between atoms: C_26  and  O_27
REMARK                            x       y       z     vdW  Elec       q    Type
REMARK                         _______ _______ _______ _____ _____    ______ ____
ROOT
ATOM      1  N   UNL     1       8.602  15.598  18.522  0.00  0.00    +0.000 N 
ATOM      2  C   UNL     1       7.365  15.918  19.116  0.00  0.00    +0.000 C 
ATOM      3  C   UNL     1       7.072  15.065  20.107  0.00  0.00    +0.000 C 
ATOM      4  C   UNL     1       5.871  15.364  20.929  0.00  0.00    +0.000 C 
ATOM      5  O   UNL     1       5.290  14.489  21.566  0.00  0.00    +0.000 OA
ATOM      6  C   UNL     1       5.440  16.809  20.923  0.00  0.00    +0.000 C 
ATOM      7  C   UNL     1       5.185  17.167  19.464  0.00  0.00    +0.000 C 
ATOM      8  C   UNL     1       6.485  17.056  18.646  0.00  0.00    +0.000 C 
ATOM      9  C   UNL     1       8.041  13.902  20.365  0.00  0.00    +0.000 C 
ATOM     10  C   UNL     1       9.616  13.755  20.891  0.00  0.00    +0.000 C 
ATOM     11  O   UNL     1      10.174  14.043  21.946  0.00  0.00    +0.000 OA
ATOM     12  C   UNL     1      10.454  13.089  19.919  0.00  0.00    +0.000 A 
ATOM     13  C   UNL     1      11.529  12.245  20.162  0.00  0.00    +0.000 A 
ATOM     14  C   UNL     1      12.082  11.590  19.064  0.00  0.00    +0.000 A 
ATOM     15  C   UNL     1      11.572  11.824  17.781  0.00  0.00    +0.000 A 
ATOM     16  C   UNL     1      10.503  12.714  17.579  0.00  0.00    +0.000 A 
ATOM     17  C   UNL     1       9.941  13.349  18.685  0.00  0.00    +0.000 A 
ATOM     18  C   UNL     1       8.691  14.137  18.856  0.00  0.00    +0.000 C 
ENDROOT
BRANCH   1  25
ATOM     19  C   UNL     1      10.712  18.196  22.237  0.00  0.00    +0.000 C 
ATOM     20  C   UNL     1      10.764  17.712  20.821  0.00  0.00    +0.000 A 
ATOM     21  C   UNL     1      11.865  17.959  20.010  0.00  0.00    +0.000 A 
ATOM     22  C   UNL     1      11.895  17.450  18.714  0.00  0.00    +0.000 A 
ATOM     23  C   UNL     1      10.833  16.675  18.185  0.00  0.00    +0.000 A 
ATOM     24  C   UNL     1      10.992  16.199  16.770  0.00  0.00    +0.000 C 
ATOM     25  C   UNL     1       9.722  16.386  19.000  0.00  0.00    +0.000 A 
ATOM     26  C   UNL     1       9.718  16.943  20.306  0.00  0.00    +0.000 A 
ENDBRANCH   1  25
BRANCH   9  27
ATOM     27  O   UNL     1       7.962  14.180  21.785  0.00  0.00    +0.000 OA
ATOM     28  H   UNL     1       8.565  14.921  21.971  0.00  0.00    +0.000 HD
ENDBRANCH   9  27
BRANCH  18  29
ATOM     29  O   UNL     1       7.813  13.477  17.907  0.00  0.00    +0.000 OA
ATOM     30  H   UNL     1       8.416  12.834  17.489  0.00  0.00    +0.000 HD
ENDBRANCH  18  29
TORSDOF 3
ENDMDL
MODEL 4
REMARK VINA RESULT:      -6.3      2.297      5.812
REMARK  Name = 
REMARK  5 active torsions:
REMARK  status: ('A' for Active; 'I' for Inactive)
REMARK    1  A    between atoms: C_1  and  C_2
REMARK    2  A    between atoms: C_5  and  C_6
REMARK    3  A    between atoms: C_7  and  N_8
REMARK    4  A    between atoms: C_16  and  O_17
REMARK    5  A    between atoms: C_26  and  O_27
REMARK                            x       y       z     vdW  Elec       q    Type
REMARK                         _______ _______ _______ _____ _____    ______ ____
ROOT
ATOM      1  N   UNL     1       0.184  14.018  18.456  0.00  0.00    +0.000 N 
ATOM      2  C   UNL     1      -0.231  12.680  18.602  0.00  0.00    +0.000 C 
ATOM      3  C   UNL     1       0.644  11.983  19.340  0.00  0.00    +0.000 C 
ATOM      4  C   UNL     1       0.268  10.594  19.709  0.00  0.00    +0.000 C 
ATOM      5  O   UNL     1       1.112   9.756  20.016  0.00  0.00    +0.000 OA
ATOM      6  C   UNL     1      -1.213  10.309  19.688  0.00  0.00    +0.000 C 
ATOM      7  C   UNL     1      -1.683  10.627  18.273  0.00  0.00    +0.000 C 
ATOM      8  C   UNL     1      -1.482  12.121  17.961  0.00  0.00    +0.000 C 
ATOM      9  C   UNL     1       1.917  12.699  19.814  0.00  0.00    +0.000 C 
ATOM     10  C   UNL     1       2.263  13.962  20.845  0.00  0.00    +0.000 C 
ATOM     11  O   UNL     1       2.100  14.123  22.052  0.00  0.00    +0.000 OA
ATOM     12  C   UNL     1       2.957  15.039  20.173  0.00  0.00    +0.000 A 
ATOM     13  C   UNL     1       3.924  15.884  20.700  0.00  0.00    +0.000 A 
ATOM     14  C   UNL     1       4.567  16.742  19.811  0.00  0.00    +0.000 A 
ATOM     15  C   UNL     1       4.204  16.749  18.459  0.00  0.00    +0.000 A 
ATOM     16  C   UNL     1       3.195  15.898  17.978  0.00  0.00    +0.000 A 
ATOM     17  C   UNL     1       2.570  15.027  18.868  0.00  0.00    +0.000 A 
ATOM     18  C   UNL     1       1.664  13.866  18.661  0.00  0.00    +0.000 C 
ENDROOT
BRANCH   1  25
ATOM     19  C   UNL     1      -1.990  14.835  22.883  0.00  0.00    +0.000 C 
ATOM     20  C   UNL     1      -1.567  15.361  21.547  0.00  0.00    +0.000 A 
ATOM     21  C   UNL     1      -1.722  16.701  21.214  0.00  0.00    +0.000 A 
ATOM     22  C   UNL     1      -1.270  17.161  19.978  0.00  0.00    +0.000 A 
ATOM     23  C   UNL     1      -0.645  16.304  19.039  0.00  0.00    +0.000 A 
ATOM     24  C   UNL     1      -0.216  16.930  17.744  0.00  0.00    +0.000 C 
ATOM     25  C   UNL     1      -0.449  14.950  19.369  0.00  0.00    +0.000 A 
ATOM     26  C   UNL     1      -0.945  14.515  20.626  0.00  0.00    +0.000 A 
ENDBRANCH   1  25
BRANCH   9  27
ATOM     27  O   UNL     1       1.718  12.136  21.134  0.00  0.00    +0.000 OA
ATOM     28  H   UNL     1       2.222  11.303  21.175  0.00  0.00    +0.000 HD
ENDBRANCH   9  27
BRANCH  18  29
ATOM     29  O   UNL     1       2.168  13.340  17.405  0.00  0.00    +0.000 OA
ATOM     30  H   UNL     1       2.314  14.156  16.890  0.00  0.00    +0.000 HD
ENDBRANCH  18  29
TORSDOF 3
ENDMDL
MODEL 5
REMARK VINA RESULT:      -6.3      1.486      1.928
REMARK  Name = 
REMARK  5 active torsions:
REMARK  status: ('A' for Active; 'I' for Inactive)
REMARK    1  A    between atoms: C_1  and  C_2
REMARK    2  A    between atoms: C_5  and  C_6
REMARK    3  A    between atoms: C_7  and  N_8
REMARK    4  A    between atoms: C_16  and  O_17
REMARK    5  A    between atoms: C_26  and  O_27
REMARK                            x       y       z     vdW  Elec       q    Type
REMARK                         _______ _______ _______ _____ _____    ______ ____
ROOT
ATOM      1  N   UNL     1       0.557  12.183  18.987  0.00  0.00    +0.000 N 
ATOM      2  C   UNL     1       1.098  13.305  19.644  0.00  0.00    +0.000 C 
ATOM      3  C   UNL     1       0.130  14.133  20.059  0.00  0.00    +0.000 C 
ATOM      4  C   UNL     1       0.536  15.287  20.902  0.00  0.00    +0.000 C 
ATOM      5  O   UNL     1      -0.160  16.294  20.998  0.00  0.00    +0.000 OA
ATOM      6  C   UNL     1       1.848  15.114  21.627  0.00  0.00    +0.000 C 
ATOM      7  C   UNL     1       2.893  14.852  20.548  0.00  0.00    +0.000 C 
ATOM      8  C   UNL     1       2.584  13.539  19.806  0.00  0.00    +0.000 C 
ATOM      9  C   UNL     1      -1.321  13.779  19.703  0.00  0.00    +0.000 C 
ATOM     10  C   UNL     1      -2.385  12.558  20.102  0.00  0.00    +0.000 C 
ATOM     11  O   UNL     1      -2.889  12.205  21.165  0.00  0.00    +0.000 OA
ATOM     12  C   UNL     1      -2.843  11.834  18.938  0.00  0.00    +0.000 A 
ATOM     13  C   UNL     1      -4.089  11.259  18.732  0.00  0.00    +0.000 A 
ATOM     14  C   UNL     1      -4.352  10.753  17.462  0.00  0.00    +0.000 A 
ATOM     15  C   UNL     1      -3.366  10.808  16.469  0.00  0.00    +0.000 A 
ATOM     16  C   UNL     1      -2.106  11.370  16.734  0.00  0.00    +0.000 A 
ATOM     17  C   UNL     1      -1.856  11.893  18.001  0.00  0.00    +0.000 A 
ATOM     18  C   UNL     1      -0.759  12.745  18.532  0.00  0.00    +0.000 C 
ENDROOT
BRANCH   1  25
ATOM     19  C   UNL     1      -0.604  10.166  23.413  0.00  0.00    +0.000 C 
ATOM     20  C   UNL     1      -0.092   9.986  22.017  0.00  0.00    +0.000 A 
ATOM     21  C   UNL     1       0.209   8.728  21.512  0.00  0.00    +0.000 A 
ATOM     22  C   UNL     1       0.636   8.598  20.192  0.00  0.00    +0.000 A 
ATOM     23  C   UNL     1       0.772   9.715  19.332  0.00  0.00    +0.000 A 
ATOM     24  C   UNL     1       1.251   9.433  17.938  0.00  0.00    +0.000 C 
ATOM     25  C   UNL     1       0.442  10.997  19.814  0.00  0.00    +0.000 A 
ATOM     26  C   UNL     1       0.034  11.090  21.170  0.00  0.00    +0.000 A 
ENDBRANCH   1  25
BRANCH   9  27
ATOM     27  O   UNL     1      -1.708  14.085  21.066  0.00  0.00    +0.000 OA
ATOM     28  H   UNL     1      -0.896  14.310  21.555  0.00  0.00    +0.000 HD
ENDBRANCH   9  27
BRANCH  18  29
ATOM     29  O   UNL     1      -0.444  13.552  17.368  0.00  0.00    +0.000 OA
ATOM     30  H   UNL     1      -1.087  13.220  16.713  0.00  0.00    +0.000 HD
ENDBRANCH  18  29
TORSDOF 3
ENDMDL
MODEL 6
REMARK VINA RESULT:      -6.1      6.816      9.552
REMARK  Name = 
REMARK  5 active torsions:
REMARK  status: ('A' for Active; 'I' for Inactive)
REMARK    1  A    between atoms: C_1  and  C_2
REMARK    2  A    between atoms: C_5  and  C_6
REMARK    3  A    between atoms: C_7  and  N_8
REMARK    4  A    between atoms: C_16  and  O_17
REMARK    5  A    between atoms: C_26  and  O_27
REMARK                            x       y       z     vdW  Elec       q    Type
REMARK                         _______ _______ _______ _____ _____    ______ ____
ROOT
ATOM      1  N   UNL     1       4.745   5.372  19.102  0.00  0.00    +0.000 N 
ATOM      2  C   UNL     1       5.613   5.276  17.996  0.00  0.00    +0.000 C 
ATOM      3  C   UNL     1       5.221   4.305  17.159  0.00  0.00    +0.000 C 
ATOM      4  C   UNL     1       5.949   4.182  15.871  0.00  0.00    +0.000 C 
ATOM      5  O   UNL     1       5.960   3.133  15.232  0.00  0.00    +0.000 OA
ATOM      6  C   UNL     1       6.651   5.437  15.415  0.00  0.00    +0.000 C 
ATOM      7  C   UNL     1       7.616   5.810  16.534  0.00  0.00    +0.000 C 
ATOM      8  C   UNL     1       6.843   6.140  17.824  0.00  0.00    +0.000 C 
ATOM      9  C   UNL     1       4.005   3.457  17.561  0.00  0.00    +0.000 C 
ATOM     10  C   UNL     1       2.376   3.735  17.781  0.00  0.00    +0.000 C 
ATOM     11  O   UNL     1       1.481   4.096  17.021  0.00  0.00    +0.000 OA
ATOM     12  C   UNL     1       1.946   3.413  19.123  0.00  0.00    +0.000 A 
ATOM     13  C   UNL     1       0.717   2.902  19.520  0.00  0.00    +0.000 A 
ATOM     14  C   UNL     1       0.593   2.517  20.853  0.00  0.00    +0.000 A 
ATOM     15  C   UNL     1       1.668   2.685  21.733  0.00  0.00    +0.000 A 
ATOM     16  C   UNL     1       2.882   3.238  21.293  0.00  0.00    +0.000 A 
ATOM     17  C   UNL     1       3.008   3.602  19.953  0.00  0.00    +0.000 A 
ATOM     18  C   UNL     1       4.185   3.980  19.126  0.00  0.00    +0.000 C 
ENDROOT
BRANCH   1  25
ATOM     19  C   UNL     1       1.048   7.972  21.240  0.00  0.00    +0.000 C 
ATOM     20  C   UNL     1       1.879   7.685  20.028  0.00  0.00    +0.000 A 
ATOM     21  C   UNL     1       1.736   8.425  18.860  0.00  0.00    +0.000 A 
ATOM     22  C   UNL     1       2.562   8.159  17.770  0.00  0.00    +0.000 A 
ATOM     23  C   UNL     1       3.559   7.154  17.809  0.00  0.00    +0.000 A 
ATOM     24  C   UNL     1       4.371   6.968  16.560  0.00  0.00    +0.000 C 
ATOM     25  C   UNL     1       3.742   6.414  18.993  0.00  0.00    +0.000 A 
ATOM     26  C   UNL     1       2.865   6.698  20.072  0.00  0.00    +0.000 A 
ENDBRANCH   1  25
BRANCH   9  27
ATOM     27  O   UNL     1       3.490   3.596  16.214  0.00  0.00    +0.000 OA
ATOM     28  H   UNL     1       2.562   3.884  16.284  0.00  0.00    +0.000 HD
ENDBRANCH   9  27
BRANCH  18  29
ATOM     29  O   UNL     1       5.223   3.164  19.730  0.00  0.00    +0.000 OA
ATOM     30  H   UNL     1       4.796   2.287  19.764  0.00  0.00    +0.000 HD
ENDBRANCH  18  29
TORSDOF 3
ENDMDL
MODEL 7
REMARK VINA RESULT:      -6.0      7.535     10.869
REMARK  Name = 
REMARK  5 active torsions:
REMARK  status: ('A' for Active; 'I' for Inactive)
REMARK    1  A    between atoms: C_1  and  C_2
REMARK    2  A    between atoms: C_5  and  C_6
REMARK    3  A    between atoms: C_7  and  N_8
REMARK    4  A    between atoms: C_16  and  O_17
REMARK    5  A    between atoms: C_26  and  O_27
REMARK                            x       y       z     vdW  Elec       q    Type
REMARK                         _______ _______ _______ _____ _____    ______ ____
ROOT
ATOM      1  N   UNL     1       8.988  16.018  19.197  0.00  0.00    +0.000 N 
ATOM      2  C   UNL     1       7.697  16.305  19.682  0.00  0.00    +0.000 C 
ATOM      3  C   UNL     1       7.145  15.224  20.250  0.00  0.00    +0.000 C 
ATOM      4  C   UNL     1       5.845  15.410  20.944  0.00  0.00    +0.000 C 
ATOM      5  O   UNL     1       5.076  14.472  21.137  0.00  0.00    +0.000 OA
ATOM      6  C   UNL     1       5.560  16.821  21.393  0.00  0.00    +0.000 C 
ATOM      7  C   UNL     1       5.617  17.683  20.138  0.00  0.00    +0.000 C 
ATOM      8  C   UNL     1       7.031  17.655  19.529  0.00  0.00    +0.000 C 
ATOM      9  C   UNL     1       7.936  13.908  20.212  0.00  0.00    +0.000 C 
ATOM     10  C   UNL     1       9.364  13.354  20.869  0.00  0.00    +0.000 C 
ATOM     11  O   UNL     1       9.738  13.181  22.026  0.00  0.00    +0.000 OA
ATOM     12  C   UNL     1      10.303  12.932  19.854  0.00  0.00    +0.000 A 
ATOM     13  C   UNL     1      11.230  11.902  19.930  0.00  0.00    +0.000 A 
ATOM     14  C   UNL     1      11.915  11.578  18.762  0.00  0.00    +0.000 A 
ATOM     15  C   UNL     1      11.678  12.304  17.588  0.00  0.00    +0.000 A 
ATOM     16  C   UNL     1      10.755  13.362  17.567  0.00  0.00    +0.000 A 
ATOM     17  C   UNL     1      10.057  13.668  18.735  0.00  0.00    +0.000 A 
ATOM     18  C   UNL     1       8.877  14.534  18.996  0.00  0.00    +0.000 C 
ENDROOT
BRANCH   1  25
ATOM     19  C   UNL     1      10.628  16.771  23.860  0.00  0.00    +0.000 C 
ATOM     20  C   UNL     1      10.883  16.834  22.386  0.00  0.00    +0.000 A 
ATOM     21  C   UNL     1      12.121  17.208  21.880  0.00  0.00    +0.000 A 
ATOM     22  C   UNL     1      12.333  17.208  20.503  0.00  0.00    +0.000 A 
ATOM     23  C   UNL     1      11.321  16.831  19.586  0.00  0.00    +0.000 A 
ATOM     24  C   UNL     1      11.682  16.886  18.130  0.00  0.00    +0.000 C 
ATOM     25  C   UNL     1      10.068  16.418  20.079  0.00  0.00    +0.000 A 
ATOM     26  C   UNL     1       9.884  16.455  21.486  0.00  0.00    +0.000 A 
ENDBRANCH   1  25
BRANCH   9  27
ATOM     27  O   UNL     1       7.618  13.701  21.610  0.00  0.00    +0.000 OA
ATOM     28  H   UNL     1       7.748  12.755  21.802  0.00  0.00    +0.000 HD
ENDBRANCH   9  27
BRANCH  18  29
ATOM     29  O   UNL     1       8.134  14.374  17.758  0.00  0.00    +0.000 OA
ATOM     30  H   UNL     1       8.486  15.105  17.217  0.00  0.00    +0.000 HD
ENDBRANCH  18  29
TORSDOF 3
ENDMDL
MODEL 8
REMARK VINA RESULT:      -6.0      1.876      4.430
REMARK  Name = 
REMARK  5 active torsions:
REMARK  status: ('A' for Active; 'I' for Inactive)
REMARK    1  A    between atoms: C_1  and  C_2
REMARK    2  A    between atoms: C_5  and  C_6
REMARK    3  A    between atoms: C_7  and  N_8
REMARK    4  A    between atoms: C_16  and  O_17
REMARK    5  A    between atoms: C_26  and  O_27
REMARK                            x       y       z     vdW  Elec       q    Type
REMARK                         _______ _______ _______ _____ _____    ______ ____
ROOT
ATOM      1  N   UNL     1      -1.460  13.550  20.785  0.00  0.00    +0.000 N 
ATOM      2  C   UNL     1      -0.787  14.609  20.143  0.00  0.00    +0.000 C 
ATOM      3  C   UNL     1       0.432  14.228  19.736  0.00  0.00    +0.000 C 
ATOM      4  C   UNL     1       1.204  15.189  18.908  0.00  0.00    +0.000 C 
ATOM      5  O   UNL     1       2.428  15.131  18.823  0.00  0.00    +0.000 OA
ATOM      6  C   UNL     1       0.371  16.217  18.184  0.00  0.00    +0.000 C 
ATOM      7  C   UNL     1      -0.414  16.957  19.261  0.00  0.00    +0.000 C 
ATOM      8  C   UNL     1      -1.372  15.995  19.986  0.00  0.00    +0.000 C 
ATOM      9  C   UNL     1       0.895  12.805  20.084  0.00  0.00    +0.000 C 
ATOM     10  C   UNL     1       0.425  11.261  19.668  0.00  0.00    +0.000 C 
ATOM     11  O   UNL     1       0.401  10.655  18.600  0.00  0.00    +0.000 OA
ATOM     12  C   UNL     1       0.041  10.480  20.822  0.00  0.00    +0.000 A 
ATOM     13  C   UNL     1       0.209   9.116  21.018  0.00  0.00    +0.000 A 
ATOM     14  C   UNL     1      -0.093   8.615  22.282  0.00  0.00    +0.000 A 
ATOM     15  C   UNL     1      -0.576   9.473  23.277  0.00  0.00    +0.000 A 
ATOM     16  C   UNL     1      -0.763  10.842  23.022  0.00  0.00    +0.000 A 
ATOM     17  C   UNL     1      -0.439  11.341  21.762  0.00  0.00    +0.000 A 
ATOM     18  C   UNL     1      -0.291  12.727  21.243  0.00  0.00    +0.000 C 
ENDROOT
BRANCH   1  25
ATOM     19  C   UNL     1      -2.395  11.238  16.451  0.00  0.00    +0.000 C 
ATOM     20  C   UNL     1      -2.889  11.717  17.781  0.00  0.00    +0.000 A 
ATOM     21  C   UNL     1      -4.178  11.439  18.219  0.00  0.00    +0.000 A 
ATOM     22  C   UNL     1      -4.583  11.860  19.483  0.00  0.00    +0.000 A 
ATOM     23  C   UNL     1      -3.718  12.567  20.354  0.00  0.00    +0.000 A 
ATOM     24  C   UNL     1      -4.288  12.970  21.683  0.00  0.00    +0.000 C 
ATOM     25  C   UNL     1      -2.398  12.832  19.943  0.00  0.00    +0.000 A 
ATOM     26  C   UNL     1      -2.031  12.408  18.639  0.00  0.00    +0.000 A 
ENDBRANCH   1  25
BRANCH   9  27
ATOM     27  O   UNL     1       1.372  12.651  18.725  0.00  0.00    +0.000 OA
ATOM     28  H   UNL     1       2.310  12.394  18.772  0.00  0.00    +0.000 HD
ENDBRANCH   9  27
BRANCH  18  29
ATOM     29  O   UNL     1       0.217  13.411  22.419  0.00  0.00    +0.000 OA
ATOM     30  H   UNL     1       1.042  13.807  22.080  0.00  0.00    +0.000 HD
ENDBRANCH  18  29
TORSDOF 3
ENDMDL
MODEL 9
REMARK VINA RESULT:      -5.9      7.279     10.464
REMARK  Name = 
REMARK  5 active torsions:
REMARK  status: ('A' for Active; 'I' for Inactive)
REMARK    1  A    between atoms: C_1  and  C_2
REMARK    2  A    between atoms: C_5  and  C_6
REMARK    3  A    between atoms: C_7  and  N_8
REMARK    4  A    between atoms: C_16  and  O_17
REMARK    5  A    between atoms: C_26  and  O_27
REMARK                            x       y       z     vdW  Elec       q    Type
REMARK                         _______ _______ _______ _____ _____    ______ ____
ROOT
ATOM      1  N   UNL     1       8.800  15.340  18.442  0.00  0.00    +0.000 N 
ATOM      2  C   UNL     1       9.842  16.281  18.332  0.00  0.00    +0.000 C 
ATOM      3  C   UNL     1      10.116  16.836  19.521  0.00  0.00    +0.000 C 
ATOM      4  C   UNL     1      11.295  17.738  19.596  0.00  0.00    +0.000 C 
ATOM      5  O   UNL     1      11.404  18.587  20.477  0.00  0.00    +0.000 OA
ATOM      6  C   UNL     1      12.332  17.518  18.523  0.00  0.00    +0.000 C 
ATOM      7  C   UNL     1      11.609  17.700  17.194  0.00  0.00    +0.000 C 
ATOM      8  C   UNL     1      10.516  16.630  17.023  0.00  0.00    +0.000 C 
ATOM      9  C   UNL     1       9.247  16.433  20.721  0.00  0.00    +0.000 C 
ATOM     10  C   UNL     1       8.986  15.034  21.590  0.00  0.00    +0.000 C 
ATOM     11  O   UNL     1       9.718  14.334  22.284  0.00  0.00    +0.000 OA
ATOM     12  C   UNL     1       7.599  14.627  21.561  0.00  0.00    +0.000 A 
ATOM     13  C   UNL     1       6.879  13.994  22.565  0.00  0.00    +0.000 A 
ATOM     14  C   UNL     1       5.509  13.848  22.367  0.00  0.00    +0.000 A 
ATOM     15  C   UNL     1       4.921  14.301  21.180  0.00  0.00    +0.000 A 
ATOM     16  C   UNL     1       5.696  14.906  20.176  0.00  0.00    +0.000 A 
ATOM     17  C   UNL     1       7.064  15.068  20.389  0.00  0.00    +0.000 A 
ATOM     18  C   UNL     1       8.102  15.852  19.669  0.00  0.00    +0.000 C 
ENDROOT
BRANCH   1  25
ATOM     19  C   UNL     1      12.224  12.059  20.025  0.00  0.00    +0.000 C 
ATOM     20  C   UNL     1      10.950  12.325  19.285  0.00  0.00    +0.000 A 
ATOM     21  C   UNL     1      10.187  11.290  18.761  0.00  0.00    +0.000 A 
ATOM     22  C   UNL     1       8.983  11.576  18.122  0.00  0.00    +0.000 A 
ATOM     23  C   UNL     1       8.497  12.900  17.989  0.00  0.00    +0.000 A 
ATOM     24  C   UNL     1       7.191  13.065  17.268  0.00  0.00    +0.000 C 
ATOM     25  C   UNL     1       9.239  13.961  18.541  0.00  0.00    +0.000 A 
ATOM     26  C   UNL     1      10.472  13.631  19.162  0.00  0.00    +0.000 A 
ENDBRANCH   1  25
BRANCH   9  27
ATOM     27  O   UNL     1      10.449  16.287  21.516  0.00  0.00    +0.000 OA
ATOM     28  H   UNL     1      10.191  16.361  22.452  0.00  0.00    +0.000 HD
ENDBRANCH   9  27
BRANCH  18  29
ATOM     29  O   UNL     1       7.325  16.992  19.215  0.00  0.00    +0.000 OA
ATOM     30  H   UNL     1       7.568  17.038  18.271  0.00  0.00    +0.000 HD
ENDBRANCH  18  29
TORSDOF 3
ENDMDL
