MODEL 1
REMARK VINA RESULT:      -9.3      0.000      0.000
REMARK  Name = 
REMARK  8 active torsions:
REMARK  status: ('A' for Active; 'I' for Inactive)
REMARK    1  A    between atoms: C_1  and  C_2
REMARK    2  A    between atoms: C_5  and  C_6
REMARK    3  A    between atoms: C_6  and  N_7
REMARK    4  A    between atoms: C_8  and  C_10
REMARK    5  A    between atoms: C_10  and  N_11
REMARK    6  A    between atoms: C_13  and  S_14
REMARK    7  A    between atoms: S_14  and  C_17
REMARK    8  A    between atoms: C_17  and  C_18
REMARK                            x       y       z     vdW  Elec       q    Type
REMARK                         _______ _______ _______ _____ _____    ______ ____
ROOT
ATOM      1  N   UNL     1       2.777   7.058  18.700  0.00  0.00    +0.000 N 
ATOM      2  C   UNL     1       3.822   7.507  17.936  0.00  0.00    +0.000 A 
ATOM      3  C   UNL     1       4.385   6.416  17.300  0.00  0.00    +0.000 A 
ATOM      4  C   UNL     1       3.652   5.258  17.690  0.00  0.00    +0.000 A 
ATOM      5  C   UNL     1       3.751   3.880  17.407  0.00  0.00    +0.000 A 
ATOM      6  C   UNL     1       2.832   2.985  17.962  0.00  0.00    +0.000 A 
ATOM      7  C   UNL     1       1.825   3.439  18.803  0.00  0.00    +0.000 A 
ATOM      8  C   UNL     1       1.708   4.795  19.117  0.00  0.00    +0.000 A 
ATOM      9  C   UNL     1       2.633   5.691  18.552  0.00  0.00    +0.000 A 
ENDROOT
BRANCH   3  10
ATOM     10  S   UNL     1       5.758   6.459  16.240  0.00  0.00    +0.000 S 
ATOM     11  O   UNL     1       5.237   7.032  15.013  0.00  0.00    +0.000 OA
ATOM     12  O   UNL     1       6.781   7.111  17.031  0.00  0.00    +0.000 OA
BRANCH  10  13
ATOM     13  C   UNL     1       6.177   4.739  15.978  0.00  0.00    +0.000 C 
BRANCH  13  14
ATOM     14  C   UNL     1       6.503   4.513  14.520  0.00  0.00    +0.000 A 
ATOM     15  C   UNL     1       7.553   5.216  13.911  0.00  0.00    +0.000 A 
ATOM     16  C   UNL     1       7.852   5.026  12.559  0.00  0.00    +0.000 A 
ATOM     17  C   UNL     1       7.105   4.126  11.798  0.00  0.00    +0.000 A 
ATOM     18  C   UNL     1       6.066   3.416  12.395  0.00  0.00    +0.000 A 
ATOM     19 CL   UNL     1       5.143   2.310  11.457  0.00  0.00    +0.000 Cl
ATOM     20  C   UNL     1       5.764   3.601  13.749  0.00  0.00    +0.000 A 
ENDBRANCH  13  14
ENDBRANCH  10  13
ENDBRANCH   3  10
BRANCH   1  21
ATOM     21  C   UNL     1       1.909   7.924  19.490  0.00  0.00    +0.000 C 
BRANCH  21  23
ATOM     22  N   UNL     1       0.756  10.119  19.536  0.00  0.00    +0.000 N 
ATOM     23  C   UNL     1       1.441   9.187  18.794  0.00  0.00    +0.000 C 
ATOM     24  O   UNL     1       1.615   9.321  17.581  0.00  0.00    +0.000 OA
ATOM     25  H   UNL     1       0.498   9.932  20.498  0.00  0.00    +0.000 HD
BRANCH  22  26
ATOM     26  C   UNL     1       0.209  11.308  18.917  0.00  0.00    +0.000 C 
BRANCH  26  31
ATOM     27  C   UNL     1      -5.517  11.091  17.873  0.00  0.00    +0.000 C 
ATOM     28  C   UNL     1      -4.049  11.130  18.175  0.00  0.00    +0.000 A 
ATOM     29  C   UNL     1      -3.525  12.052  19.087  0.00  0.00    +0.000 A 
ATOM     30  C   UNL     1      -2.152  12.090  19.344  0.00  0.00    +0.000 A 
ATOM     31  C   UNL     1      -1.277  11.206  18.696  0.00  0.00    +0.000 A 
ATOM     32  C   UNL     1      -1.806  10.279  17.789  0.00  0.00    +0.000 A 
ATOM     33  C   UNL     1      -3.180  10.242  17.531  0.00  0.00    +0.000 A 
ENDBRANCH  26  31
ENDBRANCH  22  26
ENDBRANCH  21  23
ENDBRANCH   1  21
TORSDOF 7
ENDMDL
MODEL 2
REMARK VINA RESULT:      -9.2      4.840      8.378
REMARK  Name = 
REMARK  8 active torsions:
REMARK  status: ('A' for Active; 'I' for Inactive)
REMARK    1  A    between atoms: C_1  and  C_2
REMARK    2  A    between atoms: C_5  and  C_6
REMARK    3  A    between atoms: C_6  and  N_7
REMARK    4  A    between atoms: C_8  and  C_10
REMARK    5  A    between atoms: C_10  and  N_11
REMARK    6  A    between atoms: C_13  and  S_14
REMARK    7  A    between atoms: S_14  and  C_17
REMARK    8  A    between atoms: C_17  and  C_18
REMARK                            x       y       z     vdW  Elec       q    Type
REMARK                         _______ _______ _______ _____ _____    ______ ____
ROOT
ATOM      1  N   UNL     1       6.636   5.375  18.127  0.00  0.00    +0.000 N 
ATOM      2  C   UNL     1       5.725   4.750  18.938  0.00  0.00    +0.000 A 
ATOM      3  C   UNL     1       4.976   3.891  18.155  0.00  0.00    +0.000 A 
ATOM      4  C   UNL     1       5.452   3.996  16.816  0.00  0.00    +0.000 A 
ATOM      5  C   UNL     1       5.091   3.406  15.587  0.00  0.00    +0.000 A 
ATOM      6  C   UNL     1       5.797   3.728  14.424  0.00  0.00    +0.000 A 
ATOM      7  C   UNL     1       6.848   4.635  14.464  0.00  0.00    +0.000 A 
ATOM      8  C   UNL     1       7.222   5.248  15.662  0.00  0.00    +0.000 A 
ATOM      9  C   UNL     1       6.510   4.917  16.829  0.00  0.00    +0.000 A 
ENDROOT
BRANCH   3  10
ATOM     10  S   UNL     1       3.671   2.891  18.711  0.00  0.00    +0.000 S 
ATOM     11  O   UNL     1       3.834   1.657  17.966  0.00  0.00    +0.000 OA
ATOM     12  O   UNL     1       3.785   2.950  20.154  0.00  0.00    +0.000 OA
BRANCH  10  13
ATOM     13  C   UNL     1       2.192   3.739  18.168  0.00  0.00    +0.000 C 
BRANCH  13  14
ATOM     14  C   UNL     1       2.123   5.102  18.817  0.00  0.00    +0.000 A 
ATOM     15  C   UNL     1       1.801   5.225  20.176  0.00  0.00    +0.000 A 
ATOM     16  C   UNL     1       1.719   6.482  20.781  0.00  0.00    +0.000 A 
ATOM     17  C   UNL     1       1.961   7.635  20.033  0.00  0.00    +0.000 A 
ATOM     18  C   UNL     1       2.290   7.524  18.684  0.00  0.00    +0.000 A 
ATOM     19 CL   UNL     1       2.586   8.944  17.760  0.00  0.00    +0.000 Cl
ATOM     20  C   UNL     1       2.376   6.267  18.074  0.00  0.00    +0.000 A 
ENDBRANCH  13  14
ENDBRANCH  10  13
ENDBRANCH   3  10
BRANCH   1  21
ATOM     21  C   UNL     1       7.634   6.328  18.600  0.00  0.00    +0.000 C 
BRANCH  21  23
ATOM     22  N   UNL     1       8.569   8.604  18.286  0.00  0.00    +0.000 N 
ATOM     23  C   UNL     1       7.648   7.665  17.886  0.00  0.00    +0.000 C 
ATOM     24  O   UNL     1       6.802   7.911  17.024  0.00  0.00    +0.000 OA
ATOM     25  H   UNL     1       9.165   8.439  19.089  0.00  0.00    +0.000 HD
BRANCH  22  26
ATOM     26  C   UNL     1       8.583   9.929  17.704  0.00  0.00    +0.000 C 
BRANCH  26  31
ATOM     27  C   UNL     1      10.238  14.020  21.506  0.00  0.00    +0.000 C 
ATOM     28  C   UNL     1       9.779  12.963  20.547  0.00  0.00    +0.000 A 
ATOM     29  C   UNL     1       9.812  11.609  20.897  0.00  0.00    +0.000 A 
ATOM     30  C   UNL     1       9.401  10.632  19.986  0.00  0.00    +0.000 A 
ATOM     31  C   UNL     1       8.947  10.991  18.709  0.00  0.00    +0.000 A 
ATOM     32  C   UNL     1       8.908  12.348  18.363  0.00  0.00    +0.000 A 
ATOM     33  C   UNL     1       9.322  13.324  19.275  0.00  0.00    +0.000 A 
ENDBRANCH  26  31
ENDBRANCH  22  26
ENDBRANCH  21  23
ENDBRANCH   1  21
TORSDOF 7
ENDMDL
MODEL 3
REMARK VINA RESULT:      -9.2      0.609      1.050
REMARK  Name = 
REMARK  8 active torsions:
REMARK  status: ('A' for Active; 'I' for Inactive)
REMARK    1  A    between atoms: C_1  and  C_2
REMARK    2  A    between atoms: C_5  and  C_6
REMARK    3  A    between atoms: C_6  and  N_7
REMARK    4  A    between atoms: C_8  and  C_10
REMARK    5  A    between atoms: C_10  and  N_11
REMARK    6  A    between atoms: C_13  and  S_14
REMARK    7  A    between atoms: S_14  and  C_17
REMARK    8  A    between atoms: C_17  and  C_18
REMARK                            x       y       z     vdW  Elec       q    Type
REMARK                         _______ _______ _______ _____ _____    ______ ____
ROOT
ATOM      1  N   UNL     1       2.740   6.549  18.922  0.00  0.00    +0.000 N 
ATOM      2  C   UNL     1       3.811   7.074  18.248  0.00  0.00    +0.000 A 
ATOM      3  C   UNL     1       4.317   6.090  17.419  0.00  0.00    +0.000 A 
ATOM      4  C   UNL     1       3.521   4.921  17.593  0.00  0.00    +0.000 A 
ATOM      5  C   UNL     1       3.545   3.616  17.060  0.00  0.00    +0.000 A 
ATOM      6  C   UNL     1       2.576   2.686  17.446  0.00  0.00    +0.000 A 
ATOM      7  C   UNL     1       1.591   3.031  18.362  0.00  0.00    +0.000 A 
ATOM      8  C   UNL     1       1.547   4.311  18.921  0.00  0.00    +0.000 A 
ATOM      9  C   UNL     1       2.522   5.243  18.526  0.00  0.00    +0.000 A 
ENDROOT
BRANCH   3  10
ATOM     10  S   UNL     1       5.696   6.252  16.377  0.00  0.00    +0.000 S 
ATOM     11  O   UNL     1       5.155   6.851  15.171  0.00  0.00    +0.000 OA
ATOM     12  O   UNL     1       6.675   6.923  17.208  0.00  0.00    +0.000 OA
BRANCH  10  13
ATOM     13  C   UNL     1       6.208   4.570  16.046  0.00  0.00    +0.000 C 
BRANCH  13  14
ATOM     14  C   UNL     1       6.511   4.414  14.573  0.00  0.00    +0.000 A 
ATOM     15  C   UNL     1       7.565   5.129  13.986  0.00  0.00    +0.000 A 
ATOM     16  C   UNL     1       7.843   5.003  12.622  0.00  0.00    +0.000 A 
ATOM     17  C   UNL     1       7.070   4.156  11.827  0.00  0.00    +0.000 A 
ATOM     18  C   UNL     1       6.026   3.434  12.402  0.00  0.00    +0.000 A 
ATOM     19 CL   UNL     1       5.071   2.393  11.423  0.00  0.00    +0.000 Cl
ATOM     20  C   UNL     1       5.745   3.555  13.768  0.00  0.00    +0.000 A 
ENDBRANCH  13  14
ENDBRANCH  10  13
ENDBRANCH   3  10
BRANCH   1  21
ATOM     21  C   UNL     1       1.917   7.301  19.863  0.00  0.00    +0.000 C 
BRANCH  21  23
ATOM     22  N   UNL     1       0.816   9.483  20.286  0.00  0.00    +0.000 N 
ATOM     23  C   UNL     1       1.685   8.756  19.507  0.00  0.00    +0.000 C 
ATOM     24  O   UNL     1       2.212   9.235  18.501  0.00  0.00    +0.000 OA
ATOM     25  H   UNL     1       0.283   9.039  21.024  0.00  0.00    +0.000 HD
BRANCH  22  26
ATOM     26  C   UNL     1       0.485  10.853  19.953  0.00  0.00    +0.000 C 
BRANCH  26  31
ATOM     27  C   UNL     1      -4.583  11.060  17.089  0.00  0.00    +0.000 C 
ATOM     28  C   UNL     1      -3.262  11.028  17.799  0.00  0.00    +0.000 A 
ATOM     29  C   UNL     1      -2.223  10.206  17.350  0.00  0.00    +0.000 A 
ATOM     30  C   UNL     1      -1.004  10.171  18.033  0.00  0.00    +0.000 A 
ATOM     31  C   UNL     1      -0.801  10.958  19.176  0.00  0.00    +0.000 A 
ATOM     32  C   UNL     1      -1.841  11.785  19.619  0.00  0.00    +0.000 A 
ATOM     33  C   UNL     1      -3.060  11.818  18.935  0.00  0.00    +0.000 A 
ENDBRANCH  26  31
ENDBRANCH  22  26
ENDBRANCH  21  23
ENDBRANCH   1  21
TORSDOF 7
ENDMDL
MODEL 4
REMARK VINA RESULT:      -9.1      1.296      1.757
REMARK  Name = 
REMARK  8 active torsions:
REMARK  status: ('A' for Active; 'I' for Inactive)
REMARK    1  A    between atoms: C_1  and  C_2
REMARK    2  A    between atoms: C_5  and  C_6
REMARK    3  A    between atoms: C_6  and  N_7
REMARK    4  A    between atoms: C_8  and  C_10
REMARK    5  A    between atoms: C_10  and  N_11
REMARK    6  A    between atoms: C_13  and  S_14
REMARK    7  A    between atoms: S_14  and  C_17
REMARK    8  A    between atoms: C_17  and  C_18
REMARK                            x       y       z     vdW  Elec       q    Type
REMARK                         _______ _______ _______ _____ _____    ______ ____
ROOT
ATOM      1  N   UNL     1       2.682   6.163  19.337  0.00  0.00    +0.000 N 
ATOM      2  C   UNL     1       3.760   6.187  18.490  0.00  0.00    +0.000 A 
ATOM      3  C   UNL     1       4.022   4.887  18.098  0.00  0.00    +0.000 A 
ATOM      4  C   UNL     1       3.065   4.040  18.728  0.00  0.00    +0.000 A 
ATOM      5  C   UNL     1       2.829   2.650  18.742  0.00  0.00    +0.000 A 
ATOM      6  C   UNL     1       1.760   2.131  19.479  0.00  0.00    +0.000 A 
ATOM      7  C   UNL     1       0.931   2.972  20.209  0.00  0.00    +0.000 A 
ATOM      8  C   UNL     1       1.146   4.353  20.228  0.00  0.00    +0.000 A 
ATOM      9  C   UNL     1       2.220   4.869  19.482  0.00  0.00    +0.000 A 
ENDROOT
BRANCH   3  10
ATOM     10  S   UNL     1       5.310   4.386  17.047  0.00  0.00    +0.000 S 
ATOM     11  O   UNL     1       6.503   4.537  17.858  0.00  0.00    +0.000 OA
ATOM     12  O   UNL     1       4.864   3.100  16.550  0.00  0.00    +0.000 OA
BRANCH  10  13
ATOM     13  C   UNL     1       5.311   5.595  15.729  0.00  0.00    +0.000 C 
BRANCH  13  14
ATOM     14  C   UNL     1       5.937   4.996  14.491  0.00  0.00    +0.000 A 
ATOM     15  C   UNL     1       7.265   5.293  14.152  0.00  0.00    +0.000 A 
ATOM     16  C   UNL     1       7.847   4.756  13.001  0.00  0.00    +0.000 A 
ATOM     17  C   UNL     1       7.108   3.910  12.174  0.00  0.00    +0.000 A 
ATOM     18  C   UNL     1       5.791   3.601  12.506  0.00  0.00    +0.000 A 
ATOM     19 CL   UNL     1       4.878   2.561  11.485  0.00  0.00    +0.000 Cl
ATOM     20  C   UNL     1       5.203   4.134  13.658  0.00  0.00    +0.000 A 
ENDBRANCH  13  14
ENDBRANCH  10  13
ENDBRANCH   3  10
BRANCH   1  21
ATOM     21  C   UNL     1       2.081   7.353  19.928  0.00  0.00    +0.000 C 
BRANCH  21  23
ATOM     22  N   UNL     1       1.137   9.593  19.437  0.00  0.00    +0.000 N 
ATOM     23  C   UNL     1       1.822   8.498  18.969  0.00  0.00    +0.000 C 
ATOM     24  O   UNL     1       2.159   8.398  17.787  0.00  0.00    +0.000 OA
ATOM     25  H   UNL     1       0.743   9.601  20.371  0.00  0.00    +0.000 HD
BRANCH  22  26
ATOM     26  C   UNL     1       0.782  10.685  18.554  0.00  0.00    +0.000 C 
BRANCH  26  31
ATOM     27  C   UNL     1      -5.003  10.910  17.920  0.00  0.00    +0.000 C 
ATOM     28  C   UNL     1      -3.510  10.868  18.049  0.00  0.00    +0.000 A 
ATOM     29  C   UNL     1      -2.752   9.923  17.350  0.00  0.00    +0.000 A 
ATOM     30  C   UNL     1      -1.363   9.882  17.495  0.00  0.00    +0.000 A 
ATOM     31  C   UNL     1      -0.704  10.787  18.340  0.00  0.00    +0.000 A 
ATOM     32  C   UNL     1      -1.465  11.738  19.033  0.00  0.00    +0.000 A 
ATOM     33  C   UNL     1      -2.855  11.776  18.888  0.00  0.00    +0.000 A 
ENDBRANCH  26  31
ENDBRANCH  22  26
ENDBRANCH  21  23
ENDBRANCH   1  21
TORSDOF 7
ENDMDL
MODEL 5
REMARK VINA RESULT:      -9.1      5.046      8.750
REMARK  Name = 
REMARK  8 active torsions:
REMARK  status: ('A' for Active; 'I' for Inactive)
REMARK    1  A    between atoms: C_1  and  C_2
REMARK    2  A    between atoms: C_5  and  C_6
REMARK    3  A    between atoms: C_6  and  N_7
REMARK    4  A    between atoms: C_8  and  C_10
REMARK    5  A    between atoms: C_10  and  N_11
REMARK    6  A    between atoms: C_13  and  S_14
REMARK    7  A    between atoms: S_14  and  C_17
REMARK    8  A    between atoms: C_17  and  C_18
REMARK                            x       y       z     vdW  Elec       q    Type
REMARK                         _______ _______ _______ _____ _____    ______ ____
ROOT
ATOM      1  N   UNL     1       6.518   5.316  18.293  0.00  0.00    +0.000 N 
ATOM      2  C   UNL     1       5.645   4.681  19.137  0.00  0.00    +0.000 A 
ATOM      3  C   UNL     1       4.896   3.793  18.388  0.00  0.00    +0.000 A 
ATOM      4  C   UNL     1       5.332   3.890  17.034  0.00  0.00    +0.000 A 
ATOM      5  C   UNL     1       4.952   3.275  15.824  0.00  0.00    +0.000 A 
ATOM      6  C   UNL     1       5.617   3.597  14.637  0.00  0.00    +0.000 A 
ATOM      7  C   UNL     1       6.646   4.529  14.636  0.00  0.00    +0.000 A 
ATOM      8  C   UNL     1       7.038   5.168  15.815  0.00  0.00    +0.000 A 
ATOM      9  C   UNL     1       6.368   4.837  17.005  0.00  0.00    +0.000 A 
ENDROOT
BRANCH   3  10
ATOM     10  S   UNL     1       3.632   2.770  18.993  0.00  0.00    +0.000 S 
ATOM     11  O   UNL     1       3.818   1.522  18.276  0.00  0.00    +0.000 OA
ATOM     12  O   UNL     1       3.770   2.870  20.432  0.00  0.00    +0.000 OA
BRANCH  10  13
ATOM     13  C   UNL     1       2.119   3.560  18.458  0.00  0.00    +0.000 C 
BRANCH  13  14
ATOM     14  C   UNL     1       2.055   4.963  19.016  0.00  0.00    +0.000 A 
ATOM     15  C   UNL     1       1.701   5.177  20.357  0.00  0.00    +0.000 A 
ATOM     16  C   UNL     1       1.624   6.471  20.878  0.00  0.00    +0.000 A 
ATOM     17  C   UNL     1       1.902   7.570  20.065  0.00  0.00    +0.000 A 
ATOM     18  C   UNL     1       2.263   7.369  18.734  0.00  0.00    +0.000 A 
ATOM     19 CL   UNL     1       2.603   8.722  17.730  0.00  0.00    +0.000 Cl
ATOM     20  C   UNL     1       2.344   6.074  18.208  0.00  0.00    +0.000 A 
ENDBRANCH  13  14
ENDBRANCH  10  13
ENDBRANCH   3  10
BRANCH   1  21
ATOM     21  C   UNL     1       7.505   6.300  18.725  0.00  0.00    +0.000 C 
BRANCH  21  23
ATOM     22  N   UNL     1       8.421   8.565  18.303  0.00  0.00    +0.000 N 
ATOM     23  C   UNL     1       7.467   7.626  17.992  0.00  0.00    +0.000 C 
ATOM     24  O   UNL     1       6.554   7.864  17.198  0.00  0.00    +0.000 OA
ATOM     25  H   UNL     1       9.079   8.409  19.058  0.00  0.00    +0.000 HD
BRANCH  22  26
ATOM     26  C   UNL     1       8.393   9.883  17.703  0.00  0.00    +0.000 C 
BRANCH  26  31
ATOM     27  C   UNL     1      12.333  13.553  19.924  0.00  0.00    +0.000 C 
ATOM     28  C   UNL     1      11.347  12.589  19.334  0.00  0.00    +0.000 A 
ATOM     29  C   UNL     1      10.955  12.689  17.995  0.00  0.00    +0.000 A 
ATOM     30  C   UNL     1      10.019  11.798  17.464  0.00  0.00    +0.000 A 
ATOM     31  C   UNL     1       9.460  10.787  18.260  0.00  0.00    +0.000 A 
ATOM     32  C   UNL     1       9.861  10.686  19.598  0.00  0.00    +0.000 A 
ATOM     33  C   UNL     1      10.795  11.579  20.129  0.00  0.00    +0.000 A 
ENDBRANCH  26  31
ENDBRANCH  22  26
ENDBRANCH  21  23
ENDBRANCH   1  21
TORSDOF 7
ENDMDL
MODEL 6
REMARK VINA RESULT:      -9.0      1.513      1.840
REMARK  Name = 
REMARK  8 active torsions:
REMARK  status: ('A' for Active; 'I' for Inactive)
REMARK    1  A    between atoms: C_1  and  C_2
REMARK    2  A    between atoms: C_5  and  C_6
REMARK    3  A    between atoms: C_6  and  N_7
REMARK    4  A    between atoms: C_8  and  C_10
REMARK    5  A    between atoms: C_10  and  N_11
REMARK    6  A    between atoms: C_13  and  S_14
REMARK    7  A    between atoms: S_14  and  C_17
REMARK    8  A    between atoms: C_17  and  C_18
REMARK                            x       y       z     vdW  Elec       q    Type
REMARK                         _______ _______ _______ _____ _____    ______ ____
ROOT
ATOM      1  N   UNL     1       2.496   6.017  19.651  0.00  0.00    +0.000 N 
ATOM      2  C   UNL     1       3.556   6.597  19.004  0.00  0.00    +0.000 A 
ATOM      3  C   UNL     1       3.994   5.719  18.030  0.00  0.00    +0.000 A 
ATOM      4  C   UNL     1       3.166   4.560  18.085  0.00  0.00    +0.000 A 
ATOM      5  C   UNL     1       3.124   3.338  17.383  0.00  0.00    +0.000 A 
ATOM      6  C   UNL     1       2.141   2.392  17.686  0.00  0.00    +0.000 A 
ATOM      7  C   UNL     1       1.207   2.639  18.683  0.00  0.00    +0.000 A 
ATOM      8  C   UNL     1       1.229   3.833  19.408  0.00  0.00    +0.000 A 
ATOM      9  C   UNL     1       2.218   4.782  19.095  0.00  0.00    +0.000 A 
ENDROOT
BRANCH   3  10
ATOM     10  S   UNL     1       5.334   5.980  16.958  0.00  0.00    +0.000 S 
ATOM     11  O   UNL     1       4.747   6.671  15.825  0.00  0.00    +0.000 OA
ATOM     12  O   UNL     1       6.338   6.588  17.807  0.00  0.00    +0.000 OA
BRANCH  10  13
ATOM     13  C   UNL     1       5.845   4.336  16.470  0.00  0.00    +0.000 C 
BRANCH  13  14
ATOM     14  C   UNL     1       6.234   4.339  15.010  0.00  0.00    +0.000 A 
ATOM     15  C   UNL     1       5.518   3.568  14.083  0.00  0.00    +0.000 A 
ATOM     16  C   UNL     1       5.880   3.552  12.734  0.00  0.00    +0.000 A 
ATOM     17  C   UNL     1       6.965   4.311  12.292  0.00  0.00    +0.000 A 
ATOM     18  C   UNL     1       7.678   5.087  13.203  0.00  0.00    +0.000 A 
ATOM     19 CL   UNL     1       9.017   6.019  12.661  0.00  0.00    +0.000 Cl
ATOM     20  C   UNL     1       7.318   5.108  14.555  0.00  0.00    +0.000 A 
ENDBRANCH  13  14
ENDBRANCH  10  13
ENDBRANCH   3  10
BRANCH   1  21
ATOM     21  C   UNL     1       1.738   6.660  20.719  0.00  0.00    +0.000 C 
BRANCH  21  23
ATOM     22  N   UNL     1       1.319   8.604  19.237  0.00  0.00    +0.000 N 
ATOM     23  C   UNL     1       1.460   8.137  20.522  0.00  0.00    +0.000 C 
ATOM     24  O   UNL     1       1.438   8.895  21.494  0.00  0.00    +0.000 OA
ATOM     25  H   UNL     1       1.479   7.996  18.442  0.00  0.00    +0.000 HD
BRANCH  22  26
ATOM     26  C   UNL     1       1.135  10.015  18.972  0.00  0.00    +0.000 C 
BRANCH  26  31
ATOM     27  C   UNL     1      -4.318  11.522  17.588  0.00  0.00    +0.000 C 
ATOM     28  C   UNL     1      -2.928  11.115  17.975  0.00  0.00    +0.000 A 
ATOM     29  C   UNL     1      -2.264  11.736  19.038  0.00  0.00    +0.000 A 
ATOM     30  C   UNL     1      -0.961  11.361  19.375  0.00  0.00    +0.000 A 
ATOM     31  C   UNL     1      -0.297  10.356  18.656  0.00  0.00    +0.000 A 
ATOM     32  C   UNL     1      -0.966   9.731  17.597  0.00  0.00    +0.000 A 
ATOM     33  C   UNL     1      -2.270  10.108  17.260  0.00  0.00    +0.000 A 
ENDBRANCH  26  31
ENDBRANCH  22  26
ENDBRANCH  21  23
ENDBRANCH   1  21
TORSDOF 7
ENDMDL
MODEL 7
REMARK VINA RESULT:      -9.0      5.186      8.462
REMARK  Name = 
REMARK  8 active torsions:
REMARK  status: ('A' for Active; 'I' for Inactive)
REMARK    1  A    between atoms: C_1  and  C_2
REMARK    2  A    between atoms: C_5  and  C_6
REMARK    3  A    between atoms: C_6  and  N_7
REMARK    4  A    between atoms: C_8  and  C_10
REMARK    5  A    between atoms: C_10  and  N_11
REMARK    6  A    between atoms: C_13  and  S_14
REMARK    7  A    between atoms: S_14  and  C_17
REMARK    8  A    between atoms: C_17  and  C_18
REMARK                            x       y       z     vdW  Elec       q    Type
REMARK                         _______ _______ _______ _____ _____    ______ ____
ROOT
ATOM      1  N   UNL     1       6.847   5.711  18.361  0.00  0.00    +0.000 N 
ATOM      2  C   UNL     1       5.922   5.266  19.269  0.00  0.00    +0.000 A 
ATOM      3  C   UNL     1       5.059   4.409  18.613  0.00  0.00    +0.000 A 
ATOM      4  C   UNL     1       5.475   4.328  17.252  0.00  0.00    +0.000 A 
ATOM      5  C   UNL     1       5.000   3.654  16.108  0.00  0.00    +0.000 A 
ATOM      6  C   UNL     1       5.675   3.783  14.891  0.00  0.00    +0.000 A 
ATOM      7  C   UNL     1       6.807   4.581  14.793  0.00  0.00    +0.000 A 
ATOM      8  C   UNL     1       7.296   5.274  15.903  0.00  0.00    +0.000 A 
ATOM      9  C   UNL     1       6.615   5.137  17.125  0.00  0.00    +0.000 A 
ENDROOT
BRANCH   3  10
ATOM     10  S   UNL     1       3.695   3.604  19.323  0.00  0.00    +0.000 S 
ATOM     11  O   UNL     1       3.876   2.213  18.953  0.00  0.00    +0.000 OA
ATOM     12  O   UNL     1       3.712   4.053  20.700  0.00  0.00    +0.000 OA
BRANCH  10  13
ATOM     13  C   UNL     1       2.277   4.283  18.467  0.00  0.00    +0.000 C 
BRANCH  13  14
ATOM     14  C   UNL     1       2.219   5.776  18.688  0.00  0.00    +0.000 A 
ATOM     15  C   UNL     1       2.596   6.660  17.666  0.00  0.00    +0.000 A 
ATOM     16  C   UNL     1       2.560   8.042  17.866  0.00  0.00    +0.000 A 
ATOM     17  C   UNL     1       2.144   8.560  19.094  0.00  0.00    +0.000 A 
ATOM     18  C   UNL     1       1.758   7.692  20.112  0.00  0.00    +0.000 A 
ATOM     19 CL   UNL     1       1.248   8.328  21.625  0.00  0.00    +0.000 Cl
ATOM     20  C   UNL     1       1.790   6.306  19.916  0.00  0.00    +0.000 A 
ENDBRANCH  13  14
ENDBRANCH  10  13
ENDBRANCH   3  10
BRANCH   1  21
ATOM     21  C   UNL     1       7.953   6.605  18.689  0.00  0.00    +0.000 C 
BRANCH  21  23
ATOM     22  N   UNL     1       8.724   8.953  18.484  0.00  0.00    +0.000 N 
ATOM     23  C   UNL     1       7.943   7.942  17.976  0.00  0.00    +0.000 C 
ATOM     24  O   UNL     1       7.194   8.121  17.013  0.00  0.00    +0.000 OA
ATOM     25  H   UNL     1       9.226   8.834  19.356  0.00  0.00    +0.000 HD
BRANCH  22  26
ATOM     26  C   UNL     1       8.699  10.278  17.902  0.00  0.00    +0.000 C 
BRANCH  26  31
ATOM     27  C   UNL     1      10.139  14.404  21.753  0.00  0.00    +0.000 C 
ATOM     28  C   UNL     1       9.802  13.347  20.744  0.00  0.00    +0.000 A 
ATOM     29  C   UNL     1       9.418  13.688  19.443  0.00  0.00    +0.000 A 
ATOM     30  C   UNL     1       9.087  12.694  18.519  0.00  0.00    +0.000 A 
ATOM     31  C   UNL     1       9.136  11.339  18.877  0.00  0.00    +0.000 A 
ATOM     32  C   UNL     1       9.528  11.000  20.178  0.00  0.00    +0.000 A 
ATOM     33  C   UNL     1       9.858  11.996  21.102  0.00  0.00    +0.000 A 
ENDBRANCH  26  31
ENDBRANCH  22  26
ENDBRANCH  21  23
ENDBRANCH   1  21
TORSDOF 7
ENDMDL
MODEL 8
REMARK VINA RESULT:      -8.9      1.791      3.041
REMARK  Name = 
REMARK  8 active torsions:
REMARK  status: ('A' for Active; 'I' for Inactive)
REMARK    1  A    between atoms: C_1  and  C_2
REMARK    2  A    between atoms: C_5  and  C_6
REMARK    3  A    between atoms: C_6  and  N_7
REMARK    4  A    between atoms: C_8  and  C_10
REMARK    5  A    between atoms: C_10  and  N_11
REMARK    6  A    between atoms: C_13  and  S_14
REMARK    7  A    between atoms: S_14  and  C_17
REMARK    8  A    between atoms: C_17  and  C_18
REMARK                            x       y       z     vdW  Elec       q    Type
REMARK                         _______ _______ _______ _____ _____    ______ ____
ROOT
ATOM      1  N   UNL     1       2.771   6.825  18.819  0.00  0.00    +0.000 N 
ATOM      2  C   UNL     1       3.812   7.331  18.085  0.00  0.00    +0.000 A 
ATOM      3  C   UNL     1       4.306   6.315  17.289  0.00  0.00    +0.000 A 
ATOM      4  C   UNL     1       3.534   5.145  17.547  0.00  0.00    +0.000 A 
ATOM      5  C   UNL     1       3.562   3.815  17.077  0.00  0.00    +0.000 A 
ATOM      6  C   UNL     1       2.621   2.891  17.540  0.00  0.00    +0.000 A 
ATOM      7  C   UNL     1       1.661   3.267  18.470  0.00  0.00    +0.000 A 
ATOM      8  C   UNL     1       1.615   4.572  18.967  0.00  0.00    +0.000 A 
ATOM      9  C   UNL     1       2.561   5.498  18.495  0.00  0.00    +0.000 A 
ENDROOT
BRANCH   3  10
ATOM     10  S   UNL     1       5.647   6.445  16.195  0.00  0.00    +0.000 S 
ATOM     11  O   UNL     1       5.053   6.943  14.969  0.00  0.00    +0.000 OA
ATOM     12  O   UNL     1       6.630   7.198  16.947  0.00  0.00    +0.000 OA
BRANCH  10  13
ATOM     13  C   UNL     1       6.202   4.759  15.962  0.00  0.00    +0.000 C 
BRANCH  13  14
ATOM     14  C   UNL     1       6.529   4.531  14.505  0.00  0.00    +0.000 A 
ATOM     15  C   UNL     1       7.568   5.245  13.890  0.00  0.00    +0.000 A 
ATOM     16  C   UNL     1       7.868   5.051  12.539  0.00  0.00    +0.000 A 
ATOM     17  C   UNL     1       7.131   4.138  11.784  0.00  0.00    +0.000 A 
ATOM     18  C   UNL     1       6.103   3.417  12.386  0.00  0.00    +0.000 A 
ATOM     19 CL   UNL     1       5.193   2.293  11.456  0.00  0.00    +0.000 Cl
ATOM     20  C   UNL     1       5.800   3.605  13.740  0.00  0.00    +0.000 A 
ENDBRANCH  13  14
ENDBRANCH  10  13
ENDBRANCH   3  10
BRANCH   1  21
ATOM     21  C   UNL     1       1.967   7.611  19.749  0.00  0.00    +0.000 C 
BRANCH  21  23
ATOM     22  N   UNL     1       0.764   9.758  20.049  0.00  0.00    +0.000 N 
ATOM     23  C   UNL     1       1.372   8.883  19.180  0.00  0.00    +0.000 C 
ATOM     24  O   UNL     1       1.378   9.075  17.962  0.00  0.00    +0.000 OA
ATOM     25  H   UNL     1       0.642   9.521  21.026  0.00  0.00    +0.000 HD
BRANCH  22  26
ATOM     26  C   UNL     1       0.102  10.951  19.563  0.00  0.00    +0.000 C 
BRANCH  26  31
ATOM     27  C   UNL     1       3.839  15.418  19.483  0.00  0.00    +0.000 C 
ATOM     28  C   UNL     1       2.850  14.291  19.520  0.00  0.00    +0.000 A 
ATOM     29  C   UNL     1       2.562  13.624  20.715  0.00  0.00    +0.000 A 
ATOM     30  C   UNL     1       1.655  12.562  20.731  0.00  0.00    +0.000 A 
ATOM     31  C   UNL     1       1.016  12.148  19.553  0.00  0.00    +0.000 A 
ATOM     32  C   UNL     1       1.301  12.823  18.359  0.00  0.00    +0.000 A 
ATOM     33  C   UNL     1       2.211  13.884  18.344  0.00  0.00    +0.000 A 
ENDBRANCH  26  31
ENDBRANCH  22  26
ENDBRANCH  21  23
ENDBRANCH   1  21
TORSDOF 7
ENDMDL
MODEL 9
REMARK VINA RESULT:      -8.9      2.475      3.336
REMARK  Name = 
REMARK  8 active torsions:
REMARK  status: ('A' for Active; 'I' for Inactive)
REMARK    1  A    between atoms: C_1  and  C_2
REMARK    2  A    between atoms: C_5  and  C_6
REMARK    3  A    between atoms: C_6  and  N_7
REMARK    4  A    between atoms: C_8  and  C_10
REMARK    5  A    between atoms: C_10  and  N_11
REMARK    6  A    between atoms: C_13  and  S_14
REMARK    7  A    between atoms: S_14  and  C_17
REMARK    8  A    between atoms: C_17  and  C_18
REMARK                            x       y       z     vdW  Elec       q    Type
REMARK                         _______ _______ _______ _____ _____    ______ ____
ROOT
ATOM      1  N   UNL     1       3.044   6.185  18.412  0.00  0.00    +0.000 N 
ATOM      2  C   UNL     1       3.844   6.504  17.346  0.00  0.00    +0.000 A 
ATOM      3  C   UNL     1       4.283   5.325  16.774  0.00  0.00    +0.000 A 
ATOM      4  C   UNL     1       3.725   4.245  17.519  0.00  0.00    +0.000 A 
ATOM      5  C   UNL     1       3.815   2.840  17.447  0.00  0.00    +0.000 A 
ATOM      6  C   UNL     1       3.106   2.047  18.354  0.00  0.00    +0.000 A 
ATOM      7  C   UNL     1       2.319   2.632  19.337  0.00  0.00    +0.000 A 
ATOM      8  C   UNL     1       2.220   4.021  19.446  0.00  0.00    +0.000 A 
ATOM      9  C   UNL     1       2.933   4.812  18.529  0.00  0.00    +0.000 A 
ENDROOT
BRANCH   3  10
ATOM     10  S   UNL     1       5.346   5.194  15.408  0.00  0.00    +0.000 S 
ATOM     11  O   UNL     1       4.690   4.231  14.544  0.00  0.00    +0.000 OA
ATOM     12  O   UNL     1       5.568   6.570  15.015  0.00  0.00    +0.000 OA
BRANCH  10  13
ATOM     13  C   UNL     1       6.849   4.488  16.076  0.00  0.00    +0.000 C 
BRANCH  13  14
ATOM     14  C   UNL     1       7.352   5.349  17.211  0.00  0.00    +0.000 A 
ATOM     15  C   UNL     1       7.643   4.778  18.459  0.00  0.00    +0.000 A 
ATOM     16  C   UNL     1       8.094   5.568  19.519  0.00  0.00    +0.000 A 
ATOM     17  C   UNL     1       8.262   6.942  19.345  0.00  0.00    +0.000 A 
ATOM     18  C   UNL     1       7.984   7.518  18.107  0.00  0.00    +0.000 A 
ATOM     19 CL   UNL     1       8.187   9.212  17.892  0.00  0.00    +0.000 Cl
ATOM     20  C   UNL     1       7.534   6.731  17.041  0.00  0.00    +0.000 A 
ENDBRANCH  13  14
ENDBRANCH  10  13
ENDBRANCH   3  10
BRANCH   1  21
ATOM     21  C   UNL     1       2.360   7.168  19.245  0.00  0.00    +0.000 C 
BRANCH  21  23
ATOM     22  N   UNL     1       1.315   9.417  19.274  0.00  0.00    +0.000 N 
ATOM     23  C   UNL     1       2.017   8.476  18.559  0.00  0.00    +0.000 C 
ATOM     24  O   UNL     1       2.303   8.642  17.372  0.00  0.00    +0.000 OA
ATOM     25  H   UNL     1       0.964   9.211  20.202  0.00  0.00    +0.000 HD
BRANCH  22  26
ATOM     26  C   UNL     1       0.882  10.653  18.656  0.00  0.00    +0.000 C 
BRANCH  26  31
ATOM     27  C   UNL     1      -4.845  10.998  17.653  0.00  0.00    +0.000 C 
ATOM     28  C   UNL     1      -3.378  10.891  17.944  0.00  0.00    +0.000 A 
ATOM     29  C   UNL     1      -2.766  11.732  18.879  0.00  0.00    +0.000 A 
ATOM     30  C   UNL     1      -1.394  11.636  19.126  0.00  0.00    +0.000 A 
ATOM     31  C   UNL     1      -0.609  10.695  18.445  0.00  0.00    +0.000 A 
ATOM     32  C   UNL     1      -1.226   9.850  17.514  0.00  0.00    +0.000 A 
ATOM     33  C   UNL     1      -2.598   9.948  17.266  0.00  0.00    +0.000 A 
ENDBRANCH  26  31
ENDBRANCH  22  26
ENDBRANCH  21  23
ENDBRANCH   1  21
TORSDOF 7
ENDMDL
