MODEL 1
REMARK VINA RESULT:      -7.7      0.000      0.000
REMARK  Name = 
REMARK  3 active torsions:
REMARK  status: ('A' for Active; 'I' for Inactive)
REMARK    1  A    between atoms: C_1  and  C_2
REMARK    2  A    between atoms: C_2  and  C_3
REMARK    3  A    between atoms: C_15  and  O_16
REMARK                            x       y       z     vdW  Elec       q    Type
REMARK                         _______ _______ _______ _____ _____    ______ ____
ROOT
ATOM      1  C   UNL     1       5.483   4.662  15.014  0.00  0.00    +0.000 C 
ATOM      2  C   UNL     1       5.954   5.947  15.691  0.00  0.00    +0.000 C 
ATOM      3  C   UNL     1       4.793   6.507  16.498  0.00  0.00    +0.000 C 
ATOM      4  C   UNL     1       4.124   5.419  17.284  0.00  0.00    +0.000 A 
ATOM      5  C   UNL     1       4.353   4.081  17.002  0.00  0.00    +0.000 A 
ATOM      6  N   UNL     1       3.796   3.070  17.697  0.00  0.00    +0.000 NA
ATOM      7  C   UNL     1       2.953   3.361  18.700  0.00  0.00    +0.000 A 
ATOM      8  C   UNL     1       2.398   2.307  19.415  0.00  0.00    +0.000 A 
ATOM      9  C   UNL     1       1.507   2.514  20.472  0.00  0.00    +0.000 A 
ATOM     10  C   UNL     1       1.157   3.806  20.829  0.00  0.00    +0.000 A 
ATOM     11  C   UNL     1       1.702   4.884  20.131  0.00  0.00    +0.000 A 
ATOM     12  C   UNL     1       2.608   4.681  19.060  0.00  0.00    +0.000 A 
ATOM     13  C   UNL     1       3.221   5.708  18.308  0.00  0.00    +0.000 A 
ATOM     14  O   UNL     1       5.197   3.665  16.003  0.00  0.00    +0.000 OA
ENDROOT
BRANCH   1  16
ATOM     15  C   UNL     1       5.992   3.576  12.773  0.00  0.00    +0.000 C 
ATOM     16  C   UNL     1       6.569   4.134  14.068  0.00  0.00    +0.000 C 
ENDBRANCH   1  16
BRANCH  13  17
ATOM     17  O   UNL     1       2.977   7.040  18.535  0.00  0.00    +0.000 OA
ATOM     18  H   UNL     1       2.905   7.210  19.485  0.00  0.00    +0.000 HD
ENDBRANCH  13  17
TORSDOF 2
ENDMDL
MODEL 2
REMARK VINA RESULT:      -7.4      1.200      1.209
REMARK  Name = 
REMARK  3 active torsions:
REMARK  status: ('A' for Active; 'I' for Inactive)
REMARK    1  A    between atoms: C_1  and  C_2
REMARK    2  A    between atoms: C_2  and  C_3
REMARK    3  A    between atoms: C_15  and  O_16
REMARK                            x       y       z     vdW  Elec       q    Type
REMARK                         _______ _______ _______ _____ _____    ______ ____
ROOT
ATOM      1  C   UNL     1       6.030   4.916  15.291  0.00  0.00    +0.000 C 
ATOM      2  C   UNL     1       7.040   5.066  16.426  0.00  0.00    +0.000 C 
ATOM      3  C   UNL     1       6.309   5.620  17.638  0.00  0.00    +0.000 C 
ATOM      4  C   UNL     1       5.011   4.897  17.847  0.00  0.00    +0.000 A 
ATOM      5  C   UNL     1       4.461   4.102  16.855  0.00  0.00    +0.000 A 
ATOM      6  N   UNL     1       3.313   3.413  17.006  0.00  0.00    +0.000 NA
ATOM      7  C   UNL     1       2.645   3.515  18.165  0.00  0.00    +0.000 A 
ATOM      8  C   UNL     1       1.469   2.788  18.310  0.00  0.00    +0.000 A 
ATOM      9  C   UNL     1       0.706   2.836  19.479  0.00  0.00    +0.000 A 
ATOM     10  C   UNL     1       1.121   3.630  20.537  0.00  0.00    +0.000 A 
ATOM     11  C   UNL     1       2.298   4.369  20.420  0.00  0.00    +0.000 A 
ATOM     12  C   UNL     1       3.080   4.322  19.238  0.00  0.00    +0.000 A 
ATOM     13  C   UNL     1       4.291   5.021  19.036  0.00  0.00    +0.000 A 
ATOM     14  O   UNL     1       5.056   3.920  15.631  0.00  0.00    +0.000 OA
ENDROOT
BRANCH   1  16
ATOM     15  C   UNL     1       5.857   3.659  13.089  0.00  0.00    +0.000 C 
ATOM     16  C   UNL     1       6.743   4.500  13.998  0.00  0.00    +0.000 C 
ENDBRANCH   1  16
BRANCH  13  17
ATOM     17  O   UNL     1       4.835   5.851  19.985  0.00  0.00    +0.000 OA
ATOM     18  H   UNL     1       4.188   6.034  20.681  0.00  0.00    +0.000 HD
ENDBRANCH  13  17
TORSDOF 2
ENDMDL
MODEL 3
REMARK VINA RESULT:      -7.2      1.890      3.323
REMARK  Name = 
REMARK  3 active torsions:
REMARK  status: ('A' for Active; 'I' for Inactive)
REMARK    1  A    between atoms: C_1  and  C_2
REMARK    2  A    between atoms: C_2  and  C_3
REMARK    3  A    between atoms: C_15  and  O_16
REMARK                            x       y       z     vdW  Elec       q    Type
REMARK                         _______ _______ _______ _____ _____    ______ ____
ROOT
ATOM      1  C   UNL     1       6.872   6.398  17.462  0.00  0.00    +0.000 C 
ATOM      2  C   UNL     1       6.731   5.509  16.229  0.00  0.00    +0.000 C 
ATOM      3  C   UNL     1       6.162   4.171  16.674  0.00  0.00    +0.000 C 
ATOM      4  C   UNL     1       5.014   4.373  17.617  0.00  0.00    +0.000 A 
ATOM      5  C   UNL     1       4.784   5.599  18.220  0.00  0.00    +0.000 A 
ATOM      6  N   UNL     1       3.751   5.836  19.052  0.00  0.00    +0.000 NA
ATOM      7  C   UNL     1       2.908   4.832  19.340  0.00  0.00    +0.000 A 
ATOM      8  C   UNL     1       1.841   5.095  20.189  0.00  0.00    +0.000 A 
ATOM      9  C   UNL     1       0.916   4.111  20.548  0.00  0.00    +0.000 A 
ATOM     10  C   UNL     1       1.056   2.825  20.049  0.00  0.00    +0.000 A 
ATOM     11  C   UNL     1       2.117   2.533  19.191  0.00  0.00    +0.000 A 
ATOM     12  C   UNL     1       3.056   3.528  18.821  0.00  0.00    +0.000 A 
ATOM     13  C   UNL     1       4.150   3.328  17.948  0.00  0.00    +0.000 A 
ATOM     14  O   UNL     1       5.576   6.698  17.998  0.00  0.00    +0.000 OA
ENDROOT
BRANCH   1  16
ATOM     15  C   UNL     1       8.287   8.341  18.283  0.00  0.00    +0.000 C 
ATOM     16  C   UNL     1       7.579   7.708  17.093  0.00  0.00    +0.000 C 
ENDBRANCH   1  16
BRANCH  13  17
ATOM     17  O   UNL     1       4.428   2.114  17.373  0.00  0.00    +0.000 OA
ATOM     18  H   UNL     1       5.258   1.758  17.724  0.00  0.00    +0.000 HD
ENDBRANCH  13  17
TORSDOF 2
ENDMDL
MODEL 4
REMARK VINA RESULT:      -6.9      1.989      3.008
REMARK  Name = 
REMARK  3 active torsions:
REMARK  status: ('A' for Active; 'I' for Inactive)
REMARK    1  A    between atoms: C_1  and  C_2
REMARK    2  A    between atoms: C_2  and  C_3
REMARK    3  A    between atoms: C_15  and  O_16
REMARK                            x       y       z     vdW  Elec       q    Type
REMARK                         _______ _______ _______ _____ _____    ______ ____
ROOT
ATOM      1  C   UNL     1       6.762   5.835  17.914  0.00  0.00    +0.000 C 
ATOM      2  C   UNL     1       6.007   6.226  16.646  0.00  0.00    +0.000 C 
ATOM      3  C   UNL     1       5.000   5.128  16.341  0.00  0.00    +0.000 C 
ATOM      4  C   UNL     1       4.266   4.725  17.584  0.00  0.00    +0.000 A 
ATOM      5  C   UNL     1       4.727   5.083  18.841  0.00  0.00    +0.000 A 
ATOM      6  N   UNL     1       4.087   4.767  19.985  0.00  0.00    +0.000 NA
ATOM      7  C   UNL     1       2.959   4.045  19.917  0.00  0.00    +0.000 A 
ATOM      8  C   UNL     1       2.305   3.738  21.104  0.00  0.00    +0.000 A 
ATOM      9  C   UNL     1       1.127   2.987  21.131  0.00  0.00    +0.000 A 
ATOM     10  C   UNL     1       0.581   2.525  19.943  0.00  0.00    +0.000 A 
ATOM     11  C   UNL     1       1.215   2.821  18.736  0.00  0.00    +0.000 A 
ATOM     12  C   UNL     1       2.408   3.585  18.701  0.00  0.00    +0.000 A 
ATOM     13  C   UNL     1       3.109   3.946  17.528  0.00  0.00    +0.000 A 
ATOM     14  O   UNL     1       5.866   5.824  19.033  0.00  0.00    +0.000 OA
ENDROOT
BRANCH   1  16
ATOM     15  C   UNL     1       7.646   8.186  17.528  0.00  0.00    +0.000 C 
ATOM     16  C   UNL     1       7.893   6.835  18.186  0.00  0.00    +0.000 C 
ENDBRANCH   1  16
BRANCH  13  17
ATOM     17  O   UNL     1       2.701   3.566  16.274  0.00  0.00    +0.000 OA
ATOM     18  H   UNL     1       3.228   4.018  15.599  0.00  0.00    +0.000 HD
ENDBRANCH  13  17
TORSDOF 2
ENDMDL
MODEL 5
REMARK VINA RESULT:      -6.8      2.660      3.910
REMARK  Name = 
REMARK  3 active torsions:
REMARK  status: ('A' for Active; 'I' for Inactive)
REMARK    1  A    between atoms: C_1  and  C_2
REMARK    2  A    between atoms: C_2  and  C_3
REMARK    3  A    between atoms: C_15  and  O_16
REMARK                            x       y       z     vdW  Elec       q    Type
REMARK                         _______ _______ _______ _____ _____    ______ ____
ROOT
ATOM      1  C   UNL     1       5.342   4.466  17.073  0.00  0.00    +0.000 C 
ATOM      2  C   UNL     1       4.515   3.422  17.820  0.00  0.00    +0.000 C 
ATOM      3  C   UNL     1       4.020   4.051  19.113  0.00  0.00    +0.000 C 
ATOM      4  C   UNL     1       3.482   5.427  18.859  0.00  0.00    +0.000 A 
ATOM      5  C   UNL     1       3.746   6.097  17.675  0.00  0.00    +0.000 A 
ATOM      6  N   UNL     1       3.262   7.322  17.390  0.00  0.00    +0.000 NA
ATOM      7  C   UNL     1       2.506   7.948  18.305  0.00  0.00    +0.000 A 
ATOM      8  C   UNL     1       2.005   9.205  17.991  0.00  0.00    +0.000 A 
ATOM      9  C   UNL     1       1.212   9.933  18.883  0.00  0.00    +0.000 A 
ATOM     10  C   UNL     1       0.908   9.396  20.124  0.00  0.00    +0.000 A 
ATOM     11  C   UNL     1       1.396   8.134  20.465  0.00  0.00    +0.000 A 
ATOM     12  C   UNL     1       2.198   7.389  19.564  0.00  0.00    +0.000 A 
ATOM     13  C   UNL     1       2.721   6.101  19.815  0.00  0.00    +0.000 A 
ATOM     14  O   UNL     1       4.503   5.554  16.666  0.00  0.00    +0.000 OA
ENDROOT
BRANCH   1  16
ATOM     15  C   UNL     1       5.544   4.513  14.541  0.00  0.00    +0.000 C 
ATOM     16  C   UNL     1       5.990   3.839  15.832  0.00  0.00    +0.000 C 
ENDBRANCH   1  16
BRANCH  13  17
ATOM     17  O   UNL     1       2.514   5.434  20.997  0.00  0.00    +0.000 OA
ATOM     18  H   UNL     1       1.763   4.827  20.913  0.00  0.00    +0.000 HD
ENDBRANCH  13  17
TORSDOF 2
ENDMDL
MODEL 6
REMARK VINA RESULT:      -6.7      2.455      3.550
REMARK  Name = 
REMARK  3 active torsions:
REMARK  status: ('A' for Active; 'I' for Inactive)
REMARK    1  A    between atoms: C_1  and  C_2
REMARK    2  A    between atoms: C_2  and  C_3
REMARK    3  A    between atoms: C_15  and  O_16
REMARK                            x       y       z     vdW  Elec       q    Type
REMARK                         _______ _______ _______ _____ _____    ______ ____
ROOT
ATOM      1  C   UNL     1       6.944   6.658  17.977  0.00  0.00    +0.000 C 
ATOM      2  C   UNL     1       7.336   5.316  17.363  0.00  0.00    +0.000 C 
ATOM      3  C   UNL     1       6.865   4.214  18.299  0.00  0.00    +0.000 C 
ATOM      4  C   UNL     1       5.460   4.475  18.756  0.00  0.00    +0.000 A 
ATOM      5  C   UNL     1       4.869   5.718  18.595  0.00  0.00    +0.000 A 
ATOM      6  N   UNL     1       3.602   5.992  18.965  0.00  0.00    +0.000 NA
ATOM      7  C   UNL     1       2.874   5.025  19.544  0.00  0.00    +0.000 A 
ATOM      8  C   UNL     1       1.566   5.320  19.908  0.00  0.00    +0.000 A 
ATOM      9  C   UNL     1       0.735   4.378  20.520  0.00  0.00    +0.000 A 
ATOM     10  C   UNL     1       1.217   3.105  20.780  0.00  0.00    +0.000 A 
ATOM     11  C   UNL     1       2.526   2.780  20.423  0.00  0.00    +0.000 A 
ATOM     12  C   UNL     1       3.373   3.730  19.799  0.00  0.00    +0.000 A 
ATOM     13  C   UNL     1       4.704   3.487  19.389  0.00  0.00    +0.000 A 
ATOM     14  O   UNL     1       5.516   6.779  18.013  0.00  0.00    +0.000 OA
ENDROOT
BRANCH   1  16
ATOM     15  C   UNL     1       8.204   8.864  18.011  0.00  0.00    +0.000 C 
ATOM     16  C   UNL     1       7.525   7.809  17.147  0.00  0.00    +0.000 C 
ENDBRANCH   1  16
BRANCH  13  17
ATOM     17  O   UNL     1       5.329   2.280  19.577  0.00  0.00    +0.000 OA
ATOM     18  H   UNL     1       5.782   2.006  18.765  0.00  0.00    +0.000 HD
ENDBRANCH  13  17
TORSDOF 2
ENDMDL
MODEL 7
REMARK VINA RESULT:      -6.7      1.552      5.491
REMARK  Name = 
REMARK  3 active torsions:
REMARK  status: ('A' for Active; 'I' for Inactive)
REMARK    1  A    between atoms: C_1  and  C_2
REMARK    2  A    between atoms: C_2  and  C_3
REMARK    3  A    between atoms: C_15  and  O_16
REMARK                            x       y       z     vdW  Elec       q    Type
REMARK                         _______ _______ _______ _____ _____    ______ ____
ROOT
ATOM      1  C   UNL     1       2.834   4.317  20.904  0.00  0.00    +0.000 C 
ATOM      2  C   UNL     1       1.854   5.398  20.455  0.00  0.00    +0.000 C 
ATOM      3  C   UNL     1       2.604   6.373  19.562  0.00  0.00    +0.000 C 
ATOM      4  C   UNL     1       3.451   5.635  18.568  0.00  0.00    +0.000 A 
ATOM      5  C   UNL     1       3.732   4.287  18.722  0.00  0.00    +0.000 A 
ATOM      6  N   UNL     1       4.465   3.575  17.842  0.00  0.00    +0.000 NA
ATOM      7  C   UNL     1       4.976   4.202  16.771  0.00  0.00    +0.000 A 
ATOM      8  C   UNL     1       5.718   3.451  15.867  0.00  0.00    +0.000 A 
ATOM      9  C   UNL     1       6.293   4.018  14.726  0.00  0.00    +0.000 A 
ATOM     10  C   UNL     1       6.126   5.371  14.476  0.00  0.00    +0.000 A 
ATOM     11  C   UNL     1       5.383   6.148  15.365  0.00  0.00    +0.000 A 
ATOM     12  C   UNL     1       4.795   5.579  16.522  0.00  0.00    +0.000 A 
ATOM     13  C   UNL     1       4.015   6.282  17.468  0.00  0.00    +0.000 A 
ATOM     14  O   UNL     1       3.260   3.544  19.775  0.00  0.00    +0.000 OA
ENDROOT
BRANCH   1  16
ATOM     15  C   UNL     1       1.099   2.503  21.298  0.00  0.00    +0.000 C 
ATOM     16  C   UNL     1       2.167   3.389  21.926  0.00  0.00    +0.000 C 
ENDBRANCH   1  16
BRANCH  13  17
ATOM     17  O   UNL     1       3.759   7.626  17.365  0.00  0.00    +0.000 OA
ATOM     18  H   UNL     1       4.142   8.099  18.119  0.00  0.00    +0.000 HD
ENDBRANCH  13  17
TORSDOF 2
ENDMDL
MODEL 8
REMARK VINA RESULT:      -6.7      4.639      6.084
REMARK  Name = 
REMARK  3 active torsions:
REMARK  status: ('A' for Active; 'I' for Inactive)
REMARK    1  A    between atoms: C_1  and  C_2
REMARK    2  A    between atoms: C_2  and  C_3
REMARK    3  A    between atoms: C_15  and  O_16
REMARK                            x       y       z     vdW  Elec       q    Type
REMARK                         _______ _______ _______ _____ _____    ______ ____
ROOT
ATOM      1  C   UNL     1       2.654   6.422  18.510  0.00  0.00    +0.000 C 
ATOM      2  C   UNL     1       3.246   7.600  17.741  0.00  0.00    +0.000 C 
ATOM      3  C   UNL     1       2.196   8.697  17.675  0.00  0.00    +0.000 C 
ATOM      4  C   UNL     1       1.555   8.894  19.017  0.00  0.00    +0.000 A 
ATOM      5  C   UNL     1       1.693   7.955  20.026  0.00  0.00    +0.000 A 
ATOM      6  N   UNL     1       1.158   8.101  21.255  0.00  0.00    +0.000 NA
ATOM      7  C   UNL     1       0.430   9.197  21.518  0.00  0.00    +0.000 A 
ATOM      8  C   UNL     1      -0.104   9.338  22.793  0.00  0.00    +0.000 A 
ATOM      9  C   UNL     1      -0.878  10.443  23.156  0.00  0.00    +0.000 A 
ATOM     10  C   UNL     1      -1.131  11.438  22.225  0.00  0.00    +0.000 A 
ATOM     11  C   UNL     1      -0.606  11.323  20.937  0.00  0.00    +0.000 A 
ATOM     12  C   UNL     1       0.183  10.207  20.564  0.00  0.00    +0.000 A 
ATOM     13  C   UNL     1       0.769  10.014  19.292  0.00  0.00    +0.000 A 
ATOM     14  O   UNL     1       2.417   6.799  19.873  0.00  0.00    +0.000 OA
ENDROOT
BRANCH   1  16
ATOM     15  C   UNL     1       3.202   4.172  17.465  0.00  0.00    +0.000 C 
ATOM     16  C   UNL     1       3.617   5.229  18.479  0.00  0.00    +0.000 C 
ENDBRANCH   1  16
BRANCH  13  17
ATOM     17  O   UNL     1       0.611  10.905  18.260  0.00  0.00    +0.000 OA
ATOM     18  H   UNL     1      -0.311  10.915  17.964  0.00  0.00    +0.000 HD
ENDBRANCH  13  17
TORSDOF 2
ENDMDL
MODEL 9
REMARK VINA RESULT:      -6.7      2.585      3.575
REMARK  Name = 
REMARK  3 active torsions:
REMARK  status: ('A' for Active; 'I' for Inactive)
REMARK    1  A    between atoms: C_1  and  C_2
REMARK    2  A    between atoms: C_2  and  C_3
REMARK    3  A    between atoms: C_15  and  O_16
REMARK                            x       y       z     vdW  Elec       q    Type
REMARK                         _______ _______ _______ _____ _____    ______ ____
ROOT
ATOM      1  C   UNL     1       6.793   6.845  17.992  0.00  0.00    +0.000 C 
ATOM      2  C   UNL     1       7.650   5.582  17.993  0.00  0.00    +0.000 C 
ATOM      3  C   UNL     1       6.986   4.562  18.904  0.00  0.00    +0.000 C 
ATOM      4  C   UNL     1       5.512   4.496  18.636  0.00  0.00    +0.000 A 
ATOM      5  C   UNL     1       4.866   5.483  17.909  0.00  0.00    +0.000 A 
ATOM      6  N   UNL     1       3.550   5.454  17.620  0.00  0.00    +0.000 NA
ATOM      7  C   UNL     1       2.810   4.432  18.077  0.00  0.00    +0.000 A 
ATOM      8  C   UNL     1       1.458   4.409  17.760  0.00  0.00    +0.000 A 
ATOM      9  C   UNL     1       0.609   3.388  18.196  0.00  0.00    +0.000 A 
ATOM     10  C   UNL     1       1.119   2.359  18.972  0.00  0.00    +0.000 A 
ATOM     11  C   UNL     1       2.474   2.354  19.303  0.00  0.00    +0.000 A 
ATOM     12  C   UNL     1       3.341   3.385  18.861  0.00  0.00    +0.000 A 
ATOM     13  C   UNL     1       4.726   3.455  19.134  0.00  0.00    +0.000 A 
ATOM     14  O   UNL     1       5.521   6.572  17.388  0.00  0.00    +0.000 OA
ENDROOT
BRANCH   1  16
ATOM     15  C   UNL     1       8.273   8.907  18.108  0.00  0.00    +0.000 C 
ATOM     16  C   UNL     1       7.493   7.960  17.205  0.00  0.00    +0.000 C 
ENDBRANCH   1  16
BRANCH  13  17
ATOM     17  O   UNL     1       5.381   2.516  19.889  0.00  0.00    +0.000 OA
ATOM     18  H   UNL     1       4.744   1.921  20.312  0.00  0.00    +0.000 HD
ENDBRANCH  13  17
TORSDOF 2
ENDMDL
