MODEL 1
REMARK VINA RESULT:      -8.4      0.000      0.000
REMARK  Name = 
REMARK  3 active torsions:
REMARK  status: ('A' for Active; 'I' for Inactive)
REMARK    1  A    between atoms: N_10  and  C_11
REMARK    2  A    between atoms: C_16  and  S_17
REMARK    3  A    between atoms: S_17  and  N_20
REMARK                            x       y       z     vdW  Elec       q    Type
REMARK                         _______ _______ _______ _____ _____    ______ ____
ROOT
ATOM      1  C   UNL     1       2.111   6.759  19.939  0.00  0.00    +0.000 A 
ATOM      2  C   UNL     1       1.511   5.854  20.820  0.00  0.00    +0.000 A 
ATOM      3  C   UNL     1       1.881   4.499  20.832  0.00  0.00    +0.000 A 
ATOM      4  C   UNL     1       2.888   4.019  19.990  0.00  0.00    +0.000 A 
ATOM      5 CL   UNL     1       3.245   2.336  20.079  0.00  0.00    +0.000 Cl
ATOM      6  C   UNL     1       3.529   4.912  19.139  0.00  0.00    +0.000 A 
ATOM      7  C   UNL     1       3.128   6.262  19.101  0.00  0.00    +0.000 A 
ENDROOT
BRANCH   1  17
ATOM      8  O   UNL     1       1.090   8.586  22.118  0.00  0.00    +0.000 OA
ATOM      9  C   UNL     1       1.202   8.891  20.939  0.00  0.00    +0.000 A 
ATOM     10  C   UNL     1       0.821  10.246  20.476  0.00  0.00    +0.000 A 
ATOM     11  C   UNL     1       0.343  11.286  21.266  0.00  0.00    +0.000 A 
ATOM     12  C   UNL     1       0.033  12.502  20.648  0.00  0.00    +0.000 A 
ATOM     13  C   UNL     1       0.193  12.658  19.264  0.00  0.00    +0.000 A 
ATOM     14  C   UNL     1       0.680  11.605  18.484  0.00  0.00    +0.000 A 
ATOM     15  C   UNL     1       1.002  10.409  19.108  0.00  0.00    +0.000 A 
ATOM     16  S   UNL     1       1.681   8.970  18.358  0.00  0.00    +0.000 S 
ATOM     17  N   UNL     1       1.695   8.127  19.870  0.00  0.00    +0.000 N 
ENDBRANCH   1  17
BRANCH   6  18
ATOM     18  S   UNL     1       4.831   4.401  18.045  0.00  0.00    +0.000 S 
ATOM     19  O   UNL     1       6.035   4.261  18.834  0.00  0.00    +0.000 OA
ATOM     20  O   UNL     1       4.339   3.277  17.278  0.00  0.00    +0.000 OA
BRANCH  18  21
ATOM     21  N   UNL     1       5.036   5.691  16.952  0.00  0.00    +0.000 NA
ATOM     22  C   UNL     1       5.313   5.365  15.520  0.00  0.00    +0.000 C 
ATOM     23  C   UNL     1       6.789   5.025  15.281  0.00  0.00    +0.000 C 
ATOM     24  O   UNL     1       7.655   6.071  15.740  0.00  0.00    +0.000 OA
ATOM     25  C   UNL     1       7.448   6.353  17.133  0.00  0.00    +0.000 C 
ATOM     26  C   UNL     1       5.994   6.753  17.410  0.00  0.00    +0.000 C 
ENDBRANCH  18  21
ENDBRANCH   6  18
TORSDOF 3
ENDMDL
MODEL 2
REMARK VINA RESULT:      -8.4      1.146      1.501
REMARK  Name = 
REMARK  3 active torsions:
REMARK  status: ('A' for Active; 'I' for Inactive)
REMARK    1  A    between atoms: N_10  and  C_11
REMARK    2  A    between atoms: C_16  and  S_17
REMARK    3  A    between atoms: S_17  and  N_20
REMARK                            x       y       z     vdW  Elec       q    Type
REMARK                         _______ _______ _______ _____ _____    ______ ____
ROOT
ATOM      1  C   UNL     1       2.034   6.558  20.038  0.00  0.00    +0.000 A 
ATOM      2  C   UNL     1       1.407   5.581  20.817  0.00  0.00    +0.000 A 
ATOM      3  C   UNL     1       1.798   4.234  20.745  0.00  0.00    +0.000 A 
ATOM      4  C   UNL     1       2.852   3.832  19.919  0.00  0.00    +0.000 A 
ATOM      5 CL   UNL     1       3.232   2.152  19.898  0.00  0.00    +0.000 Cl
ATOM      6  C   UNL     1       3.520   4.796  19.171  0.00  0.00    +0.000 A 
ATOM      7  C   UNL     1       3.099   6.140  19.216  0.00  0.00    +0.000 A 
ENDROOT
BRANCH   1  17
ATOM      8  O   UNL     1       1.889   8.571  17.789  0.00  0.00    +0.000 OA
ATOM      9  C   UNL     1       1.598   8.796  18.955  0.00  0.00    +0.000 A 
ATOM     10  C   UNL     1       1.134  10.143  19.364  0.00  0.00    +0.000 A 
ATOM     11  C   UNL     1       0.956  11.244  18.534  0.00  0.00    +0.000 A 
ATOM     12  C   UNL     1       0.509  12.441  19.103  0.00  0.00    +0.000 A 
ATOM     13  C   UNL     1       0.258  12.523  20.480  0.00  0.00    +0.000 A 
ATOM     14  C   UNL     1       0.435  11.406  21.301  0.00  0.00    +0.000 A 
ATOM     15  C   UNL     1       0.861  10.218  20.724  0.00  0.00    +0.000 A 
ATOM     16  S   UNL     1       1.100   8.673  21.531  0.00  0.00    +0.000 S 
ATOM     17  N   UNL     1       1.600   7.922  20.053  0.00  0.00    +0.000 N 
ENDBRANCH   1  17
BRANCH   6  18
ATOM     18  S   UNL     1       4.881   4.387  18.107  0.00  0.00    +0.000 S 
ATOM     19  O   UNL     1       6.064   4.281  18.932  0.00  0.00    +0.000 OA
ATOM     20  O   UNL     1       4.472   3.266  17.289  0.00  0.00    +0.000 OA
BRANCH  18  21
ATOM     21  N   UNL     1       5.056   5.721  17.063  0.00  0.00    +0.000 NA
ATOM     22  C   UNL     1       5.255   5.455  15.606  0.00  0.00    +0.000 C 
ATOM     23  C   UNL     1       6.712   5.101  15.278  0.00  0.00    +0.000 C 
ATOM     24  O   UNL     1       7.619   6.112  15.739  0.00  0.00    +0.000 OA
ATOM     25  C   UNL     1       7.486   6.335  17.152  0.00  0.00    +0.000 C 
ATOM     26  C   UNL     1       6.055   6.745  17.518  0.00  0.00    +0.000 C 
ENDBRANCH  18  21
ENDBRANCH   6  18
TORSDOF 3
ENDMDL
MODEL 3
REMARK VINA RESULT:      -8.1      2.551      4.055
REMARK  Name = 
REMARK  3 active torsions:
REMARK  status: ('A' for Active; 'I' for Inactive)
REMARK    1  A    between atoms: N_10  and  C_11
REMARK    2  A    between atoms: C_16  and  S_17
REMARK    3  A    between atoms: S_17  and  N_20
REMARK                            x       y       z     vdW  Elec       q    Type
REMARK                         _______ _______ _______ _____ _____    ______ ____
ROOT
ATOM      1  C   UNL     1       2.201   7.979  19.114  0.00  0.00    +0.000 A 
ATOM      2  C   UNL     1       2.644   8.458  17.877  0.00  0.00    +0.000 A 
ATOM      3  C   UNL     1       3.560   7.729  17.102  0.00  0.00    +0.000 A 
ATOM      4  C   UNL     1       4.031   6.483  17.524  0.00  0.00    +0.000 A 
ATOM      5 CL   UNL     1       5.165   5.688  16.500  0.00  0.00    +0.000 Cl
ATOM      6  C   UNL     1       3.567   5.966  18.729  0.00  0.00    +0.000 A 
ATOM      7  C   UNL     1       2.678   6.719  19.523  0.00  0.00    +0.000 A 
ENDROOT
BRANCH   1  17
ATOM      8  O   UNL     1       0.556  10.427  18.455  0.00  0.00    +0.000 OA
ATOM      9  C   UNL     1       0.617   9.894  19.555  0.00  0.00    +0.000 A 
ATOM     10  C   UNL     1      -0.150  10.445  20.698  0.00  0.00    +0.000 A 
ATOM     11  C   UNL     1      -0.999  11.546  20.670  0.00  0.00    +0.000 A 
ATOM     12  C   UNL     1      -1.639  11.921  21.855  0.00  0.00    +0.000 A 
ATOM     13  C   UNL     1      -1.418  11.206  23.041  0.00  0.00    +0.000 A 
ATOM     14  C   UNL     1      -0.567  10.097  23.051  0.00  0.00    +0.000 A 
ATOM     15  C   UNL     1       0.050   9.721  21.867  0.00  0.00    +0.000 A 
ATOM     16  S   UNL     1       1.110   8.340  21.615  0.00  0.00    +0.000 S 
ATOM     17  N   UNL     1       1.320   8.743  19.943  0.00  0.00    +0.000 N 
ENDBRANCH   1  17
BRANCH   6  18
ATOM     18  S   UNL     1       4.093   4.385  19.341  0.00  0.00    +0.000 S 
ATOM     19  O   UNL     1       5.539   4.362  19.309  0.00  0.00    +0.000 OA
ATOM     20  O   UNL     1       3.398   4.147  20.587  0.00  0.00    +0.000 OA
BRANCH  18  21
ATOM     21  N   UNL     1       3.500   3.247  18.221  0.00  0.00    +0.000 NA
ATOM     22  C   UNL     1       2.312   3.623  17.397  0.00  0.00    +0.000 C 
ATOM     23  C   UNL     1       0.996   3.443  18.165  0.00  0.00    +0.000 C 
ATOM     24  O   UNL     1       0.859   2.110  18.676  0.00  0.00    +0.000 OA
ATOM     25  C   UNL     1       1.962   1.755  19.524  0.00  0.00    +0.000 C 
ATOM     26  C   UNL     1       3.297   1.867  18.778  0.00  0.00    +0.000 C 
ENDBRANCH  18  21
ENDBRANCH   6  18
TORSDOF 3
ENDMDL
MODEL 4
REMARK VINA RESULT:      -8.0      2.916      4.265
REMARK  Name = 
REMARK  3 active torsions:
REMARK  status: ('A' for Active; 'I' for Inactive)
REMARK    1  A    between atoms: N_10  and  C_11
REMARK    2  A    between atoms: C_16  and  S_17
REMARK    3  A    between atoms: S_17  and  N_20
REMARK                            x       y       z     vdW  Elec       q    Type
REMARK                         _______ _______ _______ _____ _____    ______ ____
ROOT
ATOM      1  C   UNL     1       1.415   8.986  19.314  0.00  0.00    +0.000 A 
ATOM      2  C   UNL     1       1.934   9.492  18.118  0.00  0.00    +0.000 A 
ATOM      3  C   UNL     1       2.880   8.770  17.374  0.00  0.00    +0.000 A 
ATOM      4  C   UNL     1       3.306   7.503  17.784  0.00  0.00    +0.000 A 
ATOM      5 CL   UNL     1       4.482   6.718  16.801  0.00  0.00    +0.000 Cl
ATOM      6  C   UNL     1       2.767   6.961  18.946  0.00  0.00    +0.000 A 
ATOM      7  C   UNL     1       1.848   7.706  19.711  0.00  0.00    +0.000 A 
ENDROOT
BRANCH   1  17
ATOM      8  O   UNL     1      -0.620  11.065  18.496  0.00  0.00    +0.000 OA
ATOM      9  C   UNL     1      -0.392  10.717  19.647  0.00  0.00    +0.000 A 
ATOM     10  C   UNL     1      -1.135  11.326  20.775  0.00  0.00    +0.000 A 
ATOM     11  C   UNL     1      -2.136  12.287  20.683  0.00  0.00    +0.000 A 
ATOM     12  C   UNL     1      -2.726  12.747  21.864  0.00  0.00    +0.000 A 
ATOM     13  C   UNL     1      -2.306  12.254  23.108  0.00  0.00    +0.000 A 
ATOM     14  C   UNL     1      -1.303  11.284  23.184  0.00  0.00    +0.000 A 
ATOM     15  C   UNL     1      -0.737  10.820  22.006  0.00  0.00    +0.000 A 
ATOM     16  S   UNL     1       0.491   9.571  21.839  0.00  0.00    +0.000 S 
ATOM     17  N   UNL     1       0.502   9.742  20.116  0.00  0.00    +0.000 N 
ENDBRANCH   1  17
BRANCH   6  18
ATOM     18  S   UNL     1       3.232   5.353  19.538  0.00  0.00    +0.000 S 
ATOM     19  O   UNL     1       4.671   5.341  19.687  0.00  0.00    +0.000 OA
ATOM     20  O   UNL     1       2.389   5.047  20.674  0.00  0.00    +0.000 OA
BRANCH  18  21
ATOM     21  N   UNL     1       2.798   4.271  18.297  0.00  0.00    +0.000 NA
ATOM     22  C   UNL     1       1.431   3.668  18.333  0.00  0.00    +0.000 C 
ATOM     23  C   UNL     1       1.350   2.478  19.298  0.00  0.00    +0.000 C 
ATOM     24  O   UNL     1       2.336   1.482  18.994  0.00  0.00    +0.000 OA
ATOM     25  C   UNL     1       3.663   2.030  19.020  0.00  0.00    +0.000 C 
ATOM     26  C   UNL     1       3.806   3.190  18.027  0.00  0.00    +0.000 C 
ENDBRANCH  18  21
ENDBRANCH   6  18
TORSDOF 3
ENDMDL
MODEL 5
REMARK VINA RESULT:      -7.9      2.832      4.101
REMARK  Name = 
REMARK  3 active torsions:
REMARK  status: ('A' for Active; 'I' for Inactive)
REMARK    1  A    between atoms: N_10  and  C_11
REMARK    2  A    between atoms: C_16  and  S_17
REMARK    3  A    between atoms: S_17  and  N_20
REMARK                            x       y       z     vdW  Elec       q    Type
REMARK                         _______ _______ _______ _____ _____    ______ ____
ROOT
ATOM      1  C   UNL     1       1.367   9.141  19.226  0.00  0.00    +0.000 A 
ATOM      2  C   UNL     1       1.936   9.600  18.035  0.00  0.00    +0.000 A 
ATOM      3  C   UNL     1       2.875   8.827  17.333  0.00  0.00    +0.000 A 
ATOM      4  C   UNL     1       3.243   7.555  17.783  0.00  0.00    +0.000 A 
ATOM      5 CL   UNL     1       4.415   6.705  16.851  0.00  0.00    +0.000 Cl
ATOM      6  C   UNL     1       2.654   7.060  18.942  0.00  0.00    +0.000 A 
ATOM      7  C   UNL     1       1.742   7.856  19.664  0.00  0.00    +0.000 A 
ENDROOT
BRANCH   1  17
ATOM      8  O   UNL     1       0.813   9.162  22.197  0.00  0.00    +0.000 OA
ATOM      9  C   UNL     1       0.247   9.864  21.370  0.00  0.00    +0.000 A 
ATOM     10  C   UNL     1      -0.804  10.819  21.792  0.00  0.00    +0.000 A 
ATOM     11  C   UNL     1      -1.241  11.047  23.093  0.00  0.00    +0.000 A 
ATOM     12  C   UNL     1      -2.251  11.992  23.299  0.00  0.00    +0.000 A 
ATOM     13  C   UNL     1      -2.812  12.682  22.214  0.00  0.00    +0.000 A 
ATOM     14  C   UNL     1      -2.358  12.446  20.914  0.00  0.00    +0.000 A 
ATOM     15  C   UNL     1      -1.343  11.520  20.721  0.00  0.00    +0.000 A 
ATOM     16  S   UNL     1      -0.570  11.096  19.199  0.00  0.00    +0.000 S 
ATOM     17  N   UNL     1       0.461   9.948  19.986  0.00  0.00    +0.000 N 
ENDBRANCH   1  17
BRANCH   6  18
ATOM     18  S   UNL     1       3.043   5.451  19.583  0.00  0.00    +0.000 S 
ATOM     19  O   UNL     1       4.479   5.379  19.738  0.00  0.00    +0.000 OA
ATOM     20  O   UNL     1       2.184   5.218  20.723  0.00  0.00    +0.000 OA
BRANCH  18  21
ATOM     21  N   UNL     1       2.564   4.354  18.372  0.00  0.00    +0.000 NA
ATOM     22  C   UNL     1       1.266   3.634  18.546  0.00  0.00    +0.000 C 
ATOM     23  C   UNL     1       1.397   2.427  19.485  0.00  0.00    +0.000 C 
ATOM     24  O   UNL     1       2.424   1.526  19.048  0.00  0.00    +0.000 OA
ATOM     25  C   UNL     1       3.694   2.187  18.937  0.00  0.00    +0.000 C 
ATOM     26  C   UNL     1       3.622   3.370  17.964  0.00  0.00    +0.000 C 
ENDBRANCH  18  21
ENDBRANCH   6  18
TORSDOF 3
ENDMDL
MODEL 6
REMARK VINA RESULT:      -7.7      2.320      3.850
REMARK  Name = 
REMARK  3 active torsions:
REMARK  status: ('A' for Active; 'I' for Inactive)
REMARK    1  A    between atoms: N_10  and  C_11
REMARK    2  A    between atoms: C_16  and  S_17
REMARK    3  A    between atoms: S_17  and  N_20
REMARK                            x       y       z     vdW  Elec       q    Type
REMARK                         _______ _______ _______ _____ _____    ______ ____
ROOT
ATOM      1  C   UNL     1       2.461   7.839  18.902  0.00  0.00    +0.000 A 
ATOM      2  C   UNL     1       2.902   8.265  17.645  0.00  0.00    +0.000 A 
ATOM      3  C   UNL     1       3.776   7.478  16.878  0.00  0.00    +0.000 A 
ATOM      4  C   UNL     1       4.203   6.226  17.328  0.00  0.00    +0.000 A 
ATOM      5 CL   UNL     1       5.287   5.357  16.310  0.00  0.00    +0.000 Cl
ATOM      6  C   UNL     1       3.738   5.763  18.555  0.00  0.00    +0.000 A 
ATOM      7  C   UNL     1       2.893   6.572  19.340  0.00  0.00    +0.000 A 
ENDROOT
BRANCH   1  17
ATOM      8  O   UNL     1       1.443   7.377  21.709  0.00  0.00    +0.000 OA
ATOM      9  C   UNL     1       1.174   8.347  21.013  0.00  0.00    +0.000 A 
ATOM     10  C   UNL     1       0.283   9.413  21.527  0.00  0.00    +0.000 A 
ATOM     11  C   UNL     1      -0.306   9.464  22.786  0.00  0.00    +0.000 A 
ATOM     12  C   UNL     1      -1.124  10.556  23.094  0.00  0.00    +0.000 A 
ATOM     13  C   UNL     1      -1.348  11.566  22.147  0.00  0.00    +0.000 A 
ATOM     14  C   UNL     1      -0.745  11.504  20.888  0.00  0.00    +0.000 A 
ATOM     15  C   UNL     1       0.080  10.426  20.599  0.00  0.00    +0.000 A 
ATOM     16  S   UNL     1       0.990  10.155  19.118  0.00  0.00    +0.000 S 
ATOM     17  N   UNL     1       1.625   8.662  19.722  0.00  0.00    +0.000 N 
ENDBRANCH   1  17
BRANCH   6  18
ATOM     18  S   UNL     1       4.210   4.178  19.203  0.00  0.00    +0.000 S 
ATOM     19  O   UNL     1       5.651   4.083  19.120  0.00  0.00    +0.000 OA
ATOM     20  O   UNL     1       3.551   4.019  20.481  0.00  0.00    +0.000 OA
BRANCH  18  21
ATOM     21  N   UNL     1       3.520   3.034  18.147  0.00  0.00    +0.000 NA
ATOM     22  C   UNL     1       2.356   3.457  17.312  0.00  0.00    +0.000 C 
ATOM     23  C   UNL     1       1.038   3.417  18.097  0.00  0.00    +0.000 C 
ATOM     24  O   UNL     1       0.806   2.126  18.677  0.00  0.00    +0.000 OA
ATOM     25  C   UNL     1       1.888   1.731  19.535  0.00  0.00    +0.000 C 
ATOM     26  C   UNL     1       3.219   1.704  18.775  0.00  0.00    +0.000 C 
ENDBRANCH  18  21
ENDBRANCH   6  18
TORSDOF 3
ENDMDL
MODEL 7
REMARK VINA RESULT:      -7.6      1.663      2.099
REMARK  Name = 
REMARK  3 active torsions:
REMARK  status: ('A' for Active; 'I' for Inactive)
REMARK    1  A    between atoms: N_10  and  C_11
REMARK    2  A    between atoms: C_16  and  S_17
REMARK    3  A    between atoms: S_17  and  N_20
REMARK                            x       y       z     vdW  Elec       q    Type
REMARK                         _______ _______ _______ _____ _____    ______ ____
ROOT
ATOM      1  C   UNL     1       2.360   6.743  19.933  0.00  0.00    +0.000 A 
ATOM      2  C   UNL     1       1.783   5.565  20.416  0.00  0.00    +0.000 A 
ATOM      3  C   UNL     1       2.437   4.329  20.285  0.00  0.00    +0.000 A 
ATOM      4  C   UNL     1       3.704   4.243  19.701  0.00  0.00    +0.000 A 
ATOM      5 CL   UNL     1       4.402   2.673  19.578  0.00  0.00    +0.000 Cl
ATOM      6  C   UNL     1       4.316   5.409  19.256  0.00  0.00    +0.000 A 
ATOM      7  C   UNL     1       3.639   6.642  19.353  0.00  0.00    +0.000 A 
ENDROOT
BRANCH   1  17
ATOM      8  O   UNL     1       1.810   8.770  17.760  0.00  0.00    +0.000 OA
ATOM      9  C   UNL     1       1.493   8.894  18.935  0.00  0.00    +0.000 A 
ATOM     10  C   UNL     1       0.785  10.111  19.396  0.00  0.00    +0.000 A 
ATOM     11  C   UNL     1       0.391  11.187  18.607  0.00  0.00    +0.000 A 
ATOM     12  C   UNL     1      -0.270  12.255  19.222  0.00  0.00    +0.000 A 
ATOM     13  C   UNL     1      -0.517  12.239  20.602  0.00  0.00    +0.000 A 
ATOM     14  C   UNL     1      -0.121  11.148  21.380  0.00  0.00    +0.000 A 
ATOM     15  C   UNL     1       0.518  10.085  20.758  0.00  0.00    +0.000 A 
ATOM     16  S   UNL     1       1.056   8.586  21.507  0.00  0.00    +0.000 S 
ATOM     17  N   UNL     1       1.674   7.998  20.000  0.00  0.00    +0.000 N 
ENDBRANCH   1  17
BRANCH   6  18
ATOM     18  S   UNL     1       5.930   5.403  18.517  0.00  0.00    +0.000 S 
ATOM     19  O   UNL     1       6.207   6.748  18.060  0.00  0.00    +0.000 OA
ATOM     20  O   UNL     1       6.832   4.760  19.447  0.00  0.00    +0.000 OA
BRANCH  18  21
ATOM     21  N   UNL     1       5.804   4.377  17.163  0.00  0.00    +0.000 NA
ATOM     22  C   UNL     1       7.050   4.055  16.404  0.00  0.00    +0.000 C 
ATOM     23  C   UNL     1       7.437   5.174  15.428  0.00  0.00    +0.000 C 
ATOM     24  O   UNL     1       6.362   5.489  14.531  0.00  0.00    +0.000 OA
ATOM     25  C   UNL     1       5.174   5.865  15.245  0.00  0.00    +0.000 C 
ATOM     26  C   UNL     1       4.719   4.750  16.194  0.00  0.00    +0.000 C 
ENDBRANCH  18  21
ENDBRANCH   6  18
TORSDOF 3
ENDMDL
MODEL 8
REMARK VINA RESULT:      -7.5      4.245      8.289
REMARK  Name = 
REMARK  3 active torsions:
REMARK  status: ('A' for Active; 'I' for Inactive)
REMARK    1  A    between atoms: N_10  and  C_11
REMARK    2  A    between atoms: C_16  and  S_17
REMARK    3  A    between atoms: S_17  and  N_20
REMARK                            x       y       z     vdW  Elec       q    Type
REMARK                         _______ _______ _______ _____ _____    ______ ____
ROOT
ATOM      1  C   UNL     1       1.029   8.984  20.084  0.00  0.00    +0.000 A 
ATOM      2  C   UNL     1       1.054   9.214  21.463  0.00  0.00    +0.000 A 
ATOM      3  C   UNL     1       0.224  10.180  22.052  0.00  0.00    +0.000 A 
ATOM      4  C   UNL     1      -0.682  10.918  21.285  0.00  0.00    +0.000 A 
ATOM      5 CL   UNL     1      -1.637  12.087  22.114  0.00  0.00    +0.000 Cl
ATOM      6  C   UNL     1      -0.756  10.672  19.918  0.00  0.00    +0.000 A 
ATOM      7  C   UNL     1       0.107   9.729  19.324  0.00  0.00    +0.000 A 
ENDROOT
BRANCH   1  17
ATOM      8  O   UNL     1       2.577   9.207  17.498  0.00  0.00    +0.000 OA
ATOM      9  C   UNL     1       2.573   8.230  18.234  0.00  0.00    +0.000 A 
ATOM     10  C   UNL     1       3.365   7.027  17.887  0.00  0.00    +0.000 A 
ATOM     11  C   UNL     1       4.180   6.867  16.771  0.00  0.00    +0.000 A 
ATOM     12  C   UNL     1       4.854   5.653  16.608  0.00  0.00    +0.000 A 
ATOM     13  C   UNL     1       4.699   4.621  17.546  0.00  0.00    +0.000 A 
ATOM     14  C   UNL     1       3.880   4.799  18.665  0.00  0.00    +0.000 A 
ATOM     15  C   UNL     1       3.231   6.014  18.828  0.00  0.00    +0.000 A 
ATOM     16  S   UNL     1       2.202   6.495  20.172  0.00  0.00    +0.000 S 
ATOM     17  N   UNL     1       1.918   8.050  19.462  0.00  0.00    +0.000 N 
ENDBRANCH   1  17
BRANCH   6  18
ATOM     18  S   UNL     1      -1.887  11.544  18.864  0.00  0.00    +0.000 S 
ATOM     19  O   UNL     1      -2.787  12.293  19.713  0.00  0.00    +0.000 OA
ATOM     20  O   UNL     1      -1.103  12.233  17.862  0.00  0.00    +0.000 OA
BRANCH  18  21
ATOM     21  N   UNL     1      -2.773  10.336  18.053  0.00  0.00    +0.000 NA
ATOM     22  C   UNL     1      -2.302   9.904  16.702  0.00  0.00    +0.000 C 
ATOM     23  C   UNL     1      -2.750  10.870  15.598  0.00  0.00    +0.000 C 
ATOM     24  O   UNL     1      -4.172  11.059  15.605  0.00  0.00    +0.000 OA
ATOM     25  C   UNL     1      -4.634  11.538  16.877  0.00  0.00    +0.000 C 
ATOM     26  C   UNL     1      -4.255  10.572  18.006  0.00  0.00    +0.000 C 
ENDBRANCH  18  21
ENDBRANCH   6  18
TORSDOF 3
ENDMDL
MODEL 9
REMARK VINA RESULT:      -7.5      1.285      1.521
REMARK  Name = 
REMARK  3 active torsions:
REMARK  status: ('A' for Active; 'I' for Inactive)
REMARK    1  A    between atoms: N_10  and  C_11
REMARK    2  A    between atoms: C_16  and  S_17
REMARK    3  A    between atoms: S_17  and  N_20
REMARK                            x       y       z     vdW  Elec       q    Type
REMARK                         _______ _______ _______ _____ _____    ______ ____
ROOT
ATOM      1  C   UNL     1       2.405   6.851  19.766  0.00  0.00    +0.000 A 
ATOM      2  C   UNL     1       1.820   5.706  20.316  0.00  0.00    +0.000 A 
ATOM      3  C   UNL     1       2.474   4.465  20.273  0.00  0.00    +0.000 A 
ATOM      4  C   UNL     1       3.749   4.340  19.714  0.00  0.00    +0.000 A 
ATOM      5 CL   UNL     1       4.447   2.766  19.702  0.00  0.00    +0.000 Cl
ATOM      6  C   UNL     1       4.369   5.476  19.204  0.00  0.00    +0.000 A 
ATOM      7  C   UNL     1       3.693   6.712  19.213  0.00  0.00    +0.000 A 
ENDROOT
BRANCH   1  17
ATOM      8  O   UNL     1       1.126   8.403  22.021  0.00  0.00    +0.000 OA
ATOM      9  C   UNL     1       1.126   8.740  20.845  0.00  0.00    +0.000 A 
ATOM     10  C   UNL     1       0.461   9.997  20.427  0.00  0.00    +0.000 A 
ATOM     11  C   UNL     1      -0.184  10.908  21.257  0.00  0.00    +0.000 A 
ATOM     12  C   UNL     1      -0.759  12.044  20.678  0.00  0.00    +0.000 A 
ATOM     13  C   UNL     1      -0.690  12.248  19.292  0.00  0.00    +0.000 A 
ATOM     14  C   UNL     1      -0.033  11.327  18.472  0.00  0.00    +0.000 A 
ATOM     15  C   UNL     1       0.550  10.212  19.058  0.00  0.00    +0.000 A 
ATOM     16  S   UNL     1       1.474   8.951  18.251  0.00  0.00    +0.000 S 
ATOM     17  N   UNL     1       1.720   8.107  19.743  0.00  0.00    +0.000 N 
ENDBRANCH   1  17
BRANCH   6  18
ATOM     18  S   UNL     1       5.994   5.422  18.489  0.00  0.00    +0.000 S 
ATOM     19  O   UNL     1       6.305   6.752  18.011  0.00  0.00    +0.000 OA
ATOM     20  O   UNL     1       6.868   4.778  19.445  0.00  0.00    +0.000 OA
BRANCH  18  21
ATOM     21  N   UNL     1       5.866   4.373  17.154  0.00  0.00    +0.000 NA
ATOM     22  C   UNL     1       7.106   4.059  16.382  0.00  0.00    +0.000 C 
ATOM     23  C   UNL     1       7.461   5.169  15.383  0.00  0.00    +0.000 C 
ATOM     24  O   UNL     1       6.369   5.452  14.497  0.00  0.00    +0.000 OA
ATOM     25  C   UNL     1       5.184   5.819  15.221  0.00  0.00    +0.000 C 
ATOM     26  C   UNL     1       4.761   4.713  16.195  0.00  0.00    +0.000 C 
ENDBRANCH  18  21
ENDBRANCH   6  18
TORSDOF 3
ENDMDL
