MODEL 1
REMARK VINA RESULT:      -6.5      0.000      0.000
REMARK  Name = 
REMARK  15 active torsions:
REMARK  status: ('A' for Active; 'I' for Inactive)
REMARK    1  A    between atoms: N_1  and  C_2
REMARK    2  A    between atoms: C_6  and  C_7
REMARK    3  A    between atoms: C_7  and  O_8
REMARK    4  A    between atoms: C_7  and  C_9
REMARK    5  A    between atoms: C_9  and  N_10
REMARK    6  A    between atoms: N_10  and  C_11
REMARK    7  A    between atoms: C_11  and  C_12
REMARK    8  A    between atoms: C_12  and  C_13
REMARK    9  A    between atoms: C_13  and  C_14
REMARK   10  A    between atoms: C_14  and  C_15
REMARK   11  A    between atoms: C_15  and  C_16
REMARK   12  A    between atoms: C_16  and  O_17
REMARK   13  A    between atoms: O_17  and  C_18
REMARK   14  A    between atoms: C_18  and  C_19
REMARK   15  A    between atoms: C_19  and  C_20
REMARK                            x       y       z     vdW  Elec       q    Type
REMARK                         _______ _______ _______ _____ _____    ______ ____
ROOT
ATOM      1  N   UNL     1       2.090   3.449  20.510  0.00  0.00    +0.000 NA
ATOM      2  H   UNL     1       1.974   3.640  21.507  0.00  0.00    +0.000 HD
ENDROOT
BRANCH   1   3
ATOM      3  C   UNL     1       3.519   3.307  20.203  0.00  0.00    +0.000 C 
BRANCH   3   4
ATOM      4  C   UNL     1       3.774   2.809  18.759  0.00  0.00    +0.000 C 
BRANCH   4   9
ATOM      5  C   UNL     1       6.684   5.333  16.713  0.00  0.00    +0.000 A 
ATOM      6  C   UNL     1       5.653   4.695  15.999  0.00  0.00    +0.000 A 
ATOM      7 CL   UNL     1       5.526   4.890  14.283  0.00  0.00    +0.000 Cl
ATOM      8  C   UNL     1       4.722   3.873  16.641  0.00  0.00    +0.000 A 
ATOM      9  C   UNL     1       4.773   3.688  18.039  0.00  0.00    +0.000 A 
ATOM     10  C   UNL     1       5.785   4.352  18.756  0.00  0.00    +0.000 A 
ATOM     11  C   UNL     1       6.711   5.164  18.105  0.00  0.00    +0.000 A 
ATOM     12 CL   UNL     1       7.922   5.952  19.050  0.00  0.00    +0.000 Cl
BRANCH   5  13
ATOM     13  N   UNL     1       7.528   6.282  16.103  0.00  0.00    +0.000 N 
ATOM     14  H   UNL     1       7.855   5.982  15.187  0.00  0.00    +0.000 HD
ATOM     15  H   UNL     1       8.267   6.624  16.713  0.00  0.00    +0.000 HD
ENDBRANCH   5  13
ENDBRANCH   4   9
BRANCH   4  16
ATOM     16  O   UNL     1       4.276   1.470  18.787  0.00  0.00    +0.000 OA
ATOM     17  H   UNL     1       5.016   1.414  18.164  0.00  0.00    +0.000 HD
ENDBRANCH   4  16
ENDBRANCH   3   4
ENDBRANCH   1   3
BRANCH   1  18
ATOM     18  C   UNL     1       1.535   4.531  19.705  0.00  0.00    +0.000 C 
BRANCH  18  19
ATOM     19  C   UNL     1       1.597   5.834  20.483  0.00  0.00    +0.000 C 
BRANCH  19  20
ATOM     20  C   UNL     1       2.589   6.781  19.819  0.00  0.00    +0.000 C 
BRANCH  20  21
ATOM     21  C   UNL     1       2.499   6.648  18.310  0.00  0.00    +0.000 C 
BRANCH  21  22
ATOM     22  C   UNL     1       2.837   7.964  17.628  0.00  0.00    +0.000 C 
BRANCH  22  23
ATOM     23  C   UNL     1       1.635   8.882  17.683  0.00  0.00    +0.000 C 
BRANCH  23  24
ATOM     24  O   UNL     1       2.077  10.223  17.870  0.00  0.00    +0.000 OA
BRANCH  24  25
ATOM     25  C   UNL     1       1.524  10.743  19.083  0.00  0.00    +0.000 C 
BRANCH  25  26
ATOM     26  C   UNL     1       0.124  10.186  19.275  0.00  0.00    +0.000 C 
BRANCH  26  27
ATOM     27  C   UNL     1      -0.394  10.495  20.654  0.00  0.00    +0.000 A 
ATOM     28  C   UNL     1      -1.119  11.657  20.887  0.00  0.00    +0.000 A 
ATOM     29  C   UNL     1      -1.580  11.916  22.174  0.00  0.00    +0.000 A 
ATOM     30  C   UNL     1      -1.308  11.009  23.190  0.00  0.00    +0.000 A 
ATOM     31  C   UNL     1      -0.577   9.877  22.876  0.00  0.00    +0.000 A 
ATOM     32  N   UNL     1      -0.116   9.601  21.637  0.00  0.00    +0.000 NA
ENDBRANCH  26  27
ENDBRANCH  25  26
ENDBRANCH  24  25
ENDBRANCH  23  24
ENDBRANCH  22  23
ENDBRANCH  21  22
ENDBRANCH  20  21
ENDBRANCH  19  20
ENDBRANCH  18  19
ENDBRANCH   1  18
TORSDOF 15
ENDMDL
MODEL 2
REMARK VINA RESULT:      -6.3      0.923      2.143
REMARK  Name = 
REMARK  15 active torsions:
REMARK  status: ('A' for Active; 'I' for Inactive)
REMARK    1  A    between atoms: N_1  and  C_2
REMARK    2  A    between atoms: C_6  and  C_7
REMARK    3  A    between atoms: C_7  and  O_8
REMARK    4  A    between atoms: C_7  and  C_9
REMARK    5  A    between atoms: C_9  and  N_10
REMARK    6  A    between atoms: N_10  and  C_11
REMARK    7  A    between atoms: C_11  and  C_12
REMARK    8  A    between atoms: C_12  and  C_13
REMARK    9  A    between atoms: C_13  and  C_14
REMARK   10  A    between atoms: C_14  and  C_15
REMARK   11  A    between atoms: C_15  and  C_16
REMARK   12  A    between atoms: C_16  and  O_17
REMARK   13  A    between atoms: O_17  and  C_18
REMARK   14  A    between atoms: C_18  and  C_19
REMARK   15  A    between atoms: C_19  and  C_20
REMARK                            x       y       z     vdW  Elec       q    Type
REMARK                         _______ _______ _______ _____ _____    ______ ____
ROOT
ATOM      1  N   UNL     1       2.469   2.628  21.137  0.00  0.00    +0.000 NA
ATOM      2  H   UNL     1       2.586   2.476  22.141  0.00  0.00    +0.000 HD
ENDROOT
BRANCH   1   3
ATOM      3  C   UNL     1       3.786   2.795  20.511  0.00  0.00    +0.000 C 
BRANCH   3   4
ATOM      4  C   UNL     1       3.773   2.475  18.995  0.00  0.00    +0.000 C 
BRANCH   4   9
ATOM      5  C   UNL     1       6.438   5.102  16.753  0.00  0.00    +0.000 A 
ATOM      6  C   UNL     1       6.489   5.052  18.159  0.00  0.00    +0.000 A 
ATOM      7 CL   UNL     1       7.607   6.045  19.031  0.00  0.00    +0.000 Cl
ATOM      8  C   UNL     1       5.631   4.224  18.889  0.00  0.00    +0.000 A 
ATOM      9  C   UNL     1       4.708   3.386  18.229  0.00  0.00    +0.000 A 
ATOM     10  C   UNL     1       4.680   3.414  16.823  0.00  0.00    +0.000 A 
ATOM     11  C   UNL     1       5.535   4.247  16.105  0.00  0.00    +0.000 A 
ATOM     12 CL   UNL     1       5.449   4.225  14.380  0.00  0.00    +0.000 Cl
BRANCH   5  13
ATOM     13  N   UNL     1       7.397   5.811  16.005  0.00  0.00    +0.000 N 
ATOM     14  H   UNL     1       7.545   6.756  16.354  0.00  0.00    +0.000 HD
ATOM     15  H   UNL     1       7.250   5.762  14.999  0.00  0.00    +0.000 HD
ENDBRANCH   5  13
ENDBRANCH   4   9
BRANCH   4  16
ATOM     16  O   UNL     1       4.174   1.120  18.780  0.00  0.00    +0.000 OA
ATOM     17  H   UNL     1       3.832   0.585  19.513  0.00  0.00    +0.000 HD
ENDBRANCH   4  16
ENDBRANCH   3   4
ENDBRANCH   1   3
BRANCH   1  18
ATOM     18  C   UNL     1       1.664   3.817  20.880  0.00  0.00    +0.000 C 
BRANCH  18  19
ATOM     19  C   UNL     1       0.735   3.564  19.705  0.00  0.00    +0.000 C 
BRANCH  19  20
ATOM     20  C   UNL     1       1.180   4.399  18.512  0.00  0.00    +0.000 C 
BRANCH  20  21
ATOM     21  C   UNL     1       1.766   5.714  18.991  0.00  0.00    +0.000 C 
BRANCH  21  22
ATOM     22  C   UNL     1       2.772   6.258  17.990  0.00  0.00    +0.000 C 
BRANCH  22  23
ATOM     23  C   UNL     1       2.961   7.742  18.222  0.00  0.00    +0.000 C 
BRANCH  23  24
ATOM     24  O   UNL     1       1.824   8.443  17.728  0.00  0.00    +0.000 OA
BRANCH  24  25
ATOM     25  C   UNL     1       1.760   9.738  18.334  0.00  0.00    +0.000 C 
BRANCH  25  26
ATOM     26  C   UNL     1       0.331  10.017  18.770  0.00  0.00    +0.000 C 
BRANCH  26  27
ATOM     27  C   UNL     1       0.207   9.970  20.269  0.00  0.00    +0.000 A 
ATOM     28  C   UNL     1      -0.724  10.771  20.920  0.00  0.00    +0.000 A 
ATOM     29  C   UNL     1      -0.812  10.708  22.307  0.00  0.00    +0.000 A 
ATOM     30  C   UNL     1       0.028   9.850  23.004  0.00  0.00    +0.000 A 
ATOM     31  C   UNL     1       0.930   9.089  22.282  0.00  0.00    +0.000 A 
ATOM     32  N   UNL     1       1.038   9.130  20.937  0.00  0.00    +0.000 NA
ENDBRANCH  26  27
ENDBRANCH  25  26
ENDBRANCH  24  25
ENDBRANCH  23  24
ENDBRANCH  22  23
ENDBRANCH  21  22
ENDBRANCH  20  21
ENDBRANCH  19  20
ENDBRANCH  18  19
ENDBRANCH   1  18
TORSDOF 15
ENDMDL
MODEL 3
REMARK VINA RESULT:      -6.3      3.495      8.425
REMARK  Name = 
REMARK  15 active torsions:
REMARK  status: ('A' for Active; 'I' for Inactive)
REMARK    1  A    between atoms: N_1  and  C_2
REMARK    2  A    between atoms: C_6  and  C_7
REMARK    3  A    between atoms: C_7  and  O_8
REMARK    4  A    between atoms: C_7  and  C_9
REMARK    5  A    between atoms: C_9  and  N_10
REMARK    6  A    between atoms: N_10  and  C_11
REMARK    7  A    between atoms: C_11  and  C_12
REMARK    8  A    between atoms: C_12  and  C_13
REMARK    9  A    between atoms: C_13  and  C_14
REMARK   10  A    between atoms: C_14  and  C_15
REMARK   11  A    between atoms: C_15  and  C_16
REMARK   12  A    between atoms: C_16  and  O_17
REMARK   13  A    between atoms: O_17  and  C_18
REMARK   14  A    between atoms: C_18  and  C_19
REMARK   15  A    between atoms: C_19  and  C_20
REMARK                            x       y       z     vdW  Elec       q    Type
REMARK                         _______ _______ _______ _____ _____    ______ ____
ROOT
ATOM      1  N   UNL     1       2.038   7.601  21.435  0.00  0.00    +0.000 NA
ATOM      2  H   UNL     1       2.220   6.927  22.181  0.00  0.00    +0.000 HD
ENDROOT
BRANCH   1   3
ATOM      3  C   UNL     1       0.772   8.294  21.700  0.00  0.00    +0.000 C 
BRANCH   3   4
ATOM      4  C   UNL     1       0.958   9.815  21.924  0.00  0.00    +0.000 C 
BRANCH   4   9
ATOM      5  C   UNL     1      -0.450  12.146  18.516  0.00  0.00    +0.000 A 
ATOM      6  C   UNL     1      -0.763  10.780  18.634  0.00  0.00    +0.000 A 
ATOM      7 CL   UNL     1      -1.707   9.989  17.417  0.00  0.00    +0.000 Cl
ATOM      8  C   UNL     1      -0.306  10.018  19.715  0.00  0.00    +0.000 A 
ATOM      9  C   UNL     1       0.458  10.615  20.740  0.00  0.00    +0.000 A 
ATOM     10  C   UNL     1       0.743  11.988  20.637  0.00  0.00    +0.000 A 
ATOM     11  C   UNL     1       0.288  12.736  19.553  0.00  0.00    +0.000 A 
ATOM     12 CL   UNL     1       0.672  14.419  19.494  0.00  0.00    +0.000 Cl
BRANCH   5  13
ATOM     13  N   UNL     1      -1.031  12.953  17.519  0.00  0.00    +0.000 N 
ATOM     14  H   UNL     1      -0.415  13.704  17.214  0.00  0.00    +0.000 HD
ATOM     15  H   UNL     1      -1.976  13.260  17.740  0.00  0.00    +0.000 HD
ENDBRANCH   5  13
ENDBRANCH   4   9
BRANCH   4  16
ATOM     16  O   UNL     1       0.243  10.228  23.091  0.00  0.00    +0.000 OA
ATOM     17  H   UNL     1       0.240   9.489  23.719  0.00  0.00    +0.000 HD
ENDBRANCH   4  16
ENDBRANCH   3   4
ENDBRANCH   1   3
BRANCH   1  18
ATOM     18  C   UNL     1       1.956   6.935  20.140  0.00  0.00    +0.000 C 
BRANCH  18  19
ATOM     19  C   UNL     1       2.793   5.668  20.160  0.00  0.00    +0.000 C 
BRANCH  19  20
ATOM     20  C   UNL     1       2.095   4.606  21.000  0.00  0.00    +0.000 C 
BRANCH  20  21
ATOM     21  C   UNL     1       0.902   4.052  20.243  0.00  0.00    +0.000 C 
BRANCH  21  22
ATOM     22  C   UNL     1       1.089   2.573  19.941  0.00  0.00    +0.000 C 
BRANCH  22  23
ATOM     23  C   UNL     1       1.741   2.416  18.583  0.00  0.00    +0.000 C 
BRANCH  23  24
ATOM     24  O   UNL     1       3.149   2.288  18.751  0.00  0.00    +0.000 OA
BRANCH  24  25
ATOM     25  C   UNL     1       3.801   2.493  17.494  0.00  0.00    +0.000 C 
BRANCH  25  26
ATOM     26  C   UNL     1       3.519   3.904  17.008  0.00  0.00    +0.000 C 
BRANCH  26  27
ATOM     27  C   UNL     1       4.774   4.737  17.017  0.00  0.00    +0.000 A 
ATOM     28  C   UNL     1       4.700   6.112  17.203  0.00  0.00    +0.000 A 
ATOM     29  C   UNL     1       5.877   6.854  17.202  0.00  0.00    +0.000 A 
ATOM     30  C   UNL     1       7.091   6.206  17.017  0.00  0.00    +0.000 A 
ATOM     31  C   UNL     1       7.077   4.835  16.834  0.00  0.00    +0.000 A 
ATOM     32  N   UNL     1       5.952   4.089  16.829  0.00  0.00    +0.000 NA
ENDBRANCH  26  27
ENDBRANCH  25  26
ENDBRANCH  24  25
ENDBRANCH  23  24
ENDBRANCH  22  23
ENDBRANCH  21  22
ENDBRANCH  20  21
ENDBRANCH  19  20
ENDBRANCH  18  19
ENDBRANCH   1  18
TORSDOF 15
ENDMDL
MODEL 4
REMARK VINA RESULT:      -6.2      3.485      8.235
REMARK  Name = 
REMARK  15 active torsions:
REMARK  status: ('A' for Active; 'I' for Inactive)
REMARK    1  A    between atoms: N_1  and  C_2
REMARK    2  A    between atoms: C_6  and  C_7
REMARK    3  A    between atoms: C_7  and  O_8
REMARK    4  A    between atoms: C_7  and  C_9
REMARK    5  A    between atoms: C_9  and  N_10
REMARK    6  A    between atoms: N_10  and  C_11
REMARK    7  A    between atoms: C_11  and  C_12
REMARK    8  A    between atoms: C_12  and  C_13
REMARK    9  A    between atoms: C_13  and  C_14
REMARK   10  A    between atoms: C_14  and  C_15
REMARK   11  A    between atoms: C_15  and  C_16
REMARK   12  A    between atoms: C_16  and  O_17
REMARK   13  A    between atoms: O_17  and  C_18
REMARK   14  A    between atoms: C_18  and  C_19
REMARK   15  A    between atoms: C_19  and  C_20
REMARK                            x       y       z     vdW  Elec       q    Type
REMARK                         _______ _______ _______ _____ _____    ______ ____
ROOT
ATOM      1  N   UNL     1       1.969   6.617  21.025  0.00  0.00    +0.000 NA
ATOM      2  H   UNL     1       1.271   6.492  21.762  0.00  0.00    +0.000 HD
ENDROOT
BRANCH   1   3
ATOM      3  C   UNL     1       1.618   7.789  20.214  0.00  0.00    +0.000 C 
BRANCH   3   4
ATOM      4  C   UNL     1       0.824   8.853  21.012  0.00  0.00    +0.000 C 
BRANCH   4   9
ATOM      5  C   UNL     1      -0.418  12.187  18.489  0.00  0.00    +0.000 A 
ATOM      6  C   UNL     1       0.934  12.007  18.832  0.00  0.00    +0.000 A 
ATOM      7 CL   UNL     1       2.137  13.118  18.268  0.00  0.00    +0.000 Cl
ATOM      8  C   UNL     1       1.344  10.951  19.651  0.00  0.00    +0.000 A 
ATOM      9  C   UNL     1       0.407  10.010  20.130  0.00  0.00    +0.000 A 
ATOM     10  C   UNL     1      -0.940  10.173  19.759  0.00  0.00    +0.000 A 
ATOM     11  C   UNL     1      -1.338  11.233  18.947  0.00  0.00    +0.000 A 
ATOM     12 CL   UNL     1      -3.007  11.368  18.528  0.00  0.00    +0.000 Cl
BRANCH   5  13
ATOM     13  N   UNL     1      -0.817  13.152  17.543  0.00  0.00    +0.000 N 
ATOM     14  H   UNL     1      -0.854  12.780  16.596  0.00  0.00    +0.000 HD
ATOM     15  H   UNL     1      -0.314  14.033  17.620  0.00  0.00    +0.000 HD
ENDBRANCH   5  13
ENDBRANCH   4   9
BRANCH   4  16
ATOM     16  O   UNL     1      -0.348   8.263  21.579  0.00  0.00    +0.000 OA
ATOM     17  H   UNL     1      -0.962   8.976  21.811  0.00  0.00    +0.000 HD
ENDBRANCH   4  16
ENDBRANCH   3   4
ENDBRANCH   1   3
BRANCH   1  18
ATOM     18  C   UNL     1       2.032   5.442  20.163  0.00  0.00    +0.000 C 
BRANCH  18  19
ATOM     19  C   UNL     1       0.821   4.560  20.409  0.00  0.00    +0.000 C 
BRANCH  19  20
ATOM     20  C   UNL     1       1.259   3.105  20.511  0.00  0.00    +0.000 C 
BRANCH  20  21
ATOM     21  C   UNL     1       2.698   3.031  20.987  0.00  0.00    +0.000 C 
BRANCH  21  22
ATOM     22  C   UNL     1       3.613   2.540  19.877  0.00  0.00    +0.000 C 
BRANCH  22  23
ATOM     23  C   UNL     1       2.776   2.056  18.712  0.00  0.00    +0.000 C 
BRANCH  23  24
ATOM     24  O   UNL     1       3.046   2.866  17.572  0.00  0.00    +0.000 OA
BRANCH  24  25
ATOM     25  C   UNL     1       4.391   3.351  17.638  0.00  0.00    +0.000 C 
BRANCH  25  26
ATOM     26  C   UNL     1       4.415   4.817  17.238  0.00  0.00    +0.000 C 
BRANCH  26  27
ATOM     27  C   UNL     1       5.675   5.485  17.720  0.00  0.00    +0.000 A 
ATOM     28  C   UNL     1       6.225   6.541  17.004  0.00  0.00    +0.000 A 
ATOM     29  C   UNL     1       7.392   7.136  17.473  0.00  0.00    +0.000 A 
ATOM     30  C   UNL     1       7.976   6.662  18.640  0.00  0.00    +0.000 A 
ATOM     31  C   UNL     1       7.368   5.604  19.292  0.00  0.00    +0.000 A 
ATOM     32  N   UNL     1       6.236   5.007  18.860  0.00  0.00    +0.000 NA
ENDBRANCH  26  27
ENDBRANCH  25  26
ENDBRANCH  24  25
ENDBRANCH  23  24
ENDBRANCH  22  23
ENDBRANCH  21  22
ENDBRANCH  20  21
ENDBRANCH  19  20
ENDBRANCH  18  19
ENDBRANCH   1  18
TORSDOF 15
ENDMDL
MODEL 5
REMARK VINA RESULT:      -6.2      3.322      8.373
REMARK  Name = 
REMARK  15 active torsions:
REMARK  status: ('A' for Active; 'I' for Inactive)
REMARK    1  A    between atoms: N_1  and  C_2
REMARK    2  A    between atoms: C_6  and  C_7
REMARK    3  A    between atoms: C_7  and  O_8
REMARK    4  A    between atoms: C_7  and  C_9
REMARK    5  A    between atoms: C_9  and  N_10
REMARK    6  A    between atoms: N_10  and  C_11
REMARK    7  A    between atoms: C_11  and  C_12
REMARK    8  A    between atoms: C_12  and  C_13
REMARK    9  A    between atoms: C_13  and  C_14
REMARK   10  A    between atoms: C_14  and  C_15
REMARK   11  A    between atoms: C_15  and  C_16
REMARK   12  A    between atoms: C_16  and  O_17
REMARK   13  A    between atoms: O_17  and  C_18
REMARK   14  A    between atoms: C_18  and  C_19
REMARK   15  A    between atoms: C_19  and  C_20
REMARK                            x       y       z     vdW  Elec       q    Type
REMARK                         _______ _______ _______ _____ _____    ______ ____
ROOT
ATOM      1  N   UNL     1       2.222   7.073  18.572  0.00  0.00    +0.000 NA
ATOM      2  H   UNL     1       2.758   6.843  17.733  0.00  0.00    +0.000 HD
ENDROOT
BRANCH   1   3
ATOM      3  C   UNL     1       2.379   8.501  18.875  0.00  0.00    +0.000 C 
BRANCH   3   4
ATOM      4  C   UNL     1       1.177   9.351  18.393  0.00  0.00    +0.000 C 
BRANCH   4   9
ATOM      5  C   UNL     1      -0.816  11.281  21.758  0.00  0.00    +0.000 A 
ATOM      6  C   UNL     1      -0.969  11.775  20.449  0.00  0.00    +0.000 A 
ATOM      7 CL   UNL     1      -1.946  13.172  20.148  0.00  0.00    +0.000 Cl
ATOM      8  C   UNL     1      -0.324  11.173  19.364  0.00  0.00    +0.000 A 
ATOM      9  C   UNL     1       0.475  10.025  19.551  0.00  0.00    +0.000 A 
ATOM     10  C   UNL     1       0.600   9.514  20.856  0.00  0.00    +0.000 A 
ATOM     11  C   UNL     1      -0.041  10.125  21.931  0.00  0.00    +0.000 A 
ATOM     12 CL   UNL     1       0.154   9.440  23.503  0.00  0.00    +0.000 Cl
BRANCH   5  13
ATOM     13  N   UNL     1      -1.580  11.783  22.830  0.00  0.00    +0.000 N 
ATOM     14  H   UNL     1      -1.059  11.808  23.704  0.00  0.00    +0.000 HD
ATOM     15  H   UNL     1      -2.500  11.355  22.912  0.00  0.00    +0.000 HD
ENDBRANCH   5  13
ENDBRANCH   4   9
BRANCH   4  16
ATOM     16  O   UNL     1       1.627  10.356  17.480  0.00  0.00    +0.000 OA
ATOM     17  H   UNL     1       0.931  10.496  16.820  0.00  0.00    +0.000 HD
ENDBRANCH   4  16
ENDBRANCH   3   4
ENDBRANCH   1   3
BRANCH   1  18
ATOM     18  C   UNL     1       2.679   6.290  19.714  0.00  0.00    +0.000 C 
BRANCH  18  19
ATOM     19  C   UNL     1       1.484   5.830  20.532  0.00  0.00    +0.000 C 
BRANCH  19  20
ATOM     20  C   UNL     1       1.543   4.320  20.722  0.00  0.00    +0.000 C 
BRANCH  20  21
ATOM     21  C   UNL     1       1.282   3.623  19.400  0.00  0.00    +0.000 C 
BRANCH  21  22
ATOM     22  C   UNL     1       2.502   2.836  18.950  0.00  0.00    +0.000 C 
BRANCH  22  23
ATOM     23  C   UNL     1       2.838   3.203  17.520  0.00  0.00    +0.000 C 
BRANCH  23  24
ATOM     24  O   UNL     1       4.245   3.096  17.326  0.00  0.00    +0.000 OA
BRANCH  24  25
ATOM     25  C   UNL     1       4.664   4.037  16.333  0.00  0.00    +0.000 C 
BRANCH  25  26
ATOM     26  C   UNL     1       4.505   5.446  16.879  0.00  0.00    +0.000 C 
BRANCH  26  27
ATOM     27  C   UNL     1       5.783   5.925  17.514  0.00  0.00    +0.000 A 
ATOM     28  C   UNL     1       6.252   5.331  18.679  0.00  0.00    +0.000 A 
ATOM     29  C   UNL     1       7.435   5.799  19.243  0.00  0.00    +0.000 A 
ATOM     30  C   UNL     1       8.115   6.843  18.629  0.00  0.00    +0.000 A 
ATOM     31  C   UNL     1       7.579   7.382  17.474  0.00  0.00    +0.000 A 
ATOM     32  N   UNL     1       6.434   6.949  16.905  0.00  0.00    +0.000 NA
ENDBRANCH  26  27
ENDBRANCH  25  26
ENDBRANCH  24  25
ENDBRANCH  23  24
ENDBRANCH  22  23
ENDBRANCH  21  22
ENDBRANCH  20  21
ENDBRANCH  19  20
ENDBRANCH  18  19
ENDBRANCH   1  18
TORSDOF 15
ENDMDL
MODEL 6
REMARK VINA RESULT:      -6.1      3.806      8.994
REMARK  Name = 
REMARK  15 active torsions:
REMARK  status: ('A' for Active; 'I' for Inactive)
REMARK    1  A    between atoms: N_1  and  C_2
REMARK    2  A    between atoms: C_6  and  C_7
REMARK    3  A    between atoms: C_7  and  O_8
REMARK    4  A    between atoms: C_7  and  C_9
REMARK    5  A    between atoms: C_9  and  N_10
REMARK    6  A    between atoms: N_10  and  C_11
REMARK    7  A    between atoms: C_11  and  C_12
REMARK    8  A    between atoms: C_12  and  C_13
REMARK    9  A    between atoms: C_13  and  C_14
REMARK   10  A    between atoms: C_14  and  C_15
REMARK   11  A    between atoms: C_15  and  C_16
REMARK   12  A    between atoms: C_16  and  O_17
REMARK   13  A    between atoms: O_17  and  C_18
REMARK   14  A    between atoms: C_18  and  C_19
REMARK   15  A    between atoms: C_19  and  C_20
REMARK                            x       y       z     vdW  Elec       q    Type
REMARK                         _______ _______ _______ _____ _____    ______ ____
ROOT
ATOM      1  N   UNL     1       1.666   7.908  19.025  0.00  0.00    +0.000 NA
ATOM      2  H   UNL     1       0.834   7.364  18.786  0.00  0.00    +0.000 HD
ENDROOT
BRANCH   1   3
ATOM      3  C   UNL     1       1.522   9.274  18.506  0.00  0.00    +0.000 C 
BRANCH   3   4
ATOM      4  C   UNL     1       0.783  10.213  19.490  0.00  0.00    +0.000 C 
BRANCH   4   9
ATOM      5  C   UNL     1      -3.094  11.413  17.891  0.00  0.00    +0.000 A 
ATOM      6  C   UNL     1      -2.642  11.902  19.130  0.00  0.00    +0.000 A 
ATOM      7 CL   UNL     1      -3.626  12.986  20.056  0.00  0.00    +0.000 Cl
ATOM      8  C   UNL     1      -1.407  11.515  19.660  0.00  0.00    +0.000 A 
ATOM      9  C   UNL     1      -0.561  10.643  18.943  0.00  0.00    +0.000 A 
ATOM     10  C   UNL     1      -1.001  10.180  17.689  0.00  0.00    +0.000 A 
ATOM     11  C   UNL     1      -2.235  10.568  17.173  0.00  0.00    +0.000 A 
ATOM     12 CL   UNL     1      -2.707   9.964  15.626  0.00  0.00    +0.000 Cl
BRANCH   5  13
ATOM     13  N   UNL     1      -4.259  11.916  17.279  0.00  0.00    +0.000 N 
ATOM     14  H   UNL     1      -4.159  12.020  16.272  0.00  0.00    +0.000 HD
ATOM     15  H   UNL     1      -4.642  12.737  17.742  0.00  0.00    +0.000 HD
ENDBRANCH   5  13
ENDBRANCH   4   9
BRANCH   4  16
ATOM     16  O   UNL     1       0.578   9.547  20.739  0.00  0.00    +0.000 OA
ATOM     17  H   UNL     1      -0.305   9.782  21.064  0.00  0.00    +0.000 HD
ENDBRANCH   4  16
ENDBRANCH   3   4
ENDBRANCH   1   3
BRANCH   1  18
ATOM     18  C   UNL     1       2.865   7.305  18.455  0.00  0.00    +0.000 C 
BRANCH  18  19
ATOM     19  C   UNL     1       3.312   6.138  19.318  0.00  0.00    +0.000 C 
BRANCH  19  20
ATOM     20  C   UNL     1       2.159   5.685  20.205  0.00  0.00    +0.000 C 
BRANCH  20  21
ATOM     21  C   UNL     1       2.170   4.174  20.335  0.00  0.00    +0.000 C 
BRANCH  21  22
ATOM     22  C   UNL     1       3.392   3.578  19.654  0.00  0.00    +0.000 C 
BRANCH  22  23
ATOM     23  C   UNL     1       2.952   2.499  18.687  0.00  0.00    +0.000 C 
BRANCH  23  24
ATOM     24  O   UNL     1       3.866   2.447  17.596  0.00  0.00    +0.000 OA
BRANCH  24  25
ATOM     25  C   UNL     1       3.998   3.750  17.021  0.00  0.00    +0.000 C 
BRANCH  25  26
ATOM     26  C   UNL     1       5.367   3.876  16.374  0.00  0.00    +0.000 C 
BRANCH  26  27
ATOM     27  C   UNL     1       6.208   4.899  17.089  0.00  0.00    +0.000 A 
ATOM     28  C   UNL     1       6.203   6.225  16.674  0.00  0.00    +0.000 A 
ATOM     29  C   UNL     1       6.994   7.146  17.353  0.00  0.00    +0.000 A 
ATOM     30  C   UNL     1       7.766   6.720  18.426  0.00  0.00    +0.000 A 
ATOM     31  C   UNL     1       7.718   5.382  18.774  0.00  0.00    +0.000 A 
ATOM     32  N   UNL     1       6.961   4.466  18.133  0.00  0.00    +0.000 NA
ENDBRANCH  26  27
ENDBRANCH  25  26
ENDBRANCH  24  25
ENDBRANCH  23  24
ENDBRANCH  22  23
ENDBRANCH  21  22
ENDBRANCH  20  21
ENDBRANCH  19  20
ENDBRANCH  18  19
ENDBRANCH   1  18
TORSDOF 15
ENDMDL
MODEL 7
REMARK VINA RESULT:      -6.1      2.701      3.202
REMARK  Name = 
REMARK  15 active torsions:
REMARK  status: ('A' for Active; 'I' for Inactive)
REMARK    1  A    between atoms: N_1  and  C_2
REMARK    2  A    between atoms: C_6  and  C_7
REMARK    3  A    between atoms: C_7  and  O_8
REMARK    4  A    between atoms: C_7  and  C_9
REMARK    5  A    between atoms: C_9  and  N_10
REMARK    6  A    between atoms: N_10  and  C_11
REMARK    7  A    between atoms: C_11  and  C_12
REMARK    8  A    between atoms: C_12  and  C_13
REMARK    9  A    between atoms: C_13  and  C_14
REMARK   10  A    between atoms: C_14  and  C_15
REMARK   11  A    between atoms: C_15  and  C_16
REMARK   12  A    between atoms: C_16  and  O_17
REMARK   13  A    between atoms: O_17  and  C_18
REMARK   14  A    between atoms: C_18  and  C_19
REMARK   15  A    between atoms: C_19  and  C_20
REMARK                            x       y       z     vdW  Elec       q    Type
REMARK                         _______ _______ _______ _____ _____    ______ ____
ROOT
ATOM      1  N   UNL     1       2.074   5.289  19.415  0.00  0.00    +0.000 NA
ATOM      2  H   UNL     1       1.091   5.101  19.624  0.00  0.00    +0.000 HD
ENDROOT
BRANCH   1   3
ATOM      3  C   UNL     1       2.922   4.379  20.196  0.00  0.00    +0.000 C 
BRANCH   3   4
ATOM      4  C   UNL     1       3.658   3.343  19.312  0.00  0.00    +0.000 C 
BRANCH   4   9
ATOM      5  C   UNL     1       6.609   5.255  16.731  0.00  0.00    +0.000 A 
ATOM      6  C   UNL     1       5.546   4.512  16.185  0.00  0.00    +0.000 A 
ATOM      7 CL   UNL     1       5.395   4.330  14.470  0.00  0.00    +0.000 Cl
ATOM      8  C   UNL     1       4.602   3.883  17.002  0.00  0.00    +0.000 A 
ATOM      9  C   UNL     1       4.672   4.007  18.406  0.00  0.00    +0.000 A 
ATOM     10  C   UNL     1       5.716   4.777  18.949  0.00  0.00    +0.000 A 
ATOM     11  C   UNL     1       6.655   5.395  18.126  0.00  0.00    +0.000 A 
ATOM     12 CL   UNL     1       7.907   6.329  18.862  0.00  0.00    +0.000 Cl
BRANCH   5  13
ATOM     13  N   UNL     1       7.471   6.017  15.919  0.00  0.00    +0.000 N 
ATOM     14  H   UNL     1       7.779   6.875  16.372  0.00  0.00    +0.000 HD
ATOM     15  H   UNL     1       7.125   6.154  14.971  0.00  0.00    +0.000 HD
ENDBRANCH   5  13
ENDBRANCH   4   9
BRANCH   4  16
ATOM     16  O   UNL     1       4.336   2.392  20.139  0.00  0.00    +0.000 OA
ATOM     17  H   UNL     1       5.276   2.405  19.903  0.00  0.00    +0.000 HD
ENDBRANCH   4  16
ENDBRANCH   3   4
ENDBRANCH   1   3
BRANCH   1  18
ATOM     18  C   UNL     1       2.423   6.666  19.744  0.00  0.00    +0.000 C 
BRANCH  18  19
ATOM     19  C   UNL     1       2.950   7.372  18.507  0.00  0.00    +0.000 C 
BRANCH  19  20
ATOM     20  C   UNL     1       1.795   8.023  17.757  0.00  0.00    +0.000 C 
BRANCH  20  21
ATOM     21  C   UNL     1       1.830   9.526  17.959  0.00  0.00    +0.000 C 
BRANCH  21  22
ATOM     22  C   UNL     1       1.040   9.926  19.195  0.00  0.00    +0.000 C 
BRANCH  22  23
ATOM     23  C   UNL     1       0.184  11.134  18.876  0.00  0.00    +0.000 C 
BRANCH  23  24
ATOM     24  O   UNL     1      -0.921  10.727  18.075  0.00  0.00    +0.000 OA
BRANCH  24  25
ATOM     25  C   UNL     1      -1.855  11.806  17.967  0.00  0.00    +0.000 C 
BRANCH  25  26
ATOM     26  C   UNL     1      -3.127  11.303  17.305  0.00  0.00    +0.000 C 
BRANCH  26  27
ATOM     27  C   UNL     1      -4.314  11.484  18.212  0.00  0.00    +0.000 A 
ATOM     28  C   UNL     1      -5.537  10.910  17.888  0.00  0.00    +0.000 A 
ATOM     29  C   UNL     1      -6.617  11.098  18.745  0.00  0.00    +0.000 A 
ATOM     30  C   UNL     1      -6.447  11.852  19.899  0.00  0.00    +0.000 A 
ATOM     31  C   UNL     1      -5.198  12.393  20.147  0.00  0.00    +0.000 A 
ATOM     32  N   UNL     1      -4.133  12.227  19.333  0.00  0.00    +0.000 NA
ENDBRANCH  26  27
ENDBRANCH  25  26
ENDBRANCH  24  25
ENDBRANCH  23  24
ENDBRANCH  22  23
ENDBRANCH  21  22
ENDBRANCH  20  21
ENDBRANCH  19  20
ENDBRANCH  18  19
ENDBRANCH   1  18
TORSDOF 15
ENDMDL
MODEL 8
REMARK VINA RESULT:      -6.1      3.732      8.885
REMARK  Name = 
REMARK  15 active torsions:
REMARK  status: ('A' for Active; 'I' for Inactive)
REMARK    1  A    between atoms: N_1  and  C_2
REMARK    2  A    between atoms: C_6  and  C_7
REMARK    3  A    between atoms: C_7  and  O_8
REMARK    4  A    between atoms: C_7  and  C_9
REMARK    5  A    between atoms: C_9  and  N_10
REMARK    6  A    between atoms: N_10  and  C_11
REMARK    7  A    between atoms: C_11  and  C_12
REMARK    8  A    between atoms: C_12  and  C_13
REMARK    9  A    between atoms: C_13  and  C_14
REMARK   10  A    between atoms: C_14  and  C_15
REMARK   11  A    between atoms: C_15  and  C_16
REMARK   12  A    between atoms: C_16  and  O_17
REMARK   13  A    between atoms: O_17  and  C_18
REMARK   14  A    between atoms: C_18  and  C_19
REMARK   15  A    between atoms: C_19  and  C_20
REMARK                            x       y       z     vdW  Elec       q    Type
REMARK                         _______ _______ _______ _____ _____    ______ ____
ROOT
ATOM      1  N   UNL     1       1.590   8.449  21.981  0.00  0.00    +0.000 NA
ATOM      2  H   UNL     1       1.273   7.723  22.627  0.00  0.00    +0.000 HD
ENDROOT
BRANCH   1   3
ATOM      3  C   UNL     1       0.595   9.527  21.932  0.00  0.00    +0.000 C 
BRANCH   3   4
ATOM      4  C   UNL     1       0.886  10.559  20.815  0.00  0.00    +0.000 C 
BRANCH   4   9
ATOM      5  C   UNL     1      -2.736  11.653  18.646  0.00  0.00    +0.000 A 
ATOM      6  C   UNL     1      -1.873  10.657  18.153  0.00  0.00    +0.000 A 
ATOM      7 CL   UNL     1      -2.227   9.850  16.663  0.00  0.00    +0.000 Cl
ATOM      8  C   UNL     1      -0.702  10.307  18.832  0.00  0.00    +0.000 A 
ATOM      9  C   UNL     1      -0.371  10.925  20.057  0.00  0.00    +0.000 A 
ATOM     10  C   UNL     1      -1.252  11.898  20.564  0.00  0.00    +0.000 A 
ATOM     11  C   UNL     1      -2.413  12.243  19.876  0.00  0.00    +0.000 A 
ATOM     12 CL   UNL     1      -3.450  13.442  20.560  0.00  0.00    +0.000 Cl
BRANCH   5  13
ATOM     13  N   UNL     1      -3.990  11.902  18.054  0.00  0.00    +0.000 N 
ATOM     14  H   UNL     1      -4.760  11.505  18.587  0.00  0.00    +0.000 HD
ATOM     15  H   UNL     1      -4.023  11.685  17.060  0.00  0.00    +0.000 HD
ENDBRANCH   5  13
ENDBRANCH   4   9
BRANCH   4  16
ATOM     16  O   UNL     1       1.441  11.749  21.384  0.00  0.00    +0.000 OA
ATOM     17  H   UNL     1       0.732  12.406  21.458  0.00  0.00    +0.000 HD
ENDBRANCH   4  16
ENDBRANCH   3   4
ENDBRANCH   1   3
BRANCH   1  18
ATOM     18  C   UNL     1       1.773   7.907  20.639  0.00  0.00    +0.000 C 
BRANCH  18  19
ATOM     19  C   UNL     1       1.071   6.565  20.528  0.00  0.00    +0.000 C 
BRANCH  19  20
ATOM     20  C   UNL     1       2.097   5.442  20.611  0.00  0.00    +0.000 C 
BRANCH  20  21
ATOM     21  C   UNL     1       1.461   4.129  20.194  0.00  0.00    +0.000 C 
BRANCH  21  22
ATOM     22  C   UNL     1       1.481   3.971  18.682  0.00  0.00    +0.000 C 
BRANCH  22  23
ATOM     23  C   UNL     1       1.967   2.581  18.328  0.00  0.00    +0.000 C 
BRANCH  23  24
ATOM     24  O   UNL     1       2.992   2.679  17.344  0.00  0.00    +0.000 OA
BRANCH  24  25
ATOM     25  C   UNL     1       4.134   3.331  17.908  0.00  0.00    +0.000 C 
BRANCH  25  26
ATOM     26  C   UNL     1       4.613   4.415  16.957  0.00  0.00    +0.000 C 
BRANCH  26  27
ATOM     27  C   UNL     1       5.762   5.184  17.551  0.00  0.00    +0.000 A 
ATOM     28  C   UNL     1       6.331   6.244  16.855  0.00  0.00    +0.000 A 
ATOM     29  C   UNL     1       7.394   6.932  17.429  0.00  0.00    +0.000 A 
ATOM     30  C   UNL     1       7.860   6.546  18.680  0.00  0.00    +0.000 A 
ATOM     31  C   UNL     1       7.242   5.478  19.305  0.00  0.00    +0.000 A 
ATOM     32  N   UNL     1       6.209   4.791  18.771  0.00  0.00    +0.000 NA
ENDBRANCH  26  27
ENDBRANCH  25  26
ENDBRANCH  24  25
ENDBRANCH  23  24
ENDBRANCH  22  23
ENDBRANCH  21  22
ENDBRANCH  20  21
ENDBRANCH  19  20
ENDBRANCH  18  19
ENDBRANCH   1  18
TORSDOF 15
ENDMDL
MODEL 9
REMARK VINA RESULT:      -6.1      2.435      3.359
REMARK  Name = 
REMARK  15 active torsions:
REMARK  status: ('A' for Active; 'I' for Inactive)
REMARK    1  A    between atoms: N_1  and  C_2
REMARK    2  A    between atoms: C_6  and  C_7
REMARK    3  A    between atoms: C_7  and  O_8
REMARK    4  A    between atoms: C_7  and  C_9
REMARK    5  A    between atoms: C_9  and  N_10
REMARK    6  A    between atoms: N_10  and  C_11
REMARK    7  A    between atoms: C_11  and  C_12
REMARK    8  A    between atoms: C_12  and  C_13
REMARK    9  A    between atoms: C_13  and  C_14
REMARK   10  A    between atoms: C_14  and  C_15
REMARK   11  A    between atoms: C_15  and  C_16
REMARK   12  A    between atoms: C_16  and  O_17
REMARK   13  A    between atoms: O_17  and  C_18
REMARK   14  A    between atoms: C_18  and  C_19
REMARK   15  A    between atoms: C_19  and  C_20
REMARK                            x       y       z     vdW  Elec       q    Type
REMARK                         _______ _______ _______ _____ _____    ______ ____
ROOT
ATOM      1  N   UNL     1       2.392   5.014  18.694  0.00  0.00    +0.000 NA
ATOM      2  H   UNL     1       1.680   5.279  18.010  0.00  0.00    +0.000 HD
ENDROOT
BRANCH   1   3
ATOM      3  C   UNL     1       2.297   3.575  18.964  0.00  0.00    +0.000 C 
BRANCH   3   4
ATOM      4  C   UNL     1       3.661   2.852  18.845  0.00  0.00    +0.000 C 
BRANCH   4   9
ATOM      5  C   UNL     1       6.512   5.241  16.566  0.00  0.00    +0.000 A 
ATOM      6  C   UNL     1       6.552   5.218  17.972  0.00  0.00    +0.000 A 
ATOM      7 CL   UNL     1       7.731   6.150  18.831  0.00  0.00    +0.000 Cl
ATOM      8  C   UNL     1       5.636   4.466  18.715  0.00  0.00    +0.000 A 
ATOM      9  C   UNL     1       4.660   3.680  18.066  0.00  0.00    +0.000 A 
ATOM     10  C   UNL     1       4.642   3.680  16.659  0.00  0.00    +0.000 A 
ATOM     11  C   UNL     1       5.556   4.436  15.930  0.00  0.00    +0.000 A 
ATOM     12 CL   UNL     1       5.478   4.384  14.205  0.00  0.00    +0.000 Cl
BRANCH   5  13
ATOM     13  N   UNL     1       7.522   5.867  15.809  0.00  0.00    +0.000 N 
ATOM     14  H   UNL     1       7.715   5.381  14.937  0.00  0.00    +0.000 HD
ATOM     15  H   UNL     1       8.355   6.094  16.347  0.00  0.00    +0.000 HD
ENDBRANCH   5  13
ENDBRANCH   4   9
BRANCH   4  16
ATOM     16  O   UNL     1       4.193   2.598  20.148  0.00  0.00    +0.000 OA
ATOM     17  H   UNL     1       4.336   3.451  20.587  0.00  0.00    +0.000 HD
ENDBRANCH   4  16
ENDBRANCH   3   4
ENDBRANCH   1   3
BRANCH   1  18
ATOM     18  C   UNL     1       2.212   5.747  19.942  0.00  0.00    +0.000 C 
BRANCH  18  19
ATOM     19  C   UNL     1       2.309   7.240  19.679  0.00  0.00    +0.000 C 
BRANCH  19  20
ATOM     20  C   UNL     1       2.651   7.481  18.214  0.00  0.00    +0.000 C 
BRANCH  20  21
ATOM     21  C   UNL     1       2.225   8.879  17.807  0.00  0.00    +0.000 C 
BRANCH  21  22
ATOM     22  C   UNL     1       1.195   9.437  18.776  0.00  0.00    +0.000 C 
BRANCH  22  23
ATOM     23  C   UNL     1       1.169  10.947  18.668  0.00  0.00    +0.000 C 
BRANCH  23  24
ATOM     24  O   UNL     1      -0.052  11.435  19.216  0.00  0.00    +0.000 OA
BRANCH  24  25
ATOM     25  C   UNL     1      -1.130  10.583  18.816  0.00  0.00    +0.000 C 
BRANCH  25  26
ATOM     26  C   UNL     1      -1.933  11.269  17.725  0.00  0.00    +0.000 C 
BRANCH  26  27
ATOM     27  C   UNL     1      -3.354  11.499  18.165  0.00  0.00    +0.000 A 
ATOM     28  C   UNL     1      -4.411  11.031  17.394  0.00  0.00    +0.000 A 
ATOM     29  C   UNL     1      -5.713  11.263  17.827  0.00  0.00    +0.000 A 
ATOM     30  C   UNL     1      -5.924  11.952  19.014  0.00  0.00    +0.000 A 
ATOM     31  C   UNL     1      -4.817  12.387  19.721  0.00  0.00    +0.000 A 
ATOM     32  N   UNL     1      -3.543  12.178  19.326  0.00  0.00    +0.000 NA
ENDBRANCH  26  27
ENDBRANCH  25  26
ENDBRANCH  24  25
ENDBRANCH  23  24
ENDBRANCH  22  23
ENDBRANCH  21  22
ENDBRANCH  20  21
ENDBRANCH  19  20
ENDBRANCH  18  19
ENDBRANCH   1  18
TORSDOF 15
ENDMDL
