MODEL 1
REMARK VINA RESULT:      -6.3      0.000      0.000
REMARK  Name = 
REMARK  8 active torsions:
REMARK  status: ('A' for Active; 'I' for Inactive)
REMARK    1  A    between atoms: C_2  and  C_3
REMARK    2  A    between atoms: C_2  and  C_4
REMARK    3  A    between atoms: C_4  and  N_5
REMARK    4  A    between atoms: N_5  and  C_6
REMARK    5  A    between atoms: N_5  and  C_7
REMARK    6  A    between atoms: C_7  and  C_8
REMARK    7  A    between atoms: C_7  and  C_9
REMARK    8  A    between atoms: C_13  and  O_14
REMARK                            x       y       z     vdW  Elec       q    Type
REMARK                         _______ _______ _______ _____ _____    ______ ____
ROOT
ATOM      1  C   UNL     1       3.913   5.269  17.744  0.00  0.00    +0.000 C 
ATOM      2  C   UNL     1       2.886   6.421  17.808  0.00  0.00    +0.000 C 
ENDROOT
BRANCH   1   3
ATOM      3  C   UNL     1       5.327   5.763  18.054  0.00  0.00    +0.000 A 
ATOM      4  C   UNL     1       5.981   6.628  17.161  0.00  0.00    +0.000 A 
ATOM      5  C   UNL     1       7.288   7.059  17.414  0.00  0.00    +0.000 A 
ATOM      6  C   UNL     1       7.967   6.620  18.548  0.00  0.00    +0.000 A 
ATOM      7  C   UNL     1       7.329   5.760  19.431  0.00  0.00    +0.000 A 
ATOM      8  C   UNL     1       6.022   5.347  19.201  0.00  0.00    +0.000 A 
BRANCH   7   9
ATOM      9  O   UNL     1       7.955   5.272  20.539  0.00  0.00    +0.000 OA
ATOM     10  H   UNL     1       8.770   4.825  20.259  0.00  0.00    +0.000 HD
ENDBRANCH   7   9
ENDBRANCH   1   3
BRANCH   1  11
ATOM     11  N   UNL     1       3.557   4.039  18.513  0.00  0.00    +0.000 NA
ATOM     12  C   UNL     1       3.892   2.833  17.749  0.00  0.00    +0.000 C 
BRANCH  11  13
ATOM     13  C   UNL     1       2.155   4.031  18.958  0.00  0.00    +0.000 C 
BRANCH  13  15
ATOM     14  C   UNL     1       1.683   5.425  20.967  0.00  0.00    +0.000 C 
ATOM     15  C   UNL     1       1.921   4.210  20.442  0.00  0.00    +0.000 C 
ATOM     16  C   UNL     1       2.060   2.995  21.316  0.00  0.00    +0.000 C 
ENDBRANCH  13  15
ENDBRANCH  11  13
ENDBRANCH   1  11
TORSDOF 5
ENDMDL
MODEL 2
REMARK VINA RESULT:      -6.3      1.210      1.851
REMARK  Name = 
REMARK  8 active torsions:
REMARK  status: ('A' for Active; 'I' for Inactive)
REMARK    1  A    between atoms: C_2  and  C_3
REMARK    2  A    between atoms: C_2  and  C_4
REMARK    3  A    between atoms: C_4  and  N_5
REMARK    4  A    between atoms: N_5  and  C_6
REMARK    5  A    between atoms: N_5  and  C_7
REMARK    6  A    between atoms: C_7  and  C_8
REMARK    7  A    between atoms: C_7  and  C_9
REMARK    8  A    between atoms: C_13  and  O_14
REMARK                            x       y       z     vdW  Elec       q    Type
REMARK                         _______ _______ _______ _____ _____    ______ ____
ROOT
ATOM      1  C   UNL     1       5.155   4.043  17.027  0.00  0.00    +0.000 C 
ATOM      2  C   UNL     1       4.824   4.394  15.560  0.00  0.00    +0.000 C 
ENDROOT
BRANCH   1   3
ATOM      3  C   UNL     1       6.140   5.044  17.632  0.00  0.00    +0.000 A 
ATOM      4  C   UNL     1       6.555   6.161  16.888  0.00  0.00    +0.000 A 
ATOM      5  C   UNL     1       7.483   7.065  17.415  0.00  0.00    +0.000 A 
ATOM      6  C   UNL     1       8.026   6.859  18.682  0.00  0.00    +0.000 A 
ATOM      7  C   UNL     1       7.626   5.752  19.419  0.00  0.00    +0.000 A 
ATOM      8  C   UNL     1       6.685   4.863  18.914  0.00  0.00    +0.000 A 
BRANCH   7   9
ATOM      9  O   UNL     1       8.148   5.482  20.649  0.00  0.00    +0.000 OA
ATOM     10  H   UNL     1       7.983   6.245  21.226  0.00  0.00    +0.000 HD
ENDBRANCH   7   9
ENDBRANCH   1   3
BRANCH   1  11
ATOM     11  N   UNL     1       3.980   3.790  17.914  0.00  0.00    +0.000 NA
ATOM     12  C   UNL     1       3.579   2.381  17.859  0.00  0.00    +0.000 C 
BRANCH  11  13
ATOM     13  C   UNL     1       2.851   4.691  17.633  0.00  0.00    +0.000 C 
BRANCH  13  15
ATOM     14  C   UNL     1       2.732   7.140  18.069  0.00  0.00    +0.000 C 
ATOM     15  C   UNL     1       2.700   5.885  18.550  0.00  0.00    +0.000 C 
ATOM     16  C   UNL     1       2.611   5.617  20.027  0.00  0.00    +0.000 C 
ENDBRANCH  13  15
ENDBRANCH  11  13
ENDBRANCH   1  11
TORSDOF 5
ENDMDL
MODEL 3
REMARK VINA RESULT:      -6.2      2.406      5.447
REMARK  Name = 
REMARK  8 active torsions:
REMARK  status: ('A' for Active; 'I' for Inactive)
REMARK    1  A    between atoms: C_2  and  C_3
REMARK    2  A    between atoms: C_2  and  C_4
REMARK    3  A    between atoms: C_4  and  N_5
REMARK    4  A    between atoms: N_5  and  C_6
REMARK    5  A    between atoms: N_5  and  C_7
REMARK    6  A    between atoms: C_7  and  C_8
REMARK    7  A    between atoms: C_7  and  C_9
REMARK    8  A    between atoms: C_13  and  O_14
REMARK                            x       y       z     vdW  Elec       q    Type
REMARK                         _______ _______ _______ _____ _____    ______ ____
ROOT
ATOM      1  C   UNL     1       4.492   4.984  16.388  0.00  0.00    +0.000 C 
ATOM      2  C   UNL     1       5.413   4.320  15.343  0.00  0.00    +0.000 C 
ENDROOT
BRANCH   1   3
ATOM      3  C   UNL     1       3.690   3.941  17.169  0.00  0.00    +0.000 A 
ATOM      4  C   UNL     1       2.370   4.218  17.563  0.00  0.00    +0.000 A 
ATOM      5  C   UNL     1       1.638   3.287  18.309  0.00  0.00    +0.000 A 
ATOM      6  C   UNL     1       2.216   2.078  18.688  0.00  0.00    +0.000 A 
ATOM      7  C   UNL     1       3.523   1.802  18.309  0.00  0.00    +0.000 A 
ATOM      8  C   UNL     1       4.249   2.709  17.547  0.00  0.00    +0.000 A 
BRANCH   7   9
ATOM      9  O   UNL     1       4.151   0.650  18.680  0.00  0.00    +0.000 OA
ATOM     10  H   UNL     1       4.950   0.884  19.181  0.00  0.00    +0.000 HD
ENDBRANCH   7   9
ENDBRANCH   1   3
BRANCH   1  11
ATOM     11  N   UNL     1       5.141   5.990  17.281  0.00  0.00    +0.000 NA
ATOM     12  C   UNL     1       4.273   7.157  17.469  0.00  0.00    +0.000 C 
BRANCH  11  13
ATOM     13  C   UNL     1       6.484   6.377  16.820  0.00  0.00    +0.000 C 
BRANCH  13  15
ATOM     14  C   UNL     1       7.782   6.012  18.914  0.00  0.00    +0.000 C 
ATOM     15  C   UNL     1       7.458   6.821  17.890  0.00  0.00    +0.000 C 
ATOM     16  C   UNL     1       7.974   8.231  17.814  0.00  0.00    +0.000 C 
ENDBRANCH  13  15
ENDBRANCH  11  13
ENDBRANCH   1  11
TORSDOF 5
ENDMDL
MODEL 4
REMARK VINA RESULT:      -6.2      2.163      5.222
REMARK  Name = 
REMARK  8 active torsions:
REMARK  status: ('A' for Active; 'I' for Inactive)
REMARK    1  A    between atoms: C_2  and  C_3
REMARK    2  A    between atoms: C_2  and  C_4
REMARK    3  A    between atoms: C_4  and  N_5
REMARK    4  A    between atoms: N_5  and  C_6
REMARK    5  A    between atoms: N_5  and  C_7
REMARK    6  A    between atoms: C_7  and  C_8
REMARK    7  A    between atoms: C_7  and  C_9
REMARK    8  A    between atoms: C_13  and  O_14
REMARK                            x       y       z     vdW  Elec       q    Type
REMARK                         _______ _______ _______ _____ _____    ______ ____
ROOT
ATOM      1  C   UNL     1       4.620   4.694  16.690  0.00  0.00    +0.000 C 
ATOM      2  C   UNL     1       5.650   3.887  15.872  0.00  0.00    +0.000 C 
ENDROOT
BRANCH   1   3
ATOM      3  C   UNL     1       3.832   3.792  17.642  0.00  0.00    +0.000 A 
ATOM      4  C   UNL     1       2.494   3.469  17.359  0.00  0.00    +0.000 A 
ATOM      5  C   UNL     1       1.751   2.674  18.239  0.00  0.00    +0.000 A 
ATOM      6  C   UNL     1       2.323   2.207  19.421  0.00  0.00    +0.000 A 
ATOM      7  C   UNL     1       3.642   2.530  19.710  0.00  0.00    +0.000 A 
ATOM      8  C   UNL     1       4.396   3.297  18.830  0.00  0.00    +0.000 A 
BRANCH   7   9
ATOM      9  O   UNL     1       4.243   2.130  20.866  0.00  0.00    +0.000 OA
ATOM     10  H   UNL     1       5.051   1.642  20.638  0.00  0.00    +0.000 HD
ENDBRANCH   7   9
ENDBRANCH   1   3
BRANCH   1  11
ATOM     11  N   UNL     1       5.143   5.918  17.367  0.00  0.00    +0.000 NA
ATOM     12  C   UNL     1       4.157   7.002  17.318  0.00  0.00    +0.000 C 
BRANCH  11  13
ATOM     13  C   UNL     1       6.450   6.344  16.842  0.00  0.00    +0.000 C 
BRANCH  13  15
ATOM     14  C   UNL     1       7.926   8.157  17.703  0.00  0.00    +0.000 C 
ATOM     15  C   UNL     1       7.424   6.917  17.848  0.00  0.00    +0.000 C 
ATOM     16  C   UNL     1       7.882   6.015  18.959  0.00  0.00    +0.000 C 
ENDBRANCH  13  15
ENDBRANCH  11  13
ENDBRANCH   1  11
TORSDOF 5
ENDMDL
MODEL 5
REMARK VINA RESULT:      -6.1      1.760      2.395
REMARK  Name = 
REMARK  8 active torsions:
REMARK  status: ('A' for Active; 'I' for Inactive)
REMARK    1  A    between atoms: C_2  and  C_3
REMARK    2  A    between atoms: C_2  and  C_4
REMARK    3  A    between atoms: C_4  and  N_5
REMARK    4  A    between atoms: N_5  and  C_6
REMARK    5  A    between atoms: N_5  and  C_7
REMARK    6  A    between atoms: C_7  and  C_8
REMARK    7  A    between atoms: C_7  and  C_9
REMARK    8  A    between atoms: C_13  and  O_14
REMARK                            x       y       z     vdW  Elec       q    Type
REMARK                         _______ _______ _______ _____ _____    ______ ____
ROOT
ATOM      1  C   UNL     1       3.808   3.321  17.677  0.00  0.00    +0.000 C 
ATOM      2  C   UNL     1       2.634   4.131  17.086  0.00  0.00    +0.000 C 
ENDROOT
BRANCH   1   3
ATOM      3  C   UNL     1       5.051   4.193  17.859  0.00  0.00    +0.000 A 
ATOM      4  C   UNL     1       5.449   4.593  19.146  0.00  0.00    +0.000 A 
ATOM      5  C   UNL     1       6.564   5.420  19.323  0.00  0.00    +0.000 A 
ATOM      6  C   UNL     1       7.286   5.875  18.222  0.00  0.00    +0.000 A 
ATOM      7  C   UNL     1       6.893   5.489  16.947  0.00  0.00    +0.000 A 
ATOM      8  C   UNL     1       5.803   4.648  16.763  0.00  0.00    +0.000 A 
BRANCH   7   9
ATOM      9  O   UNL     1       7.541   5.930  15.832  0.00  0.00    +0.000 OA
ATOM     10  H   UNL     1       6.986   5.738  15.059  0.00  0.00    +0.000 HD
ENDBRANCH   7   9
ENDBRANCH   1   3
BRANCH   1  11
ATOM     11  N   UNL     1       3.493   2.516  18.895  0.00  0.00    +0.000 NA
ATOM     12  C   UNL     1       3.875   1.113  18.705  0.00  0.00    +0.000 C 
BRANCH  11  13
ATOM     13  C   UNL     1       2.089   2.647  19.317  0.00  0.00    +0.000 C 
BRANCH  13  15
ATOM     14  C   UNL     1       1.649   2.573  21.768  0.00  0.00    +0.000 C 
ATOM     15  C   UNL     1       1.850   3.306  20.658  0.00  0.00    +0.000 C 
ATOM     16  C   UNL     1       1.751   4.806  20.684  0.00  0.00    +0.000 C 
ENDBRANCH  13  15
ENDBRANCH  11  13
ENDBRANCH   1  11
TORSDOF 5
ENDMDL
MODEL 6
REMARK VINA RESULT:      -6.1      1.929      2.442
REMARK  Name = 
REMARK  8 active torsions:
REMARK  status: ('A' for Active; 'I' for Inactive)
REMARK    1  A    between atoms: C_2  and  C_3
REMARK    2  A    between atoms: C_2  and  C_4
REMARK    3  A    between atoms: C_4  and  N_5
REMARK    4  A    between atoms: N_5  and  C_6
REMARK    5  A    between atoms: N_5  and  C_7
REMARK    6  A    between atoms: C_7  and  C_8
REMARK    7  A    between atoms: C_7  and  C_9
REMARK    8  A    between atoms: C_13  and  O_14
REMARK                            x       y       z     vdW  Elec       q    Type
REMARK                         _______ _______ _______ _____ _____    ______ ____
ROOT
ATOM      1  C   UNL     1       2.843   3.627  17.530  0.00  0.00    +0.000 C 
ATOM      2  C   UNL     1       1.481   4.342  17.410  0.00  0.00    +0.000 C 
ENDROOT
BRANCH   1   3
ATOM      3  C   UNL     1       4.005   4.599  17.316  0.00  0.00    +0.000 A 
ATOM      4  C   UNL     1       3.827   5.972  17.554  0.00  0.00    +0.000 A 
ATOM      5  C   UNL     1       4.870   6.876  17.328  0.00  0.00    +0.000 A 
ATOM      6  C   UNL     1       6.098   6.429  16.844  0.00  0.00    +0.000 A 
ATOM      7  C   UNL     1       6.278   5.074  16.599  0.00  0.00    +0.000 A 
ATOM      8  C   UNL     1       5.256   4.165  16.845  0.00  0.00    +0.000 A 
BRANCH   7   9
ATOM      9  O   UNL     1       7.445   4.584  16.094  0.00  0.00    +0.000 OA
ATOM     10  H   UNL     1       7.593   3.700  16.466  0.00  0.00    +0.000 HD
ENDBRANCH   7   9
ENDBRANCH   1   3
BRANCH   1  11
ATOM     11  N   UNL     1       3.026   2.778  18.745  0.00  0.00    +0.000 NA
ATOM     12  C   UNL     1       3.553   1.458  18.384  0.00  0.00    +0.000 C 
BRANCH  11  13
ATOM     13  C   UNL     1       1.803   2.675  19.556  0.00  0.00    +0.000 C 
BRANCH  13  15
ATOM     14  C   UNL     1       1.619   2.590  22.039  0.00  0.00    +0.000 C 
ATOM     15  C   UNL     1       1.852   3.311  20.928  0.00  0.00    +0.000 C 
ATOM     16  C   UNL     1       2.073   4.797  20.994  0.00  0.00    +0.000 C 
ENDBRANCH  13  15
ENDBRANCH  11  13
ENDBRANCH   1  11
TORSDOF 5
ENDMDL
MODEL 7
REMARK VINA RESULT:      -6.1      2.762      5.576
REMARK  Name = 
REMARK  8 active torsions:
REMARK  status: ('A' for Active; 'I' for Inactive)
REMARK    1  A    between atoms: C_2  and  C_3
REMARK    2  A    between atoms: C_2  and  C_4
REMARK    3  A    between atoms: C_4  and  N_5
REMARK    4  A    between atoms: N_5  and  C_6
REMARK    5  A    between atoms: N_5  and  C_7
REMARK    6  A    between atoms: C_7  and  C_8
REMARK    7  A    between atoms: C_7  and  C_9
REMARK    8  A    between atoms: C_13  and  O_14
REMARK                            x       y       z     vdW  Elec       q    Type
REMARK                         _______ _______ _______ _____ _____    ______ ____
ROOT
ATOM      1  C   UNL     1       4.611   4.753  16.742  0.00  0.00    +0.000 C 
ATOM      2  C   UNL     1       5.620   3.951  15.892  0.00  0.00    +0.000 C 
ENDROOT
BRANCH   1   3
ATOM      3  C   UNL     1       3.925   3.864  17.780  0.00  0.00    +0.000 A 
ATOM      4  C   UNL     1       4.601   3.507  18.959  0.00  0.00    +0.000 A 
ATOM      5  C   UNL     1       3.998   2.665  19.900  0.00  0.00    +0.000 A 
ATOM      6  C   UNL     1       2.723   2.152  19.672  0.00  0.00    +0.000 A 
ATOM      7  C   UNL     1       2.053   2.494  18.505  0.00  0.00    +0.000 A 
ATOM      8  C   UNL     1       2.633   3.350  17.577  0.00  0.00    +0.000 A 
BRANCH   7   9
ATOM      9  O   UNL     1       0.818   1.996  18.213  0.00  0.00    +0.000 OA
ATOM     10  H   UNL     1       0.627   2.180  17.280  0.00  0.00    +0.000 HD
ENDBRANCH   7   9
ENDBRANCH   1   3
BRANCH   1  11
ATOM     11  N   UNL     1       5.125   6.025  17.331  0.00  0.00    +0.000 NA
ATOM     12  C   UNL     1       4.159   7.113  17.144  0.00  0.00    +0.000 C 
BRANCH  11  13
ATOM     13  C   UNL     1       6.459   6.388  16.827  0.00  0.00    +0.000 C 
BRANCH  13  15
ATOM     14  C   UNL     1       7.830   6.043  18.879  0.00  0.00    +0.000 C 
ATOM     15  C   UNL     1       7.466   6.844  17.861  0.00  0.00    +0.000 C 
ATOM     16  C   UNL     1       7.969   8.257  17.762  0.00  0.00    +0.000 C 
ENDBRANCH  13  15
ENDBRANCH  11  13
ENDBRANCH   1  11
TORSDOF 5
ENDMDL
MODEL 8
REMARK VINA RESULT:      -6.1      1.660      2.043
REMARK  Name = 
REMARK  8 active torsions:
REMARK  status: ('A' for Active; 'I' for Inactive)
REMARK    1  A    between atoms: C_2  and  C_3
REMARK    2  A    between atoms: C_2  and  C_4
REMARK    3  A    between atoms: C_4  and  N_5
REMARK    4  A    between atoms: N_5  and  C_6
REMARK    5  A    between atoms: N_5  and  C_7
REMARK    6  A    between atoms: C_7  and  C_8
REMARK    7  A    between atoms: C_7  and  C_9
REMARK    8  A    between atoms: C_13  and  O_14
REMARK                            x       y       z     vdW  Elec       q    Type
REMARK                         _______ _______ _______ _____ _____    ______ ____
ROOT
ATOM      1  C   UNL     1       3.456   4.071  17.746  0.00  0.00    +0.000 C 
ATOM      2  C   UNL     1       2.395   5.191  17.705  0.00  0.00    +0.000 C 
ENDROOT
BRANCH   1   3
ATOM      3  C   UNL     1       4.870   4.645  17.851  0.00  0.00    +0.000 A 
ATOM      4  C   UNL     1       5.432   4.904  19.112  0.00  0.00    +0.000 A 
ATOM      5  C   UNL     1       6.711   5.463  19.222  0.00  0.00    +0.000 A 
ATOM      6  C   UNL     1       7.438   5.788  18.079  0.00  0.00    +0.000 A 
ATOM      7  C   UNL     1       6.884   5.543  16.830  0.00  0.00    +0.000 A 
ATOM      8  C   UNL     1       5.626   4.964  16.711  0.00  0.00    +0.000 A 
BRANCH   7   9
ATOM      9  O   UNL     1       7.534   5.872  15.678  0.00  0.00    +0.000 OA
ATOM     10  H   UNL     1       7.123   5.387  14.945  0.00  0.00    +0.000 HD
ENDBRANCH   7   9
ENDBRANCH   1   3
BRANCH   1  11
ATOM     11  N   UNL     1       3.210   2.978  18.733  0.00  0.00    +0.000 NA
ATOM     12  C   UNL     1       3.542   1.671  18.157  0.00  0.00    +0.000 C 
BRANCH  11  13
ATOM     13  C   UNL     1       1.844   3.002  19.280  0.00  0.00    +0.000 C 
BRANCH  13  15
ATOM     14  C   UNL     1       1.694   4.898  20.889  0.00  0.00    +0.000 C 
ATOM     15  C   UNL     1       1.689   3.570  20.674  0.00  0.00    +0.000 C 
ATOM     16  C   UNL     1       1.627   2.594  21.816  0.00  0.00    +0.000 C 
ENDBRANCH  13  15
ENDBRANCH  11  13
ENDBRANCH   1  11
TORSDOF 5
ENDMDL
MODEL 9
REMARK VINA RESULT:      -6.1      1.121      1.756
REMARK  Name = 
REMARK  8 active torsions:
REMARK  status: ('A' for Active; 'I' for Inactive)
REMARK    1  A    between atoms: C_2  and  C_3
REMARK    2  A    between atoms: C_2  and  C_4
REMARK    3  A    between atoms: C_4  and  N_5
REMARK    4  A    between atoms: N_5  and  C_6
REMARK    5  A    between atoms: N_5  and  C_7
REMARK    6  A    between atoms: C_7  and  C_8
REMARK    7  A    between atoms: C_7  and  C_9
REMARK    8  A    between atoms: C_13  and  O_14
REMARK                            x       y       z     vdW  Elec       q    Type
REMARK                         _______ _______ _______ _____ _____    ______ ____
ROOT
ATOM      1  C   UNL     1       4.835   3.913  17.453  0.00  0.00    +0.000 C 
ATOM      2  C   UNL     1       4.255   4.283  16.071  0.00  0.00    +0.000 C 
ENDROOT
BRANCH   1   3
ATOM      3  C   UNL     1       5.906   4.911  17.894  0.00  0.00    +0.000 A 
ATOM      4  C   UNL     1       6.312   5.938  17.026  0.00  0.00    +0.000 A 
ATOM      5  C   UNL     1       7.316   6.836  17.403  0.00  0.00    +0.000 A 
ATOM      6  C   UNL     1       7.943   6.712  18.641  0.00  0.00    +0.000 A 
ATOM      7  C   UNL     1       7.552   5.695  19.501  0.00  0.00    +0.000 A 
ATOM      8  C   UNL     1       6.538   4.814  19.145  0.00  0.00    +0.000 A 
BRANCH   7   9
ATOM      9  O   UNL     1       8.153   5.504  20.710  0.00  0.00    +0.000 OA
ATOM     10  H   UNL     1       8.543   6.347  20.994  0.00  0.00    +0.000 HD
ENDBRANCH   7   9
ENDBRANCH   1   3
BRANCH   1  11
ATOM     11  N   UNL     1       3.832   3.639  18.526  0.00  0.00    +0.000 NA
ATOM     12  C   UNL     1       3.602   2.198  18.668  0.00  0.00    +0.000 C 
BRANCH  11  13
ATOM     13  C   UNL     1       2.574   4.377  18.330  0.00  0.00    +0.000 C 
BRANCH  13  15
ATOM     14  C   UNL     1       1.931   5.668  20.361  0.00  0.00    +0.000 C 
ATOM     15  C   UNL     1       2.423   5.665  19.109  0.00  0.00    +0.000 C 
ATOM     16  C   UNL     1       2.752   6.947  18.396  0.00  0.00    +0.000 C 
ENDBRANCH  13  15
ENDBRANCH  11  13
ENDBRANCH   1  11
TORSDOF 5
ENDMDL
