MODEL 1
REMARK VINA RESULT:      -6.3      0.000      0.000
REMARK  Name = 
REMARK  10 active torsions:
REMARK  status: ('A' for Active; 'I' for Inactive)
REMARK    1  A    between atoms: C_1  and  O_2
REMARK    2  A    between atoms: O_2  and  C_3
REMARK    3  A    between atoms: C_3  and  C_5
REMARK    4  A    between atoms: C_7  and  S_8
REMARK    5  A    between atoms: S_8  and  N_11
REMARK    6  A    between atoms: N_14  and  C_15
REMARK    7  A    between atoms: C_23  and  C_24
REMARK    8  A    between atoms: C_24  and  O_26
REMARK    9  A    between atoms: O_26  and  C_27
REMARK   10  A    between atoms: C_28  and  C_29
REMARK                            x       y       z     vdW  Elec       q    Type
REMARK                         _______ _______ _______ _____ _____    ______ ____
ROOT
ATOM      1  S   UNL     1       0.757  11.016  20.758  0.00  0.00    +0.000 S 
ATOM      2  O   UNL     1       1.498  11.914  19.907  0.00  0.00    +0.000 OA
ATOM      3  O   UNL     1       1.313  10.550  22.014  0.00  0.00    +0.000 OA
ENDROOT
BRANCH   1   6
ATOM      4  C   UNL     1      -2.649  12.806  22.597  0.00  0.00    +0.000 A 
ATOM      5  S   UNL     1      -1.293  11.776  22.863  0.00  0.00    +0.000 S 
ATOM      6  C   UNL     1      -0.741  11.925  21.239  0.00  0.00    +0.000 A 
ATOM      7  C   UNL     1      -1.687  12.611  20.490  0.00  0.00    +0.000 A 
ATOM      8  C   UNL     1      -2.566  13.396  21.331  0.00  0.00    +0.000 A 
ATOM      9  C   UNL     1      -3.441  14.525  20.876  0.00  0.00    +0.000 C 
BRANCH   4  10
ATOM     10  C   UNL     1      -3.729  13.018  23.575  0.00  0.00    +0.000 C 
ATOM     11  O   UNL     1      -3.687  13.853  24.475  0.00  0.00    +0.000 OA
BRANCH  10  13
ATOM     12  C   UNL     1      -6.012  13.028  23.054  0.00  0.00    +0.000 C 
ATOM     13  O   UNL     1      -4.838  12.251  23.343  0.00  0.00    +0.000 OA
ENDBRANCH  10  13
ENDBRANCH   4  10
BRANCH   7  14
ATOM     14  C   UNL     1      -1.778  12.397  19.062  0.00  0.00    +0.000 C 
ATOM     15  O   UNL     1      -1.091  12.914  18.199  0.00  0.00    +0.000 OA
BRANCH  14  16
ATOM     16  O   UNL     1      -2.826  11.534  18.857  0.00  0.00    +0.000 OA
ATOM     17  C   UNL     1      -3.030  10.867  17.621  0.00  0.00    +0.000 C 
ENDBRANCH  14  16
ENDBRANCH   7  14
ENDBRANCH   1   6
BRANCH   1  18
ATOM     18  N   UNL     1       0.413   9.641  19.807  0.00  0.00    +0.000 NA
ATOM     19  C   UNL     1       0.792   9.596  18.367  0.00  0.00    +0.000 C 
ATOM     20  C   UNL     1       2.017   8.731  17.955  0.00  0.00    +0.000 C 
ATOM     21  N   UNL     1       2.296   7.525  18.768  0.00  0.00    +0.000 N 
ATOM     22  C   UNL     1       1.932   7.607  20.194  0.00  0.00    +0.000 C 
ATOM     23  C   UNL     1       0.582   8.303  20.461  0.00  0.00    +0.000 C 
BRANCH  21  24
ATOM     24  C   UNL     1       3.448   6.772  18.418  0.00  0.00    +0.000 A 
ATOM     25  C   UNL     1       3.881   5.636  19.137  0.00  0.00    +0.000 A 
ATOM     26  C   UNL     1       4.983   4.854  18.735  0.00  0.00    +0.000 A 
ATOM     27  C   UNL     1       5.693   5.177  17.588  0.00  0.00    +0.000 A 
ATOM     28  C   UNL     1       5.307   6.292  16.856  0.00  0.00    +0.000 A 
ATOM     29  C   UNL     1       4.209   7.073  17.269  0.00  0.00    +0.000 A 
ENDBRANCH  21  24
ENDBRANCH   1  18
TORSDOF 7
ENDMDL
MODEL 2
REMARK VINA RESULT:      -6.3      0.530      1.298
REMARK  Name = 
REMARK  10 active torsions:
REMARK  status: ('A' for Active; 'I' for Inactive)
REMARK    1  A    between atoms: C_1  and  O_2
REMARK    2  A    between atoms: O_2  and  C_3
REMARK    3  A    between atoms: C_3  and  C_5
REMARK    4  A    between atoms: C_7  and  S_8
REMARK    5  A    between atoms: S_8  and  N_11
REMARK    6  A    between atoms: N_14  and  C_15
REMARK    7  A    between atoms: C_23  and  C_24
REMARK    8  A    between atoms: C_24  and  O_26
REMARK    9  A    between atoms: O_26  and  C_27
REMARK   10  A    between atoms: C_28  and  C_29
REMARK                            x       y       z     vdW  Elec       q    Type
REMARK                         _______ _______ _______ _____ _____    ______ ____
ROOT
ATOM      1  S   UNL     1       0.735  11.025  20.746  0.00  0.00    +0.000 S 
ATOM      2  O   UNL     1       1.440  11.954  19.897  0.00  0.00    +0.000 OA
ATOM      3  O   UNL     1       1.322  10.555  21.987  0.00  0.00    +0.000 OA
ENDROOT
BRANCH   1   6
ATOM      4  C   UNL     1      -2.674  12.718  22.671  0.00  0.00    +0.000 A 
ATOM      5  S   UNL     1      -1.278  11.733  22.905  0.00  0.00    +0.000 S 
ATOM      6  C   UNL     1      -0.777  11.889  21.265  0.00  0.00    +0.000 A 
ATOM      7  C   UNL     1      -1.766  12.539  20.539  0.00  0.00    +0.000 A 
ATOM      8  C   UNL     1      -2.645  13.302  21.400  0.00  0.00    +0.000 A 
ATOM      9  C   UNL     1      -3.569  14.398  20.963  0.00  0.00    +0.000 C 
BRANCH   4  10
ATOM     10  C   UNL     1      -3.732  12.902  23.679  0.00  0.00    +0.000 C 
ATOM     11  O   UNL     1      -4.351  11.980  24.202  0.00  0.00    +0.000 OA
BRANCH  10  13
ATOM     12  C   UNL     1      -2.952  14.657  25.018  0.00  0.00    +0.000 C 
ATOM     13  O   UNL     1      -3.914  14.207  24.050  0.00  0.00    +0.000 OA
ENDBRANCH  10  13
ENDBRANCH   4  10
BRANCH   7  14
ATOM     14  C   UNL     1      -1.891  12.311  19.115  0.00  0.00    +0.000 C 
ATOM     15  O   UNL     1      -1.145  12.716  18.241  0.00  0.00    +0.000 OA
BRANCH  14  16
ATOM     16  O   UNL     1      -3.045  11.591  18.928  0.00  0.00    +0.000 OA
ATOM     17  C   UNL     1      -3.515  11.231  17.639  0.00  0.00    +0.000 C 
ENDBRANCH  14  16
ENDBRANCH   7  14
ENDBRANCH   1   6
BRANCH   1  18
ATOM     18  N   UNL     1       0.410   9.656  19.781  0.00  0.00    +0.000 NA
ATOM     19  C   UNL     1       0.836   9.611  18.354  0.00  0.00    +0.000 C 
ATOM     20  C   UNL     1       2.066   8.736  17.980  0.00  0.00    +0.000 C 
ATOM     21  N   UNL     1       2.307   7.526  18.798  0.00  0.00    +0.000 N 
ATOM     22  C   UNL     1       1.898   7.608  20.211  0.00  0.00    +0.000 C 
ATOM     23  C   UNL     1       0.545   8.315  20.436  0.00  0.00    +0.000 C 
BRANCH  21  24
ATOM     24  C   UNL     1       3.464   6.763  18.483  0.00  0.00    +0.000 A 
ATOM     25  C   UNL     1       4.265   7.001  17.345  0.00  0.00    +0.000 A 
ATOM     26  C   UNL     1       5.451   6.286  17.085  0.00  0.00    +0.000 A 
ATOM     27  C   UNL     1       5.887   5.305  17.963  0.00  0.00    +0.000 A 
ATOM     28  C   UNL     1       5.125   5.031  19.090  0.00  0.00    +0.000 A 
ATOM     29  C   UNL     1       3.936   5.746  19.339  0.00  0.00    +0.000 A 
ENDBRANCH  21  24
ENDBRANCH   1  18
TORSDOF 7
ENDMDL
MODEL 3
REMARK VINA RESULT:      -6.2      6.206     10.497
REMARK  Name = 
REMARK  10 active torsions:
REMARK  status: ('A' for Active; 'I' for Inactive)
REMARK    1  A    between atoms: C_1  and  O_2
REMARK    2  A    between atoms: O_2  and  C_3
REMARK    3  A    between atoms: C_3  and  C_5
REMARK    4  A    between atoms: C_7  and  S_8
REMARK    5  A    between atoms: S_8  and  N_11
REMARK    6  A    between atoms: N_14  and  C_15
REMARK    7  A    between atoms: C_23  and  C_24
REMARK    8  A    between atoms: C_24  and  O_26
REMARK    9  A    between atoms: O_26  and  C_27
REMARK   10  A    between atoms: C_28  and  C_29
REMARK                            x       y       z     vdW  Elec       q    Type
REMARK                         _______ _______ _______ _____ _____    ______ ____
ROOT
ATOM      1  S   UNL     1       4.030   2.153  19.074  0.00  0.00    +0.000 S 
ATOM      2  O   UNL     1       3.766   0.926  18.363  0.00  0.00    +0.000 OA
ATOM      3  O   UNL     1       5.029   2.209  20.123  0.00  0.00    +0.000 OA
ENDROOT
BRANCH   1   6
ATOM      4  C   UNL     1       5.465   4.263  15.656  0.00  0.00    +0.000 A 
ATOM      5  S   UNL     1       4.957   2.723  16.240  0.00  0.00    +0.000 S 
ATOM      6  C   UNL     1       4.630   3.324  17.820  0.00  0.00    +0.000 A 
ATOM      7  C   UNL     1       5.074   4.636  17.917  0.00  0.00    +0.000 A 
ATOM      8  C   UNL     1       5.207   5.251  16.613  0.00  0.00    +0.000 A 
ATOM      9  C   UNL     1       5.297   6.722  16.340  0.00  0.00    +0.000 C 
BRANCH   4  10
ATOM     10  C   UNL     1       6.080   4.484  14.337  0.00  0.00    +0.000 C 
ATOM     11  O   UNL     1       7.122   5.110  14.160  0.00  0.00    +0.000 OA
BRANCH  10  13
ATOM     12  C   UNL     1       6.313   3.371  12.290  0.00  0.00    +0.000 C 
ATOM     13  O   UNL     1       5.427   3.852  13.314  0.00  0.00    +0.000 OA
ENDBRANCH  10  13
ENDBRANCH   4  10
BRANCH   7  14
ATOM     14  C   UNL     1       5.450   5.183  19.203  0.00  0.00    +0.000 C 
ATOM     15  O   UNL     1       4.735   5.799  19.974  0.00  0.00    +0.000 OA
BRANCH  14  16
ATOM     16  O   UNL     1       6.787   4.920  19.369  0.00  0.00    +0.000 OA
ATOM     17  C   UNL     1       7.795   5.850  19.003  0.00  0.00    +0.000 C 
ENDBRANCH  14  16
ENDBRANCH   7  14
ENDBRANCH   1   6
BRANCH   1  18
ATOM     18  N   UNL     1       2.541   2.631  19.758  0.00  0.00    +0.000 NA
ATOM     19  C   UNL     1       2.484   3.211  21.129  0.00  0.00    +0.000 C 
ATOM     20  C   UNL     1       2.261   4.744  21.270  0.00  0.00    +0.000 C 
ATOM     21  N   UNL     1       1.461   5.410  20.218  0.00  0.00    +0.000 N 
ATOM     22  C   UNL     1       1.556   4.829  18.867  0.00  0.00    +0.000 C 
ATOM     23  C   UNL     1       1.551   3.286  18.843  0.00  0.00    +0.000 C 
BRANCH  21  24
ATOM     24  C   UNL     1       1.310   6.818  20.327  0.00  0.00    +0.000 A 
ATOM     25  C   UNL     1       0.794   7.458  21.475  0.00  0.00    +0.000 A 
ATOM     26  C   UNL     1       0.720   8.860  21.599  0.00  0.00    +0.000 A 
ATOM     27  C   UNL     1       1.167   9.680  20.574  0.00  0.00    +0.000 A 
ATOM     28  C   UNL     1       1.673   9.094  19.422  0.00  0.00    +0.000 A 
ATOM     29  C   UNL     1       1.737   7.690  19.304  0.00  0.00    +0.000 A 
ENDBRANCH  21  24
ENDBRANCH   1  18
TORSDOF 7
ENDMDL
MODEL 4
REMARK VINA RESULT:      -6.2      6.931      7.823
REMARK  Name = 
REMARK  10 active torsions:
REMARK  status: ('A' for Active; 'I' for Inactive)
REMARK    1  A    between atoms: C_1  and  O_2
REMARK    2  A    between atoms: O_2  and  C_3
REMARK    3  A    between atoms: C_3  and  C_5
REMARK    4  A    between atoms: C_7  and  S_8
REMARK    5  A    between atoms: S_8  and  N_11
REMARK    6  A    between atoms: N_14  and  C_15
REMARK    7  A    between atoms: C_23  and  C_24
REMARK    8  A    between atoms: C_24  and  O_26
REMARK    9  A    between atoms: O_26  and  C_27
REMARK   10  A    between atoms: C_28  and  C_29
REMARK                            x       y       z     vdW  Elec       q    Type
REMARK                         _______ _______ _______ _____ _____    ______ ____
ROOT
ATOM      1  S   UNL     1       5.358  16.663  19.947  0.00  0.00    +0.000 S 
ATOM      2  O   UNL     1       4.962  18.049  19.885  0.00  0.00    +0.000 OA
ATOM      3  O   UNL     1       6.045  16.135  21.111  0.00  0.00    +0.000 OA
ENDROOT
BRANCH   1   6
ATOM      4  C   UNL     1       2.092  13.940  20.274  0.00  0.00    +0.000 A 
ATOM      5  S   UNL     1       3.678  14.300  20.845  0.00  0.00    +0.000 S 
ATOM      6  C   UNL     1       3.813  15.710  19.866  0.00  0.00    +0.000 A 
ATOM      7  C   UNL     1       2.727  15.780  19.005  0.00  0.00    +0.000 A 
ATOM      8  C   UNL     1       1.612  14.992  19.486  0.00  0.00    +0.000 A 
ATOM      9  C   UNL     1       0.188  15.117  19.036  0.00  0.00    +0.000 C 
BRANCH   4  10
ATOM     10  C   UNL     1       1.366  12.696  20.582  0.00  0.00    +0.000 C 
ATOM     11  O   UNL     1       0.746  12.503  21.624  0.00  0.00    +0.000 OA
BRANCH  10  13
ATOM     12  C   UNL     1       0.746  10.543  19.904  0.00  0.00    +0.000 C 
ATOM     13  O   UNL     1       1.372  11.789  19.557  0.00  0.00    +0.000 OA
ENDBRANCH  10  13
ENDBRANCH   4  10
BRANCH   7  14
ATOM     14  C   UNL     1       2.844  16.481  17.743  0.00  0.00    +0.000 C 
ATOM     15  O   UNL     1       3.374  16.071  16.725  0.00  0.00    +0.000 OA
BRANCH  14  16
ATOM     16  O   UNL     1       2.288  17.723  17.926  0.00  0.00    +0.000 OA
ATOM     17  C   UNL     1       1.226  18.205  17.117  0.00  0.00    +0.000 C 
ENDBRANCH  14  16
ENDBRANCH   7  14
ENDBRANCH   1   6
BRANCH   1  18
ATOM     18  N   UNL     1       6.364  16.399  18.594  0.00  0.00    +0.000 NA
ATOM     19  C   UNL     1       7.748  16.949  18.554  0.00  0.00    +0.000 C 
ATOM     20  C   UNL     1       8.936  15.968  18.771  0.00  0.00    +0.000 C 
ATOM     21  N   UNL     1       8.748  14.570  18.322  0.00  0.00    +0.000 N 
ATOM     22  C   UNL     1       7.373  14.046  18.395  0.00  0.00    +0.000 C 
ATOM     23  C   UNL     1       6.291  15.049  17.946  0.00  0.00    +0.000 C 
BRANCH  21  24
ATOM     24  C   UNL     1       9.817  13.670  18.575  0.00  0.00    +0.000 A 
ATOM     25  C   UNL     1      10.511  13.613  19.803  0.00  0.00    +0.000 A 
ATOM     26  C   UNL     1      11.520  12.665  20.067  0.00  0.00    +0.000 A 
ATOM     27  C   UNL     1      11.870  11.727  19.107  0.00  0.00    +0.000 A 
ATOM     28  C   UNL     1      11.220  11.752  17.880  0.00  0.00    +0.000 A 
ATOM     29  C   UNL     1      10.217  12.709  17.623  0.00  0.00    +0.000 A 
ENDBRANCH  21  24
ENDBRANCH   1  18
TORSDOF 7
ENDMDL
MODEL 5
REMARK VINA RESULT:      -6.1      2.187      3.300
REMARK  Name = 
REMARK  10 active torsions:
REMARK  status: ('A' for Active; 'I' for Inactive)
REMARK    1  A    between atoms: C_1  and  O_2
REMARK    2  A    between atoms: O_2  and  C_3
REMARK    3  A    between atoms: C_3  and  C_5
REMARK    4  A    between atoms: C_7  and  S_8
REMARK    5  A    between atoms: S_8  and  N_11
REMARK    6  A    between atoms: N_14  and  C_15
REMARK    7  A    between atoms: C_23  and  C_24
REMARK    8  A    between atoms: C_24  and  O_26
REMARK    9  A    between atoms: O_26  and  C_27
REMARK   10  A    between atoms: C_28  and  C_29
REMARK                            x       y       z     vdW  Elec       q    Type
REMARK                         _______ _______ _______ _____ _____    ______ ____
ROOT
ATOM      1  S   UNL     1      -1.053  11.885  18.680  0.00  0.00    +0.000 S 
ATOM      2  O   UNL     1      -1.504  10.722  17.957  0.00  0.00    +0.000 OA
ATOM      3  O   UNL     1      -0.790  13.136  17.993  0.00  0.00    +0.000 OA
ENDROOT
BRANCH   1   6
ATOM      4  C   UNL     1      -4.671  12.576  20.830  0.00  0.00    +0.000 A 
ATOM      5  S   UNL     1      -4.011  11.982  19.352  0.00  0.00    +0.000 S 
ATOM      6  C   UNL     1      -2.389  12.285  19.845  0.00  0.00    +0.000 A 
ATOM      7  C   UNL     1      -2.394  12.985  21.043  0.00  0.00    +0.000 A 
ATOM      8  C   UNL     1      -3.647  12.826  21.749  0.00  0.00    +0.000 A 
ATOM      9  C   UNL     1      -3.880  13.114  23.202  0.00  0.00    +0.000 C 
BRANCH   4  10
ATOM     10  C   UNL     1      -6.110  12.783  21.067  0.00  0.00    +0.000 C 
ATOM     11  O   UNL     1      -6.719  13.801  20.751  0.00  0.00    +0.000 OA
BRANCH  10  13
ATOM     12  C   UNL     1      -7.550  10.984  20.653  0.00  0.00    +0.000 C 
ATOM     13  O   UNL     1      -6.739  11.693  21.604  0.00  0.00    +0.000 OA
ENDBRANCH  10  13
ENDBRANCH   4  10
BRANCH   7  14
ATOM     14  C   UNL     1      -1.278  13.842  21.388  0.00  0.00    +0.000 C 
ATOM     15  O   UNL     1      -0.417  13.621  22.221  0.00  0.00    +0.000 OA
BRANCH  14  16
ATOM     16  O   UNL     1      -1.405  14.981  20.632  0.00  0.00    +0.000 OA
ATOM     17  C   UNL     1      -0.354  15.926  20.502  0.00  0.00    +0.000 C 
ENDBRANCH  14  16
ENDBRANCH   7  14
ENDBRANCH   1   6
BRANCH   1  18
ATOM     18  N   UNL     1       0.388  11.421  19.469  0.00  0.00    +0.000 NA
ATOM     19  C   UNL     1       0.346  10.589  20.704  0.00  0.00    +0.000 C 
ATOM     20  C   UNL     1       0.729   9.086  20.590  0.00  0.00    +0.000 C 
ATOM     21  N   UNL     1       1.724   8.718  19.558  0.00  0.00    +0.000 N 
ATOM     22  C   UNL     1       1.726   9.545  18.338  0.00  0.00    +0.000 C 
ATOM     23  C   UNL     1       1.552  11.055  18.599  0.00  0.00    +0.000 C 
BRANCH  21  24
ATOM     24  C   UNL     1       2.027   7.337  19.426  0.00  0.00    +0.000 A 
ATOM     25  C   UNL     1       1.791   6.389  20.446  0.00  0.00    +0.000 A 
ATOM     26  C   UNL     1       2.025   5.010  20.274  0.00  0.00    +0.000 A 
ATOM     27  C   UNL     1       2.501   4.523  19.066  0.00  0.00    +0.000 A 
ATOM     28  C   UNL     1       2.756   5.421  18.038  0.00  0.00    +0.000 A 
ATOM     29  C   UNL     1       2.526   6.799  18.221  0.00  0.00    +0.000 A 
ENDBRANCH  21  24
ENDBRANCH   1  18
TORSDOF 7
ENDMDL
MODEL 6
REMARK VINA RESULT:      -6.1      1.843      2.758
REMARK  Name = 
REMARK  10 active torsions:
REMARK  status: ('A' for Active; 'I' for Inactive)
REMARK    1  A    between atoms: C_1  and  O_2
REMARK    2  A    between atoms: O_2  and  C_3
REMARK    3  A    between atoms: C_3  and  C_5
REMARK    4  A    between atoms: C_7  and  S_8
REMARK    5  A    between atoms: S_8  and  N_11
REMARK    6  A    between atoms: N_14  and  C_15
REMARK    7  A    between atoms: C_23  and  C_24
REMARK    8  A    between atoms: C_24  and  O_26
REMARK    9  A    between atoms: O_26  and  C_27
REMARK   10  A    between atoms: C_28  and  C_29
REMARK                            x       y       z     vdW  Elec       q    Type
REMARK                         _______ _______ _______ _____ _____    ______ ____
ROOT
ATOM      1  S   UNL     1      -1.374  11.336  18.576  0.00  0.00    +0.000 S 
ATOM      2  O   UNL     1      -1.916  10.034  18.272  0.00  0.00    +0.000 OA
ATOM      3  O   UNL     1      -1.114  12.301  17.525  0.00  0.00    +0.000 OA
ENDROOT
BRANCH   1   6
ATOM      4  C   UNL     1      -3.735  13.151  21.629  0.00  0.00    +0.000 A 
ATOM      5  S   UNL     1      -2.202  12.445  21.277  0.00  0.00    +0.000 S 
ATOM      6  C   UNL     1      -2.612  12.145  19.632  0.00  0.00    +0.000 A 
ATOM      7  C   UNL     1      -3.956  12.429  19.431  0.00  0.00    +0.000 A 
ATOM      8  C   UNL     1      -4.472  13.317  20.451  0.00  0.00    +0.000 A 
ATOM      9  C   UNL     1      -5.736  14.119  20.362  0.00  0.00    +0.000 C 
BRANCH   4  10
ATOM     10  C   UNL     1      -4.184  13.518  22.983  0.00  0.00    +0.000 C 
ATOM     11  O   UNL     1      -3.946  14.598  23.517  0.00  0.00    +0.000 OA
BRANCH  10  13
ATOM     12  C   UNL     1      -4.618  12.314  24.944  0.00  0.00    +0.000 C 
ATOM     13  O   UNL     1      -4.973  12.569  23.575  0.00  0.00    +0.000 OA
ENDBRANCH  10  13
ENDBRANCH   4  10
BRANCH   7  14
ATOM     14  C   UNL     1      -4.689  11.764  18.375  0.00  0.00    +0.000 C 
ATOM     15  O   UNL     1      -4.585  11.959  17.177  0.00  0.00    +0.000 OA
BRANCH  14  16
ATOM     16  O   UNL     1      -5.568  10.902  18.984  0.00  0.00    +0.000 OA
ATOM     17  C   UNL     1      -6.903  10.735  18.533  0.00  0.00    +0.000 C 
ENDBRANCH  14  16
ENDBRANCH   7  14
ENDBRANCH   1   6
BRANCH   1  18
ATOM     18  N   UNL     1       0.099  11.054  19.391  0.00  0.00    +0.000 NA
ATOM     19  C   UNL     1       0.160  10.133  20.560  0.00  0.00    +0.000 C 
ATOM     20  C   UNL     1       0.791   8.726  20.356  0.00  0.00    +0.000 C 
ATOM     21  N   UNL     1       1.865   8.609  19.343  0.00  0.00    +0.000 N 
ATOM     22  C   UNL     1       1.765   9.516  18.186  0.00  0.00    +0.000 C 
ATOM     23  C   UNL     1       1.333  10.953  18.547  0.00  0.00    +0.000 C 
BRANCH  21  24
ATOM     24  C   UNL     1       2.397   7.310  19.125  0.00  0.00    +0.000 A 
ATOM     25  C   UNL     1       3.204   6.977  18.015  0.00  0.00    +0.000 A 
ATOM     26  C   UNL     1       3.788   5.705  17.851  0.00  0.00    +0.000 A 
ATOM     27  C   UNL     1       3.589   4.713  18.799  0.00  0.00    +0.000 A 
ATOM     28  C   UNL     1       2.794   4.993  19.902  0.00  0.00    +0.000 A 
ATOM     29  C   UNL     1       2.208   6.266  20.055  0.00  0.00    +0.000 A 
ENDBRANCH  21  24
ENDBRANCH   1  18
TORSDOF 7
ENDMDL
MODEL 7
REMARK VINA RESULT:      -6.0      1.998      3.033
REMARK  Name = 
REMARK  10 active torsions:
REMARK  status: ('A' for Active; 'I' for Inactive)
REMARK    1  A    between atoms: C_1  and  O_2
REMARK    2  A    between atoms: O_2  and  C_3
REMARK    3  A    between atoms: C_3  and  C_5
REMARK    4  A    between atoms: C_7  and  S_8
REMARK    5  A    between atoms: S_8  and  N_11
REMARK    6  A    between atoms: N_14  and  C_15
REMARK    7  A    between atoms: C_23  and  C_24
REMARK    8  A    between atoms: C_24  and  O_26
REMARK    9  A    between atoms: O_26  and  C_27
REMARK   10  A    between atoms: C_28  and  C_29
REMARK                            x       y       z     vdW  Elec       q    Type
REMARK                         _______ _______ _______ _____ _____    ______ ____
ROOT
ATOM      1  S   UNL     1      -1.869  11.440  18.678  0.00  0.00    +0.000 S 
ATOM      2  O   UNL     1      -2.317  10.118  18.314  0.00  0.00    +0.000 OA
ATOM      3  O   UNL     1      -1.621  12.450  17.667  0.00  0.00    +0.000 OA
ENDROOT
BRANCH   1   6
ATOM      4  C   UNL     1      -4.451  13.078  21.652  0.00  0.00    +0.000 A 
ATOM      5  S   UNL     1      -2.848  12.528  21.337  0.00  0.00    +0.000 S 
ATOM      6  C   UNL     1      -3.200  12.142  19.697  0.00  0.00    +0.000 A 
ATOM      7  C   UNL     1      -4.564  12.278  19.472  0.00  0.00    +0.000 A 
ATOM      8  C   UNL     1      -5.184  13.134  20.461  0.00  0.00    +0.000 A 
ATOM      9  C   UNL     1      -6.523  13.795  20.334  0.00  0.00    +0.000 C 
BRANCH   4  10
ATOM     10  C   UNL     1      -4.956  13.431  22.989  0.00  0.00    +0.000 C 
ATOM     11  O   UNL     1      -4.748  14.509  23.539  0.00  0.00    +0.000 OA
BRANCH  10  13
ATOM     12  C   UNL     1      -6.979  13.002  24.088  0.00  0.00    +0.000 C 
ATOM     13  O   UNL     1      -5.759  12.472  23.543  0.00  0.00    +0.000 OA
ENDBRANCH  10  13
ENDBRANCH   4  10
BRANCH   7  14
ATOM     14  C   UNL     1      -5.207  11.511  18.427  0.00  0.00    +0.000 C 
ATOM     15  O   UNL     1      -5.606  10.362  18.501  0.00  0.00    +0.000 OA
BRANCH  14  16
ATOM     16  O   UNL     1      -5.237  12.311  17.311  0.00  0.00    +0.000 OA
ATOM     17  C   UNL     1      -6.412  12.988  16.893  0.00  0.00    +0.000 C 
ENDBRANCH  14  16
ENDBRANCH   7  14
ENDBRANCH   1   6
BRANCH   1  18
ATOM     18  N   UNL     1      -0.419  11.222  19.553  0.00  0.00    +0.000 NA
ATOM     19  C   UNL     1      -0.322  10.187  20.620  0.00  0.00    +0.000 C 
ATOM     20  C   UNL     1       0.470   8.884  20.311  0.00  0.00    +0.000 C 
ATOM     21  N   UNL     1       1.602   8.991  19.363  0.00  0.00    +0.000 N 
ATOM     22  C   UNL     1       1.467  10.007  18.304  0.00  0.00    +0.000 C 
ATOM     23  C   UNL     1       0.862  11.342  18.786  0.00  0.00    +0.000 C 
BRANCH  21  24
ATOM     24  C   UNL     1       2.284   7.786  19.045  0.00  0.00    +0.000 A 
ATOM     25  C   UNL     1       3.104   7.635  17.906  0.00  0.00    +0.000 A 
ATOM     26  C   UNL     1       3.835   6.459  17.642  0.00  0.00    +0.000 A 
ATOM     27  C   UNL     1       3.776   5.384  18.517  0.00  0.00    +0.000 A 
ATOM     28  C   UNL     1       2.974   5.486  19.646  0.00  0.00    +0.000 A 
ATOM     29  C   UNL     1       2.241   6.663  19.898  0.00  0.00    +0.000 A 
ENDBRANCH  21  24
ENDBRANCH   1  18
TORSDOF 7
ENDMDL
MODEL 8
REMARK VINA RESULT:      -6.0      3.947      8.298
REMARK  Name = 
REMARK  10 active torsions:
REMARK  status: ('A' for Active; 'I' for Inactive)
REMARK    1  A    between atoms: C_1  and  O_2
REMARK    2  A    between atoms: O_2  and  C_3
REMARK    3  A    between atoms: C_3  and  C_5
REMARK    4  A    between atoms: C_7  and  S_8
REMARK    5  A    between atoms: S_8  and  N_11
REMARK    6  A    between atoms: N_14  and  C_15
REMARK    7  A    between atoms: C_23  and  C_24
REMARK    8  A    between atoms: C_24  and  O_26
REMARK    9  A    between atoms: O_26  and  C_27
REMARK   10  A    between atoms: C_28  and  C_29
REMARK                            x       y       z     vdW  Elec       q    Type
REMARK                         _______ _______ _______ _____ _____    ______ ____
ROOT
ATOM      1  S   UNL     1       0.009  13.028  21.215  0.00  0.00    +0.000 S 
ATOM      2  O   UNL     1       1.218  12.242  21.249  0.00  0.00    +0.000 OA
ATOM      3  O   UNL     1       0.033  14.418  20.800  0.00  0.00    +0.000 OA
ENDROOT
BRANCH   1   6
ATOM      4  C   UNL     1      -3.047  11.675  18.565  0.00  0.00    +0.000 A 
ATOM      5  S   UNL     1      -2.635  12.875  19.731  0.00  0.00    +0.000 S 
ATOM      6  C   UNL     1      -1.067  12.215  19.996  0.00  0.00    +0.000 A 
ATOM      7  C   UNL     1      -0.955  11.006  19.324  0.00  0.00    +0.000 A 
ATOM      8  C   UNL     1      -1.926  10.897  18.256  0.00  0.00    +0.000 A 
ATOM      9  C   UNL     1      -1.868   9.931  17.111  0.00  0.00    +0.000 C 
BRANCH   4  10
ATOM     10  C   UNL     1      -4.393  11.509  17.991  0.00  0.00    +0.000 C 
ATOM     11  O   UNL     1      -4.678  11.760  16.822  0.00  0.00    +0.000 OA
BRANCH  10  13
ATOM     12  C   UNL     1      -6.644  10.981  18.360  0.00  0.00    +0.000 C 
ATOM     13  O   UNL     1      -5.298  10.964  18.862  0.00  0.00    +0.000 OA
ENDBRANCH  10  13
ENDBRANCH   4  10
BRANCH   7  14
ATOM     14  C   UNL     1      -0.033   9.995  19.797  0.00  0.00    +0.000 C 
ATOM     15  O   UNL     1       1.021   9.666  19.281  0.00  0.00    +0.000 OA
BRANCH  14  16
ATOM     16  O   UNL     1      -0.599   9.435  20.916  0.00  0.00    +0.000 OA
ATOM     17  C   UNL     1       0.178   8.822  21.933  0.00  0.00    +0.000 C 
ENDBRANCH  14  16
ENDBRANCH   7  14
ENDBRANCH   1   6
BRANCH   1  18
ATOM     18  N   UNL     1      -0.634  12.975  22.795  0.00  0.00    +0.000 NA
ATOM     19  C   UNL     1      -1.034  14.226  23.497  0.00  0.00    +0.000 C 
ATOM     20  C   UNL     1      -2.551  14.545  23.625  0.00  0.00    +0.000 C 
ATOM     21  N   UNL     1      -3.478  13.393  23.709  0.00  0.00    +0.000 N 
ATOM     22  C   UNL     1      -3.067  12.177  22.985  0.00  0.00    +0.000 C 
ATOM     23  C   UNL     1      -1.566  11.845  23.112  0.00  0.00    +0.000 C 
BRANCH  21  24
ATOM     24  C   UNL     1      -4.865  13.694  23.771  0.00  0.00    +0.000 A 
ATOM     25  C   UNL     1      -5.861  12.720  24.001  0.00  0.00    +0.000 A 
ATOM     26  C   UNL     1      -7.227  13.043  24.134  0.00  0.00    +0.000 A 
ATOM     27  C   UNL     1      -7.649  14.361  24.048  0.00  0.00    +0.000 A 
ATOM     28  C   UNL     1      -6.704  15.351  23.813  0.00  0.00    +0.000 A 
ATOM     29  C   UNL     1      -5.341  15.018  23.674  0.00  0.00    +0.000 A 
ENDBRANCH  21  24
ENDBRANCH   1  18
TORSDOF 7
ENDMDL
MODEL 9
REMARK VINA RESULT:      -6.0      2.103      2.861
REMARK  Name = 
REMARK  10 active torsions:
REMARK  status: ('A' for Active; 'I' for Inactive)
REMARK    1  A    between atoms: C_1  and  O_2
REMARK    2  A    between atoms: O_2  and  C_3
REMARK    3  A    between atoms: C_3  and  C_5
REMARK    4  A    between atoms: C_7  and  S_8
REMARK    5  A    between atoms: S_8  and  N_11
REMARK    6  A    between atoms: N_14  and  C_15
REMARK    7  A    between atoms: C_23  and  C_24
REMARK    8  A    between atoms: C_24  and  O_26
REMARK    9  A    between atoms: O_26  and  C_27
REMARK   10  A    between atoms: C_28  and  C_29
REMARK                            x       y       z     vdW  Elec       q    Type
REMARK                         _______ _______ _______ _____ _____    ______ ____
ROOT
ATOM      1  S   UNL     1       0.413  12.336  20.581  0.00  0.00    +0.000 S 
ATOM      2  O   UNL     1       0.307  13.266  19.483  0.00  0.00    +0.000 OA
ATOM      3  O   UNL     1       1.683  12.101  21.241  0.00  0.00    +0.000 OA
ENDROOT
BRANCH   1   6
ATOM      4  C   UNL     1      -2.589  13.306  23.452  0.00  0.00    +0.000 A 
ATOM      5  S   UNL     1      -2.138  12.188  22.218  0.00  0.00    +0.000 S 
ATOM      6  C   UNL     1      -0.657  13.002  21.890  0.00  0.00    +0.000 A 
ATOM      7  C   UNL     1      -0.618  14.195  22.599  0.00  0.00    +0.000 A 
ATOM      8  C   UNL     1      -1.527  14.176  23.725  0.00  0.00    +0.000 A 
ATOM      9  C   UNL     1      -1.490  15.105  24.901  0.00  0.00    +0.000 C 
BRANCH   4  10
ATOM     10  C   UNL     1      -3.907  13.324  24.108  0.00  0.00    +0.000 C 
ATOM     11  O   UNL     1      -4.250  12.532  24.982  0.00  0.00    +0.000 OA
BRANCH  10  13
ATOM     12  C   UNL     1      -5.589  14.024  22.637  0.00  0.00    +0.000 C 
ATOM     13  O   UNL     1      -4.701  14.367  23.714  0.00  0.00    +0.000 OA
ENDBRANCH  10  13
ENDBRANCH   4  10
BRANCH   7  14
ATOM     14  C   UNL     1       0.176  15.304  22.113  0.00  0.00    +0.000 C 
ATOM     15  O   UNL     1      -0.163  16.144  21.298  0.00  0.00    +0.000 OA
BRANCH  14  16
ATOM     16  O   UNL     1       1.409  15.199  22.707  0.00  0.00    +0.000 OA
ATOM     17  C   UNL     1       2.617  15.404  21.990  0.00  0.00    +0.000 C 
ENDBRANCH  14  16
ENDBRANCH   7  14
ENDBRANCH   1   6
BRANCH   1  18
ATOM     18  N   UNL     1      -0.139  10.835  19.983  0.00  0.00    +0.000 NA
ATOM     19  C   UNL     1       0.011  10.488  18.542  0.00  0.00    +0.000 C 
ATOM     20  C   UNL     1       1.114   9.468  18.142  0.00  0.00    +0.000 C 
ATOM     21  N   UNL     1       1.457   8.421  19.131  0.00  0.00    +0.000 N 
ATOM     22  C   UNL     1       1.322   8.801  20.549  0.00  0.00    +0.000 C 
ATOM     23  C   UNL     1       0.064   9.638  20.860  0.00  0.00    +0.000 C 
BRANCH  21  24
ATOM     24  C   UNL     1       2.504   7.528  18.779  0.00  0.00    +0.000 A 
ATOM     25  C   UNL     1       2.789   6.344  19.494  0.00  0.00    +0.000 A 
ATOM     26  C   UNL     1       3.782   5.429  19.090  0.00  0.00    +0.000 A 
ATOM     27  C   UNL     1       4.528   5.663  17.944  0.00  0.00    +0.000 A 
ATOM     28  C   UNL     1       4.287   6.820  17.215  0.00  0.00    +0.000 A 
ATOM     29  C   UNL     1       3.297   7.733  17.631  0.00  0.00    +0.000 A 
ENDBRANCH  21  24
ENDBRANCH   1  18
TORSDOF 7
ENDMDL
