MODEL 1
REMARK VINA RESULT:      -8.5      0.000      0.000
REMARK  Name = 
REMARK  5 active torsions:
REMARK  status: ('A' for Active; 'I' for Inactive)
REMARK    1  A    between atoms: C_1  and  O_2
REMARK    2  A    between atoms: O_2  and  C_3
REMARK    3  A    between atoms: C_9  and  C_10
REMARK    4  A    between atoms: C_14  and  C_15
REMARK    5  A    between atoms: C_15  and  C_16
REMARK                            x       y       z     vdW  Elec       q    Type
REMARK                         _______ _______ _______ _____ _____    ______ ____
ROOT
ATOM      1  C   UNL     1       1.930   8.186  19.270  0.00  0.00    +0.000 A 
ATOM      2  C   UNL     1       1.430   8.073  20.552  0.00  0.00    +0.000 A 
ATOM      3  C   UNL     1       0.695   9.216  20.970  0.00  0.00    +0.000 A 
ATOM      4 CL   UNL     1      -0.037   9.238  22.520  0.00  0.00    +0.000 Cl
ATOM      5  C   UNL     1       0.643  10.205  20.000  0.00  0.00    +0.000 A 
ATOM      6  S   UNL     1       1.555   9.711  18.612  0.00  0.00    +0.000 S 
ENDROOT
BRANCH   5   7
ATOM      7  C   UNL     1      -0.098  11.566  20.005  0.00  0.00    +0.000 C 
ATOM      8  C   UNL     1       0.211  12.299  18.678  0.00  0.00    +0.000 C 
ATOM      9  C   UNL     1       0.359  12.335  21.243  0.00  0.00    +0.000 C 
ATOM     10  S   UNL     1      -0.516  13.841  21.509  0.00  0.00    +0.000 S 
ATOM     11  O   UNL     1      -0.165  14.750  20.433  0.00  0.00    +0.000 OA
ATOM     12  O   UNL     1      -0.213  14.236  22.875  0.00  0.00    +0.000 OA
ATOM     13  C   UNL     1      -2.261  13.374  21.367  0.00  0.00    +0.000 C 
ATOM     14  C   UNL     1      -3.219  14.601  21.518  0.00  0.00    +0.000 C 
ATOM     15  C   UNL     1      -3.308  14.295  23.023  0.00  0.00    +0.000 C 
ATOM     16  C   UNL     1      -2.885  12.851  22.700  0.00  0.00    +0.000 C 
ATOM     17  C   UNL     1      -2.430  12.424  20.149  0.00  0.00    +0.000 C 
ATOM     18  N   UNL     1      -3.360  12.495  19.256  0.00  0.00    +0.000 NA
ATOM     19  N   UNL     1      -1.558  11.381  20.076  0.00  0.00    +0.000 N 
ATOM     20  H   UNL     1      -3.981  13.294  19.402  0.00  0.00    +0.000 HD
ATOM     21  H   UNL     1      -1.863  10.757  19.326  0.00  0.00    +0.000 HD
ENDBRANCH   5   7
BRANCH   1  28
ATOM     22  C   UNL     1       5.511   5.987  16.614  0.00  0.00    +0.000 A 
ATOM     23  C   UNL     1       5.704   4.672  16.161  0.00  0.00    +0.000 A 
ATOM     24  C   UNL     1       4.780   3.661  16.432  0.00  0.00    +0.000 A 
ATOM     25  C   UNL     1       3.626   3.932  17.167  0.00  0.00    +0.000 A 
ATOM     26  C   UNL     1       3.401   5.239  17.630  0.00  0.00    +0.000 A 
ATOM     27  C   UNL     1       2.370   5.843  18.394  0.00  0.00    +0.000 A 
ATOM     28  C   UNL     1       2.674   7.181  18.563  0.00  0.00    +0.000 A 
ATOM     29  N   UNL     1       3.860   7.398  17.901  0.00  0.00    +0.000 N 
ATOM     30  C   UNL     1       4.336   6.231  17.340  0.00  0.00    +0.000 A 
ATOM     31  H   UNL     1       4.336   8.288  17.831  0.00  0.00    +0.000 HD
BRANCH  22  33
ATOM     32  C   UNL     1       7.386   7.212  17.383  0.00  0.00    +0.000 C 
ATOM     33  O   UNL     1       6.366   7.034  16.408  0.00  0.00    +0.000 OA
ENDBRANCH  22  33
ENDBRANCH   1  28
TORSDOF 3
ENDMDL
MODEL 2
REMARK VINA RESULT:      -8.4      1.246      1.926
REMARK  Name = 
REMARK  5 active torsions:
REMARK  status: ('A' for Active; 'I' for Inactive)
REMARK    1  A    between atoms: C_1  and  O_2
REMARK    2  A    between atoms: O_2  and  C_3
REMARK    3  A    between atoms: C_9  and  C_10
REMARK    4  A    between atoms: C_14  and  C_15
REMARK    5  A    between atoms: C_15  and  C_16
REMARK                            x       y       z     vdW  Elec       q    Type
REMARK                         _______ _______ _______ _____ _____    ______ ____
ROOT
ATOM      1  C   UNL     1       1.873   8.379  19.284  0.00  0.00    +0.000 A 
ATOM      2  C   UNL     1       1.305   8.185  20.528  0.00  0.00    +0.000 A 
ATOM      3  C   UNL     1       0.539   9.296  20.973  0.00  0.00    +0.000 A 
ATOM      4 CL   UNL     1      -0.277   9.219  22.480  0.00  0.00    +0.000 Cl
ATOM      5  C   UNL     1       0.531  10.342  20.064  0.00  0.00    +0.000 A 
ATOM      6  S   UNL     1       1.521   9.938  18.701  0.00  0.00    +0.000 S 
ENDROOT
BRANCH   5   7
ATOM      7  C   UNL     1      -0.221  11.696  20.111  0.00  0.00    +0.000 C 
ATOM      8  C   UNL     1       0.066  12.464  18.798  0.00  0.00    +0.000 C 
ATOM      9  C   UNL     1       0.245  12.439  21.362  0.00  0.00    +0.000 C 
ATOM     10  S   UNL     1      -0.638  13.931  21.675  0.00  0.00    +0.000 S 
ATOM     11  O   UNL     1      -0.308  14.868  20.617  0.00  0.00    +0.000 OA
ATOM     12  O   UNL     1      -0.321  14.295  23.047  0.00  0.00    +0.000 OA
ATOM     13  C   UNL     1      -2.381  13.452  21.543  0.00  0.00    +0.000 C 
ATOM     14  C   UNL     1      -3.347  14.667  21.735  0.00  0.00    +0.000 C 
ATOM     15  C   UNL     1      -3.415  14.325  23.234  0.00  0.00    +0.000 C 
ATOM     16  C   UNL     1      -2.985  12.892  22.871  0.00  0.00    +0.000 C 
ATOM     17  C   UNL     1      -2.558  12.530  20.305  0.00  0.00    +0.000 C 
ATOM     18  N   UNL     1      -3.500  12.615  19.426  0.00  0.00    +0.000 NA
ATOM     19  N   UNL     1      -1.678  11.497  20.195  0.00  0.00    +0.000 N 
ATOM     20  H   UNL     1      -4.125  13.406  19.598  0.00  0.00    +0.000 HD
ATOM     21  H   UNL     1      -1.988  10.889  19.434  0.00  0.00    +0.000 HD
ENDBRANCH   5   7
BRANCH   1  28
ATOM     22  C   UNL     1       3.740   4.044  17.723  0.00  0.00    +0.000 A 
ATOM     23  C   UNL     1       4.696   3.701  16.754  0.00  0.00    +0.000 A 
ATOM     24  C   UNL     1       5.349   4.672  15.993  0.00  0.00    +0.000 A 
ATOM     25  C   UNL     1       5.067   6.026  16.176  0.00  0.00    +0.000 A 
ATOM     26  C   UNL     1       4.118   6.402  17.141  0.00  0.00    +0.000 A 
ATOM     27  C   UNL     1       3.596   7.651  17.566  0.00  0.00    +0.000 A 
ATOM     28  C   UNL     1       2.663   7.422  18.560  0.00  0.00    +0.000 A 
ATOM     29  N   UNL     1       2.626   6.061  18.754  0.00  0.00    +0.000 N 
ATOM     30  C   UNL     1       3.486   5.412  17.892  0.00  0.00    +0.000 A 
ATOM     31  H   UNL     1       2.045   5.582  19.431  0.00  0.00    +0.000 HD
BRANCH  22  33
ATOM     32  C   UNL     1       3.281   1.781  18.254  0.00  0.00    +0.000 C 
ATOM     33  O   UNL     1       3.043   3.162  18.503  0.00  0.00    +0.000 OA
ENDBRANCH  22  33
ENDBRANCH   1  28
TORSDOF 3
ENDMDL
MODEL 3
REMARK VINA RESULT:      -8.4      1.741      2.359
REMARK  Name = 
REMARK  5 active torsions:
REMARK  status: ('A' for Active; 'I' for Inactive)
REMARK    1  A    between atoms: C_1  and  O_2
REMARK    2  A    between atoms: O_2  and  C_3
REMARK    3  A    between atoms: C_9  and  C_10
REMARK    4  A    between atoms: C_14  and  C_15
REMARK    5  A    between atoms: C_15  and  C_16
REMARK                            x       y       z     vdW  Elec       q    Type
REMARK                         _______ _______ _______ _____ _____    ______ ____
ROOT
ATOM      1  C   UNL     1       1.523   8.378  20.085  0.00  0.00    +0.000 A 
ATOM      2  C   UNL     1       0.998   8.419  21.361  0.00  0.00    +0.000 A 
ATOM      3  C   UNL     1       0.337   9.643  21.655  0.00  0.00    +0.000 A 
ATOM      4 CL   UNL     1      -0.416   9.859  23.181  0.00  0.00    +0.000 Cl
ATOM      5  C   UNL     1       0.367  10.538  20.597  0.00  0.00    +0.000 A 
ATOM      6  S   UNL     1       1.264   9.855  19.281  0.00  0.00    +0.000 S 
ENDROOT
BRANCH   5   7
ATOM      7  C   UNL     1      -0.279  11.940  20.460  0.00  0.00    +0.000 C 
ATOM      8  C   UNL     1       0.018  12.482  19.041  0.00  0.00    +0.000 C 
ATOM      9  C   UNL     1       0.285  12.818  21.575  0.00  0.00    +0.000 C 
ATOM     10  S   UNL     1      -0.472  14.405  21.683  0.00  0.00    +0.000 S 
ATOM     11  O   UNL     1      -0.110  15.148  20.490  0.00  0.00    +0.000 OA
ATOM     12  O   UNL     1      -0.081  14.940  22.978  0.00  0.00    +0.000 OA
ATOM     13  C   UNL     1      -2.250  14.053  21.665  0.00  0.00    +0.000 C 
ATOM     14  C   UNL     1      -3.114  15.355  21.697  0.00  0.00    +0.000 C 
ATOM     15  C   UNL     1      -3.155  15.242  23.231  0.00  0.00    +0.000 C 
ATOM     16  C   UNL     1      -2.847  13.743  23.075  0.00  0.00    +0.000 C 
ATOM     17  C   UNL     1      -2.538  12.976  20.582  0.00  0.00    +0.000 C 
ATOM     18  N   UNL     1      -3.501  13.006  19.722  0.00  0.00    +0.000 NA
ATOM     19  N   UNL     1      -1.743  11.872  20.607  0.00  0.00    +0.000 N 
ATOM     20  H   UNL     1      -4.059  13.860  19.790  0.00  0.00    +0.000 HD
ATOM     21  H   UNL     1      -2.124  11.185  19.952  0.00  0.00    +0.000 HD
ENDBRANCH   5   7
BRANCH   1  28
ATOM     22  C   UNL     1       3.394   3.819  19.428  0.00  0.00    +0.000 A 
ATOM     23  C   UNL     1       4.115   3.215  18.386  0.00  0.00    +0.000 A 
ATOM     24  C   UNL     1       4.457   3.917  17.229  0.00  0.00    +0.000 A 
ATOM     25  C   UNL     1       4.088   5.254  17.075  0.00  0.00    +0.000 A 
ATOM     26  C   UNL     1       3.370   5.888  18.102  0.00  0.00    +0.000 A 
ATOM     27  C   UNL     1       2.840   7.195  18.264  0.00  0.00    +0.000 A 
ATOM     28  C   UNL     1       2.208   7.263  19.491  0.00  0.00    +0.000 A 
ATOM     29  N   UNL     1       2.362   6.029  20.079  0.00  0.00    +0.000 N 
ATOM     30  C   UNL     1       3.047   5.166  19.250  0.00  0.00    +0.000 A 
ATOM     31  H   UNL     1       2.017   5.770  20.995  0.00  0.00    +0.000 HD
BRANCH  22  33
ATOM     32  C   UNL     1       1.767   2.506  20.543  0.00  0.00    +0.000 C 
ATOM     33  O   UNL     1       3.005   3.206  20.588  0.00  0.00    +0.000 OA
ENDBRANCH  22  33
ENDBRANCH   1  28
TORSDOF 3
ENDMDL
MODEL 4
REMARK VINA RESULT:      -8.3      2.576      3.367
REMARK  Name = 
REMARK  5 active torsions:
REMARK  status: ('A' for Active; 'I' for Inactive)
REMARK    1  A    between atoms: C_1  and  O_2
REMARK    2  A    between atoms: O_2  and  C_3
REMARK    3  A    between atoms: C_9  and  C_10
REMARK    4  A    between atoms: C_14  and  C_15
REMARK    5  A    between atoms: C_15  and  C_16
REMARK                            x       y       z     vdW  Elec       q    Type
REMARK                         _______ _______ _______ _____ _____    ______ ____
ROOT
ATOM      1  C   UNL     1       1.308   9.640  19.327  0.00  0.00    +0.000 A 
ATOM      2  C   UNL     1       1.489  10.763  18.543  0.00  0.00    +0.000 A 
ATOM      3  C   UNL     1       0.792  11.903  19.028  0.00  0.00    +0.000 A 
ATOM      4 CL   UNL     1       0.934  13.402  18.207  0.00  0.00    +0.000 Cl
ATOM      5  C   UNL     1       0.073  11.641  20.184  0.00  0.00    +0.000 A 
ATOM      6  S   UNL     1       0.238   9.969  20.608  0.00  0.00    +0.000 S 
ENDROOT
BRANCH   5   7
ATOM      7  C   UNL     1      -0.762  12.595  21.075  0.00  0.00    +0.000 C 
ATOM      8  C   UNL     1       0.180  13.677  21.655  0.00  0.00    +0.000 C 
ATOM      9  C   UNL     1      -1.443  11.747  22.147  0.00  0.00    +0.000 C 
ATOM     10  S   UNL     1      -2.581  12.644  23.150  0.00  0.00    +0.000 S 
ATOM     11  O   UNL     1      -1.817  13.590  23.942  0.00  0.00    +0.000 OA
ATOM     12  O   UNL     1      -3.371  11.639  23.842  0.00  0.00    +0.000 OA
ATOM     13  C   UNL     1      -3.613  13.540  21.960  0.00  0.00    +0.000 C 
ATOM     14  C   UNL     1      -4.669  14.456  22.660  0.00  0.00    +0.000 C 
ATOM     15  C   UNL     1      -5.672  13.292  22.583  0.00  0.00    +0.000 C 
ATOM     16  C   UNL     1      -4.830  12.713  21.432  0.00  0.00    +0.000 C 
ATOM     17  C   UNL     1      -2.701  14.139  20.854  0.00  0.00    +0.000 C 
ATOM     18  N   UNL     1      -2.777  15.337  20.378  0.00  0.00    +0.000 NA
ATOM     19  N   UNL     1      -1.800  13.289  20.292  0.00  0.00    +0.000 N 
ATOM     20  H   UNL     1      -3.494  15.898  20.843  0.00  0.00    +0.000 HD
ATOM     21  H   UNL     1      -1.372  13.755  19.490  0.00  0.00    +0.000 HD
ENDBRANCH   5   7
BRANCH   1  28
ATOM     22  C   UNL     1       2.773   4.949  20.077  0.00  0.00    +0.000 A 
ATOM     23  C   UNL     1       3.490   4.028  19.298  0.00  0.00    +0.000 A 
ATOM     24  C   UNL     1       3.961   4.356  18.025  0.00  0.00    +0.000 A 
ATOM     25  C   UNL     1       3.729   5.622  17.486  0.00  0.00    +0.000 A 
ATOM     26  C   UNL     1       3.018   6.567  18.243  0.00  0.00    +0.000 A 
ATOM     27  C   UNL     1       2.606   7.904  18.004  0.00  0.00    +0.000 A 
ATOM     28  C   UNL     1       1.916   8.356  19.113  0.00  0.00    +0.000 A 
ATOM     29  N   UNL     1       1.920   7.325  20.022  0.00  0.00    +0.000 N 
ATOM     30  C   UNL     1       2.566   6.217  19.514  0.00  0.00    +0.000 A 
ATOM     31  H   UNL     1       1.502   7.356  20.944  0.00  0.00    +0.000 HD
BRANCH  22  33
ATOM     32  C   UNL     1       2.130   3.346  21.699  0.00  0.00    +0.000 C 
ATOM     33  O   UNL     1       2.264   4.712  21.325  0.00  0.00    +0.000 OA
ENDBRANCH  22  33
ENDBRANCH   1  28
TORSDOF 3
ENDMDL
MODEL 5
REMARK VINA RESULT:      -8.2      7.312      9.552
REMARK  Name = 
REMARK  5 active torsions:
REMARK  status: ('A' for Active; 'I' for Inactive)
REMARK    1  A    between atoms: C_1  and  O_2
REMARK    2  A    between atoms: O_2  and  C_3
REMARK    3  A    between atoms: C_9  and  C_10
REMARK    4  A    between atoms: C_14  and  C_15
REMARK    5  A    between atoms: C_15  and  C_16
REMARK                            x       y       z     vdW  Elec       q    Type
REMARK                         _______ _______ _______ _____ _____    ______ ____
ROOT
ATOM      1  C   UNL     1       7.465   7.523  17.621  0.00  0.00    +0.000 A 
ATOM      2  C   UNL     1       7.559   6.958  16.364  0.00  0.00    +0.000 A 
ATOM      3  C   UNL     1       6.772   5.784  16.218  0.00  0.00    +0.000 A 
ATOM      4 CL   UNL     1       6.731   4.969  14.709  0.00  0.00    +0.000 Cl
ATOM      5  C   UNL     1       6.082   5.452  17.373  0.00  0.00    +0.000 A 
ATOM      6  S   UNL     1       6.471   6.579  18.630  0.00  0.00    +0.000 S 
ENDROOT
BRANCH   5   7
ATOM      7  C   UNL     1       5.069   4.308  17.634  0.00  0.00    +0.000 C 
ATOM      8  C   UNL     1       5.361   3.156  16.643  0.00  0.00    +0.000 C 
ATOM      9  C   UNL     1       3.666   4.893  17.488  0.00  0.00    +0.000 C 
ATOM     10  S   UNL     1       2.378   3.772  17.926  0.00  0.00    +0.000 S 
ATOM     11  O   UNL     1       2.372   2.703  16.944  0.00  0.00    +0.000 OA
ATOM     12  O   UNL     1       1.182   4.585  18.071  0.00  0.00    +0.000 OA
ATOM     13  C   UNL     1       2.887   3.116  19.537  0.00  0.00    +0.000 C 
ATOM     14  C   UNL     1       1.890   2.043  20.083  0.00  0.00    +0.000 C 
ATOM     15  C   UNL     1       1.150   3.168  20.828  0.00  0.00    +0.000 C 
ATOM     16  C   UNL     1       2.442   3.999  20.747  0.00  0.00    +0.000 C 
ATOM     17  C   UNL     1       4.405   2.789  19.490  0.00  0.00    +0.000 C 
ATOM     18  N   UNL     1       4.963   1.715  19.943  0.00  0.00    +0.000 NA
ATOM     19  N   UNL     1       5.215   3.764  18.996  0.00  0.00    +0.000 N 
ATOM     20  H   UNL     1       4.282   1.049  20.314  0.00  0.00    +0.000 HD
ATOM     21  H   UNL     1       6.187   3.489  19.154  0.00  0.00    +0.000 HD
ENDBRANCH   5   7
BRANCH   1  28
ATOM     22  C   UNL     1       8.665  12.332  18.001  0.00  0.00    +0.000 A 
ATOM     23  C   UNL     1       9.574  13.037  18.806  0.00  0.00    +0.000 A 
ATOM     24  C   UNL     1      10.383  12.386  19.739  0.00  0.00    +0.000 A 
ATOM     25  C   UNL     1      10.311  11.002  19.899  0.00  0.00    +0.000 A 
ATOM     26  C   UNL     1       9.414  10.268  19.106  0.00  0.00    +0.000 A 
ATOM     27  C   UNL     1       9.084   8.891  19.020  0.00  0.00    +0.000 A 
ATOM     28  C   UNL     1       8.110   8.732  18.052  0.00  0.00    +0.000 A 
ATOM     29  N   UNL     1       7.859   9.984  17.542  0.00  0.00    +0.000 N 
ATOM     30  C   UNL     1       8.623  10.942  18.176  0.00  0.00    +0.000 A 
ATOM     31  H   UNL     1       7.199  10.193  16.803  0.00  0.00    +0.000 HD
BRANCH  22  33
ATOM     32  C   UNL     1       7.083  14.022  17.498  0.00  0.00    +0.000 C 
ATOM     33  O   UNL     1       7.827  12.886  17.073  0.00  0.00    +0.000 OA
ENDBRANCH  22  33
ENDBRANCH   1  28
TORSDOF 3
ENDMDL
MODEL 6
REMARK VINA RESULT:      -8.2      2.497      3.201
REMARK  Name = 
REMARK  5 active torsions:
REMARK  status: ('A' for Active; 'I' for Inactive)
REMARK    1  A    between atoms: C_1  and  O_2
REMARK    2  A    between atoms: O_2  and  C_3
REMARK    3  A    between atoms: C_9  and  C_10
REMARK    4  A    between atoms: C_14  and  C_15
REMARK    5  A    between atoms: C_15  and  C_16
REMARK                            x       y       z     vdW  Elec       q    Type
REMARK                         _______ _______ _______ _____ _____    ______ ____
ROOT
ATOM      1  C   UNL     1       1.831   8.908  19.088  0.00  0.00    +0.000 A 
ATOM      2  C   UNL     1       2.143   9.966  18.257  0.00  0.00    +0.000 A 
ATOM      3  C   UNL     1       1.579  11.199  18.685  0.00  0.00    +0.000 A 
ATOM      4 CL   UNL     1       1.896  12.633  17.799  0.00  0.00    +0.000 Cl
ATOM      5  C   UNL     1       0.829  11.074  19.844  0.00  0.00    +0.000 A 
ATOM      6  S   UNL     1       0.799   9.415  20.343  0.00  0.00    +0.000 S 
ENDROOT
BRANCH   5   7
ATOM      7  C   UNL     1       0.105  12.157  20.683  0.00  0.00    +0.000 C 
ATOM      8  C   UNL     1       1.155  13.181  21.177  0.00  0.00    +0.000 C 
ATOM      9  C   UNL     1      -0.628  11.445  21.819  0.00  0.00    +0.000 C 
ATOM     10  S   UNL     1      -1.656  12.506  22.779  0.00  0.00    +0.000 S 
ATOM     11  O   UNL     1      -0.791  13.426  23.496  0.00  0.00    +0.000 OA
ATOM     12  O   UNL     1      -2.521  11.626  23.548  0.00  0.00    +0.000 OA
ATOM     13  C   UNL     1      -2.626  13.417  21.549  0.00  0.00    +0.000 C 
ATOM     14  C   UNL     1      -3.578  14.471  22.205  0.00  0.00    +0.000 C 
ATOM     15  C   UNL     1      -4.685  13.403  22.219  0.00  0.00    +0.000 C 
ATOM     16  C   UNL     1      -3.925  12.677  21.095  0.00  0.00    +0.000 C 
ATOM     17  C   UNL     1      -1.687  13.858  20.392  0.00  0.00    +0.000 C 
ATOM     18  N   UNL     1      -1.662  15.025  19.840  0.00  0.00    +0.000 NA
ATOM     19  N   UNL     1      -0.880  12.893  19.873  0.00  0.00    +0.000 N 
ATOM     20  H   UNL     1      -2.314  15.679  20.279  0.00  0.00    +0.000 HD
ATOM     21  H   UNL     1      -0.428  13.265  19.035  0.00  0.00    +0.000 HD
ENDBRANCH   5   7
BRANCH   1  28
ATOM     22  C   UNL     1       2.830   4.144  20.098  0.00  0.00    +0.000 A 
ATOM     23  C   UNL     1       3.406   3.103  19.353  0.00  0.00    +0.000 A 
ATOM     24  C   UNL     1       3.842   3.294  18.041  0.00  0.00    +0.000 A 
ATOM     25  C   UNL     1       3.717   4.541  17.426  0.00  0.00    +0.000 A 
ATOM     26  C   UNL     1       3.150   5.604  18.146  0.00  0.00    +0.000 A 
ATOM     27  C   UNL     1       2.869   6.959  17.833  0.00  0.00    +0.000 A 
ATOM     28  C   UNL     1       2.289   7.554  18.937  0.00  0.00    +0.000 A 
ATOM     29  N   UNL     1       2.231   6.589  19.915  0.00  0.00    +0.000 N 
ATOM     30  C   UNL     1       2.729   5.387  19.458  0.00  0.00    +0.000 A 
ATOM     31  H   UNL     1       1.867   6.725  20.850  0.00  0.00    +0.000 HD
BRANCH  22  33
ATOM     32  C   UNL     1       1.614   2.875  21.686  0.00  0.00    +0.000 C 
ATOM     33  O   UNL     1       2.365   4.044  21.380  0.00  0.00    +0.000 OA
ENDBRANCH  22  33
ENDBRANCH   1  28
TORSDOF 3
ENDMDL
MODEL 7
REMARK VINA RESULT:      -8.1      2.692      3.596
REMARK  Name = 
REMARK  5 active torsions:
REMARK  status: ('A' for Active; 'I' for Inactive)
REMARK    1  A    between atoms: C_1  and  O_2
REMARK    2  A    between atoms: O_2  and  C_3
REMARK    3  A    between atoms: C_9  and  C_10
REMARK    4  A    between atoms: C_14  and  C_15
REMARK    5  A    between atoms: C_15  and  C_16
REMARK                            x       y       z     vdW  Elec       q    Type
REMARK                         _______ _______ _______ _____ _____    ______ ____
ROOT
ATOM      1  C   UNL     1       1.625   7.939  20.213  0.00  0.00    +0.000 A 
ATOM      2  C   UNL     1       1.084   8.113  21.471  0.00  0.00    +0.000 A 
ATOM      3  C   UNL     1       0.575   9.423  21.685  0.00  0.00    +0.000 A 
ATOM      4 CL   UNL     1      -0.175   9.811  23.178  0.00  0.00    +0.000 Cl
ATOM      5  C   UNL     1       0.737  10.249  20.585  0.00  0.00    +0.000 A 
ATOM      6  S   UNL     1       1.568   9.391  19.329  0.00  0.00    +0.000 S 
ENDROOT
BRANCH   5   7
ATOM      7  C   UNL     1       0.274  11.710  20.359  0.00  0.00    +0.000 C 
ATOM      8  C   UNL     1      -1.215  11.696  19.938  0.00  0.00    +0.000 C 
ATOM      9  C   UNL     1       1.195  12.329  19.310  0.00  0.00    +0.000 C 
ATOM     10  S   UNL     1       0.927  14.052  19.054  0.00  0.00    +0.000 S 
ATOM     11  O   UNL     1      -0.382  14.208  18.448  0.00  0.00    +0.000 OA
ATOM     12  O   UNL     1       2.090  14.526  18.321  0.00  0.00    +0.000 OA
ATOM     13  C   UNL     1       0.913  14.753  20.725  0.00  0.00    +0.000 C 
ATOM     14  C   UNL     1       0.628  16.291  20.721  0.00  0.00    +0.000 C 
ATOM     15  C   UNL     1       2.147  16.532  20.684  0.00  0.00    +0.000 C 
ATOM     16  C   UNL     1       2.331  15.120  21.268  0.00  0.00    +0.000 C 
ATOM     17  C   UNL     1       0.077  13.828  21.652  0.00  0.00    +0.000 C 
ATOM     18  N   UNL     1      -0.807  14.215  22.510  0.00  0.00    +0.000 NA
ATOM     19  N   UNL     1       0.372  12.500  21.599  0.00  0.00    +0.000 N 
ATOM     20  H   UNL     1      -0.948  15.227  22.496  0.00  0.00    +0.000 HD
ATOM     21  H   UNL     1      -0.134  12.027  22.351  0.00  0.00    +0.000 HD
ENDBRANCH   5   7
BRANCH   1  28
ATOM     22  C   UNL     1       3.223   3.238  19.959  0.00  0.00    +0.000 A 
ATOM     23  C   UNL     1       3.762   2.459  18.923  0.00  0.00    +0.000 A 
ATOM     24  C   UNL     1       3.955   2.977  17.641  0.00  0.00    +0.000 A 
ATOM     25  C   UNL     1       3.613   4.299  17.350  0.00  0.00    +0.000 A 
ATOM     26  C   UNL     1       3.075   5.105  18.367  0.00  0.00    +0.000 A 
ATOM     27  C   UNL     1       2.620   6.448  18.413  0.00  0.00    +0.000 A 
ATOM     28  C   UNL     1       2.177   6.717  19.694  0.00  0.00    +0.000 A 
ATOM     29  N   UNL     1       2.373   5.569  20.425  0.00  0.00    +0.000 N 
ATOM     30  C   UNL     1       2.900   4.564  19.640  0.00  0.00    +0.000 A 
ATOM     31  H   UNL     1       2.158   5.457  21.408  0.00  0.00    +0.000 HD
BRANCH  22  33
ATOM     32  C   UNL     1       1.633   2.523  21.563  0.00  0.00    +0.000 C 
ATOM     33  O   UNL     1       2.988   2.811  21.237  0.00  0.00    +0.000 OA
ENDBRANCH  22  33
ENDBRANCH   1  28
TORSDOF 3
ENDMDL
MODEL 8
REMARK VINA RESULT:      -8.0      2.770      3.676
REMARK  Name = 
REMARK  5 active torsions:
REMARK  status: ('A' for Active; 'I' for Inactive)
REMARK    1  A    between atoms: C_1  and  O_2
REMARK    2  A    between atoms: O_2  and  C_3
REMARK    3  A    between atoms: C_9  and  C_10
REMARK    4  A    between atoms: C_14  and  C_15
REMARK    5  A    between atoms: C_15  and  C_16
REMARK                            x       y       z     vdW  Elec       q    Type
REMARK                         _______ _______ _______ _____ _____    ______ ____
ROOT
ATOM      1  C   UNL     1       1.097   9.329  19.702  0.00  0.00    +0.000 A 
ATOM      2  C   UNL     1       1.100  10.495  18.962  0.00  0.00    +0.000 A 
ATOM      3  C   UNL     1       0.292  11.519  19.528  0.00  0.00    +0.000 A 
ATOM      4 CL   UNL     1       0.207  13.054  18.769  0.00  0.00    +0.000 Cl
ATOM      5  C   UNL     1      -0.332  11.124  20.701  0.00  0.00    +0.000 A 
ATOM      6  S   UNL     1       0.058   9.471  21.042  0.00  0.00    +0.000 S 
ENDROOT
BRANCH   5   7
ATOM      7  C   UNL     1      -1.234  11.931  21.670  0.00  0.00    +0.000 C 
ATOM      8  C   UNL     1      -1.379  11.132  22.987  0.00  0.00    +0.000 C 
ATOM      9  C   UNL     1      -2.564  12.179  20.962  0.00  0.00    +0.000 C 
ATOM     10  S   UNL     1      -3.656  13.240  21.849  0.00  0.00    +0.000 S 
ATOM     11  O   UNL     1      -4.071  12.539  23.050  0.00  0.00    +0.000 OA
ATOM     12  O   UNL     1      -4.677  13.641  20.894  0.00  0.00    +0.000 OA
ATOM     13  C   UNL     1      -2.627  14.663  22.298  0.00  0.00    +0.000 C 
ATOM     14  C   UNL     1      -3.408  15.713  23.155  0.00  0.00    +0.000 C 
ATOM     15  C   UNL     1      -3.771  16.446  21.852  0.00  0.00    +0.000 C 
ATOM     16  C   UNL     1      -2.558  15.766  21.194  0.00  0.00    +0.000 C 
ATOM     17  C   UNL     1      -1.248  14.149  22.797  0.00  0.00    +0.000 C 
ATOM     18  N   UNL     1      -0.617  14.570  23.842  0.00  0.00    +0.000 NA
ATOM     19  N   UNL     1      -0.628  13.231  22.007  0.00  0.00    +0.000 N 
ATOM     20  H   UNL     1      -1.147  15.273  24.362  0.00  0.00    +0.000 HD
ATOM     21  H   UNL     1       0.320  13.088  22.361  0.00  0.00    +0.000 HD
ENDBRANCH   5   7
BRANCH   1  28
ATOM     22  C   UNL     1       3.066   4.784  20.126  0.00  0.00    +0.000 A 
ATOM     23  C   UNL     1       3.892   4.011  19.295  0.00  0.00    +0.000 A 
ATOM     24  C   UNL     1       4.341   4.487  18.061  0.00  0.00    +0.000 A 
ATOM     25  C   UNL     1       3.976   5.758  17.615  0.00  0.00    +0.000 A 
ATOM     26  C   UNL     1       3.154   6.557  18.426  0.00  0.00    +0.000 A 
ATOM     27  C   UNL     1       2.599   7.855  18.280  0.00  0.00    +0.000 A 
ATOM     28  C   UNL     1       1.848   8.140  19.404  0.00  0.00    +0.000 A 
ATOM     29  N   UNL     1       1.954   7.048  20.233  0.00  0.00    +0.000 N 
ATOM     30  C   UNL     1       2.727   6.061  19.656  0.00  0.00    +0.000 A 
ATOM     31  H   UNL     1       1.523   6.961  21.145  0.00  0.00    +0.000 HD
BRANCH  22  33
ATOM     32  C   UNL     1       1.816   3.189  21.353  0.00  0.00    +0.000 C 
ATOM     33  O   UNL     1       2.571   4.395  21.340  0.00  0.00    +0.000 OA
ENDBRANCH  22  33
ENDBRANCH   1  28
TORSDOF 3
ENDMDL
MODEL 9
REMARK VINA RESULT:      -8.0      1.816      2.365
REMARK  Name = 
REMARK  5 active torsions:
REMARK  status: ('A' for Active; 'I' for Inactive)
REMARK    1  A    between atoms: C_1  and  O_2
REMARK    2  A    between atoms: O_2  and  C_3
REMARK    3  A    between atoms: C_9  and  C_10
REMARK    4  A    between atoms: C_14  and  C_15
REMARK    5  A    between atoms: C_15  and  C_16
REMARK                            x       y       z     vdW  Elec       q    Type
REMARK                         _______ _______ _______ _____ _____    ______ ____
ROOT
ATOM      1  C   UNL     1       1.530   8.443  19.980  0.00  0.00    +0.000 A 
ATOM      2  C   UNL     1       1.232   8.381  21.327  0.00  0.00    +0.000 A 
ATOM      3  C   UNL     1       0.436   9.470  21.774  0.00  0.00    +0.000 A 
ATOM      4 CL   UNL     1      -0.070   9.539  23.412  0.00  0.00    +0.000 Cl
ATOM      5  C   UNL     1       0.134  10.367  20.762  0.00  0.00    +0.000 A 
ATOM      6  S   UNL     1       0.894   9.861  19.289  0.00  0.00    +0.000 S 
ENDROOT
BRANCH   5   7
ATOM      7  C   UNL     1      -0.751  11.639  20.789  0.00  0.00    +0.000 C 
ATOM      8  C   UNL     1      -1.591  11.681  19.490  0.00  0.00    +0.000 C 
ATOM      9  C   UNL     1       0.176  12.841  20.951  0.00  0.00    +0.000 C 
ATOM     10  S   UNL     1      -0.672  14.369  21.179  0.00  0.00    +0.000 S 
ATOM     11  O   UNL     1      -1.366  14.677  19.942  0.00  0.00    +0.000 OA
ATOM     12  O   UNL     1       0.329  15.306  21.664  0.00  0.00    +0.000 OA
ATOM     13  C   UNL     1      -1.880  14.016  22.484  0.00  0.00    +0.000 C 
ATOM     14  C   UNL     1      -2.788  15.249  22.801  0.00  0.00    +0.000 C 
ATOM     15  C   UNL     1      -1.789  15.651  23.900  0.00  0.00    +0.000 C 
ATOM     16  C   UNL     1      -1.315  14.188  23.930  0.00  0.00    +0.000 C 
ATOM     17  C   UNL     1      -2.541  12.639  22.199  0.00  0.00    +0.000 C 
ATOM     18  N   UNL     1      -3.802  12.375  22.275  0.00  0.00    +0.000 NA
ATOM     19  N   UNL     1      -1.692  11.612  21.922  0.00  0.00    +0.000 N 
ATOM     20  H   UNL     1      -4.361  13.199  22.509  0.00  0.00    +0.000 HD
ATOM     21  H   UNL     1      -2.232  10.744  21.901  0.00  0.00    +0.000 HD
ENDBRANCH   5   7
BRANCH   1  28
ATOM     22  C   UNL     1       3.335   4.070  18.448  0.00  0.00    +0.000 A 
ATOM     23  C   UNL     1       4.226   3.701  17.429  0.00  0.00    +0.000 A 
ATOM     24  C   UNL     1       4.813   4.650  16.590  0.00  0.00    +0.000 A 
ATOM     25  C   UNL     1       4.529   6.007  16.743  0.00  0.00    +0.000 A 
ATOM     26  C   UNL     1       3.644   6.409  17.757  0.00  0.00    +0.000 A 
ATOM     27  C   UNL     1       3.139   7.668  18.173  0.00  0.00    +0.000 A 
ATOM     28  C   UNL     1       2.280   7.467  19.237  0.00  0.00    +0.000 A 
ATOM     29  N   UNL     1       2.272   6.114  19.482  0.00  0.00    +0.000 N 
ATOM     30  C   UNL     1       3.077   5.442  18.586  0.00  0.00    +0.000 A 
ATOM     31  H   UNL     1       1.745   5.655  20.215  0.00  0.00    +0.000 HD
BRANCH  22  33
ATOM     32  C   UNL     1       3.508   2.652  20.338  0.00  0.00    +0.000 C 
ATOM     33  O   UNL     1       2.704   3.211  19.306  0.00  0.00    +0.000 OA
ENDBRANCH  22  33
ENDBRANCH   1  28
TORSDOF 3
ENDMDL
