MODEL 1
REMARK VINA RESULT:      -6.2      0.000      0.000
REMARK  Name = 
REMARK  7 active torsions:
REMARK  status: ('A' for Active; 'I' for Inactive)
REMARK    1  A    between atoms: C_1  and  O_2
REMARK    2  A    between atoms: O_2  and  C_3
REMARK    3  A    between atoms: C_8  and  O_9
REMARK    4  A    between atoms: O_9  and  C_10
REMARK    5  A    between atoms: C_18  and  O_19
REMARK    6  A    between atoms: O_19  and  C_20
REMARK    7  A    between atoms: N_23  and  C_24
REMARK                            x       y       z     vdW  Elec       q    Type
REMARK                         _______ _______ _______ _____ _____    ______ ____
ROOT
ATOM      1  C   UNL     1      -2.943  10.304  17.070  0.00  0.00    +0.000 A 
ATOM      2  C   UNL     1      -1.674   9.872  17.467  0.00  0.00    +0.000 A 
ATOM      3  C   UNL     1      -1.109  10.386  18.623  0.00  0.00    +0.000 A 
ATOM      4  C   UNL     1      -1.686  11.512  19.253  0.00  0.00    +0.000 A 
ATOM      5  C   UNL     1      -2.985  11.881  18.936  0.00  0.00    +0.000 A 
ATOM      6  C   UNL     1      -3.646  11.213  17.890  0.00  0.00    +0.000 A 
ATOM      7  C   UNL     1      -0.707  12.163  20.213  0.00  0.00    +0.000 C 
ATOM      8  C   UNL     1      -0.860  13.586  20.788  0.00  0.00    +0.000 C 
ATOM      9  C   UNL     1      -0.908  13.614  22.296  0.00  0.00    +0.000 C 
ATOM     10  C   UNL     1      -1.167  12.555  23.075  0.00  0.00    +0.000 C 
ATOM     11  C   UNL     1      -1.289  11.184  22.460  0.00  0.00    +0.000 C 
ATOM     12  C   UNL     1      -0.325  11.098  21.264  0.00  0.00    +0.000 C 
ATOM     13  O   UNL     1      -0.249   9.754  20.745  0.00  0.00    +0.000 OA
ATOM     14  C   UNL     1       0.065   9.720  19.335  0.00  0.00    +0.000 C 
ATOM     15  C   UNL     1      -0.374  14.928  22.783  0.00  0.00    +0.000 C 
ATOM     16  C   UNL     1       0.179  15.579  21.514  0.00  0.00    +0.000 C 
ATOM     17  N   UNL     1       0.239  14.553  20.456  0.00  0.00    +0.000 NA
ATOM     18  C   UNL     1       1.587  13.988  20.355  0.00  0.00    +0.000 C 
ENDROOT
BRANCH   1  20
ATOM     19  C   UNL     1      -3.042  10.381  14.691  0.00  0.00    +0.000 C 
ATOM     20  O   UNL     1      -3.564   9.893  15.916  0.00  0.00    +0.000 OA
ENDBRANCH   1  20
BRANCH   6  21
ATOM     21  O   UNL     1      -4.980  11.531  17.753  0.00  0.00    +0.000 OA
ATOM     22  C   UNL     1      -5.862  10.755  18.565  0.00  0.00    +0.000 C 
ENDBRANCH   6  21
BRANCH  14  23
ATOM     23  O   UNL     1       1.303  10.356  19.021  0.00  0.00    +0.000 OA
ATOM     24  C   UNL     1       2.015   9.690  17.987  0.00  0.00    +0.000 C 
ENDBRANCH  14  23
TORSDOF 3
ENDMDL
MODEL 2
REMARK VINA RESULT:      -5.7      7.895     10.832
REMARK  Name = 
REMARK  7 active torsions:
REMARK  status: ('A' for Active; 'I' for Inactive)
REMARK    1  A    between atoms: C_1  and  O_2
REMARK    2  A    between atoms: O_2  and  C_3
REMARK    3  A    between atoms: C_8  and  O_9
REMARK    4  A    between atoms: O_9  and  C_10
REMARK    5  A    between atoms: C_18  and  O_19
REMARK    6  A    between atoms: O_19  and  C_20
REMARK    7  A    between atoms: N_23  and  C_24
REMARK                            x       y       z     vdW  Elec       q    Type
REMARK                         _______ _______ _______ _____ _____    ______ ____
ROOT
ATOM      1  C   UNL     1       7.138   4.774  13.829  0.00  0.00    +0.000 A 
ATOM      2  C   UNL     1       7.538   5.409  15.009  0.00  0.00    +0.000 A 
ATOM      3  C   UNL     1       6.809   5.214  16.171  0.00  0.00    +0.000 A 
ATOM      4  C   UNL     1       5.540   4.593  16.114  0.00  0.00    +0.000 A 
ATOM      5  C   UNL     1       5.182   3.873  14.984  0.00  0.00    +0.000 A 
ATOM      6  C   UNL     1       6.030   3.898  13.864  0.00  0.00    +0.000 A 
ATOM      7  C   UNL     1       4.745   4.858  17.379  0.00  0.00    +0.000 C 
ATOM      8  C   UNL     1       3.223   4.649  17.516  0.00  0.00    +0.000 C 
ATOM      9  C   UNL     1       2.854   3.678  18.611  0.00  0.00    +0.000 C 
ATOM     10  C   UNL     1       3.695   2.799  19.171  0.00  0.00    +0.000 C 
ATOM     11  C   UNL     1       5.161   2.833  18.819  0.00  0.00    +0.000 C 
ATOM     12  C   UNL     1       5.565   4.295  18.560  0.00  0.00    +0.000 C 
ATOM     13  O   UNL     1       6.994   4.425  18.404  0.00  0.00    +0.000 OA
ATOM     14  C   UNL     1       7.360   5.537  17.556  0.00  0.00    +0.000 C 
ATOM     15  C   UNL     1       1.495   4.025  19.142  0.00  0.00    +0.000 C 
ATOM     16  C   UNL     1       1.177   5.357  18.461  0.00  0.00    +0.000 C 
ATOM     17  N   UNL     1       2.417   5.871  17.848  0.00  0.00    +0.000 NA
ATOM     18  C   UNL     1       3.062   6.852  18.724  0.00  0.00    +0.000 C 
ENDROOT
BRANCH   1  20
ATOM     19  C   UNL     1       8.666   6.033  12.505  0.00  0.00    +0.000 C 
ATOM     20  O   UNL     1       7.763   4.945  12.620  0.00  0.00    +0.000 OA
ENDBRANCH   1  20
BRANCH   6  21
ATOM     21  O   UNL     1       5.680   3.029  12.853  0.00  0.00    +0.000 OA
ATOM     22  C   UNL     1       4.692   3.532  11.953  0.00  0.00    +0.000 C 
ENDBRANCH   6  21
BRANCH  14  23
ATOM     23  O   UNL     1       6.879   6.791  18.037  0.00  0.00    +0.000 OA
ATOM     24  C   UNL     1       7.727   7.876  17.684  0.00  0.00    +0.000 C 
ENDBRANCH  14  23
TORSDOF 3
ENDMDL
MODEL 3
REMARK VINA RESULT:      -5.6      1.168      1.218
REMARK  Name = 
REMARK  7 active torsions:
REMARK  status: ('A' for Active; 'I' for Inactive)
REMARK    1  A    between atoms: C_1  and  O_2
REMARK    2  A    between atoms: O_2  and  C_3
REMARK    3  A    between atoms: C_8  and  O_9
REMARK    4  A    between atoms: O_9  and  C_10
REMARK    5  A    between atoms: C_18  and  O_19
REMARK    6  A    between atoms: O_19  and  C_20
REMARK    7  A    between atoms: N_23  and  C_24
REMARK                            x       y       z     vdW  Elec       q    Type
REMARK                         _______ _______ _______ _____ _____    ______ ____
ROOT
ATOM      1  C   UNL     1      -2.826  10.255  17.256  0.00  0.00    +0.000 A 
ATOM      2  C   UNL     1      -1.545  10.208  17.815  0.00  0.00    +0.000 A 
ATOM      3  C   UNL     1      -1.280  10.923  18.971  0.00  0.00    +0.000 A 
ATOM      4  C   UNL     1      -2.205  11.885  19.438  0.00  0.00    +0.000 A 
ATOM      5  C   UNL     1      -3.507  11.867  18.960  0.00  0.00    +0.000 A 
ATOM      6  C   UNL     1      -3.837  10.985  17.917  0.00  0.00    +0.000 A 
ATOM      7  C   UNL     1      -1.555  12.832  20.430  0.00  0.00    +0.000 C 
ATOM      8  C   UNL     1      -2.146  14.191  20.858  0.00  0.00    +0.000 C 
ATOM      9  C   UNL     1      -2.381  14.293  22.345  0.00  0.00    +0.000 C 
ATOM     10  C   UNL     1      -2.444  13.252  23.185  0.00  0.00    +0.000 C 
ATOM     11  C   UNL     1      -2.125  11.865  22.686  0.00  0.00    +0.000 C 
ATOM     12  C   UNL     1      -1.036  11.975  21.604  0.00  0.00    +0.000 C 
ATOM     13  O   UNL     1      -0.546  10.674  21.217  0.00  0.00    +0.000 OA
ATOM     14  C   UNL     1      -0.066  10.645  19.854  0.00  0.00    +0.000 C 
ATOM     15  C   UNL     1      -2.276  15.729  22.764  0.00  0.00    +0.000 C 
ATOM     16  C   UNL     1      -1.766  16.430  21.505  0.00  0.00    +0.000 C 
ATOM     17  N   UNL     1      -1.310  15.399  20.553  0.00  0.00    +0.000 NA
ATOM     18  C   UNL     1       0.142  15.218  20.639  0.00  0.00    +0.000 C 
ENDROOT
BRANCH   1  20
ATOM     19  C   UNL     1      -3.007  10.354  14.882  0.00  0.00    +0.000 C 
ATOM     20  O   UNL     1      -3.172   9.624  16.087  0.00  0.00    +0.000 OA
ENDBRANCH   1  20
BRANCH   6  21
ATOM     21  O   UNL     1      -5.181  10.918  17.620  0.00  0.00    +0.000 OA
ATOM     22  C   UNL     1      -6.048  11.204  18.717  0.00  0.00    +0.000 C 
ENDBRANCH   6  21
BRANCH  14  23
ATOM     23  O   UNL     1       0.989  11.574  19.611  0.00  0.00    +0.000 OA
ATOM     24  C   UNL     1       1.779  11.225  18.483  0.00  0.00    +0.000 C 
ENDBRANCH  14  23
TORSDOF 3
ENDMDL
MODEL 4
REMARK VINA RESULT:      -5.6      1.380      1.537
REMARK  Name = 
REMARK  7 active torsions:
REMARK  status: ('A' for Active; 'I' for Inactive)
REMARK    1  A    between atoms: C_1  and  O_2
REMARK    2  A    between atoms: O_2  and  C_3
REMARK    3  A    between atoms: C_8  and  O_9
REMARK    4  A    between atoms: O_9  and  C_10
REMARK    5  A    between atoms: C_18  and  O_19
REMARK    6  A    between atoms: O_19  and  C_20
REMARK    7  A    between atoms: N_23  and  C_24
REMARK                            x       y       z     vdW  Elec       q    Type
REMARK                         _______ _______ _______ _____ _____    ______ ____
ROOT
ATOM      1  C   UNL     1      -3.297  11.120  16.927  0.00  0.00    +0.000 A 
ATOM      2  C   UNL     1      -1.917  11.262  17.100  0.00  0.00    +0.000 A 
ATOM      3  C   UNL     1      -1.420  11.636  18.338  0.00  0.00    +0.000 A 
ATOM      4  C   UNL     1      -2.297  12.113  19.339  0.00  0.00    +0.000 A 
ATOM      5  C   UNL     1      -3.659  11.881  19.220  0.00  0.00    +0.000 A 
ATOM      6  C   UNL     1      -4.150  11.303  18.037  0.00  0.00    +0.000 A 
ATOM      7  C   UNL     1      -1.537  12.854  20.423  0.00  0.00    +0.000 C 
ATOM      8  C   UNL     1      -2.185  13.798  21.457  0.00  0.00    +0.000 C 
ATOM      9  C   UNL     1      -1.939  13.373  22.884  0.00  0.00    +0.000 C 
ATOM     10  C   UNL     1      -1.542  12.151  23.262  0.00  0.00    +0.000 C 
ATOM     11  C   UNL     1      -1.165  11.128  22.221  0.00  0.00    +0.000 C 
ATOM     12  C   UNL     1      -0.523  11.860  21.029  0.00  0.00    +0.000 C 
ATOM     13  O   UNL     1       0.034  10.929  20.079  0.00  0.00    +0.000 OA
ATOM     14  C   UNL     1       0.043  11.450  18.731  0.00  0.00    +0.000 C 
ATOM     15  C   UNL     1      -1.955  14.583  23.769  0.00  0.00    +0.000 C 
ATOM     16  C   UNL     1      -2.012  15.747  22.779  0.00  0.00    +0.000 C 
ATOM     17  N   UNL     1      -1.717  15.224  21.432  0.00  0.00    +0.000 NA
ATOM     18  C   UNL     1      -0.308  15.435  21.090  0.00  0.00    +0.000 C 
ENDROOT
BRANCH   1  20
ATOM     19  C   UNL     1      -3.062  10.223  14.732  0.00  0.00    +0.000 C 
ATOM     20  O   UNL     1      -3.888  10.804  15.729  0.00  0.00    +0.000 OA
ENDBRANCH   1  20
BRANCH   6  21
ATOM     21  O   UNL     1      -5.485  10.960  18.071  0.00  0.00    +0.000 OA
ATOM     22  C   UNL     1      -6.383  12.045  17.844  0.00  0.00    +0.000 C 
ENDBRANCH   6  21
BRANCH  14  23
ATOM     23  O   UNL     1       0.783  12.664  18.604  0.00  0.00    +0.000 OA
ATOM     24  C   UNL     1       2.181  12.443  18.473  0.00  0.00    +0.000 C 
ENDBRANCH  14  23
TORSDOF 3
ENDMDL
MODEL 5
REMARK VINA RESULT:      -5.5      2.190      2.641
REMARK  Name = 
REMARK  7 active torsions:
REMARK  status: ('A' for Active; 'I' for Inactive)
REMARK    1  A    between atoms: C_1  and  O_2
REMARK    2  A    between atoms: O_2  and  C_3
REMARK    3  A    between atoms: C_8  and  O_9
REMARK    4  A    between atoms: O_9  and  C_10
REMARK    5  A    between atoms: C_18  and  O_19
REMARK    6  A    between atoms: O_19  and  C_20
REMARK    7  A    between atoms: N_23  and  C_24
REMARK                            x       y       z     vdW  Elec       q    Type
REMARK                         _______ _______ _______ _____ _____    ______ ____
ROOT
ATOM      1  C   UNL     1      -3.729  11.307  17.433  0.00  0.00    +0.000 A 
ATOM      2  C   UNL     1      -2.417  11.572  17.839  0.00  0.00    +0.000 A 
ATOM      3  C   UNL     1      -2.187  12.090  19.103  0.00  0.00    +0.000 A 
ATOM      4  C   UNL     1      -3.263  12.583  19.874  0.00  0.00    +0.000 A 
ATOM      5  C   UNL     1      -4.562  12.235  19.534  0.00  0.00    +0.000 A 
ATOM      6  C   UNL     1      -4.786  11.519  18.345  0.00  0.00    +0.000 A 
ATOM      7  C   UNL     1      -2.768  13.474  20.999  0.00  0.00    +0.000 C 
ATOM      8  C   UNL     1      -3.656  14.451  21.797  0.00  0.00    +0.000 C 
ATOM      9  C   UNL     1      -3.657  14.173  23.280  0.00  0.00    +0.000 C 
ATOM     10  C   UNL     1      -3.266  13.024  23.845  0.00  0.00    +0.000 C 
ATOM     11  C   UNL     1      -2.638  11.946  22.998  0.00  0.00    +0.000 C 
ATOM     12  C   UNL     1      -1.828  12.619  21.876  0.00  0.00    +0.000 C 
ATOM     13  O   UNL     1      -1.046  11.654  21.141  0.00  0.00    +0.000 OA
ATOM     14  C   UNL     1      -0.815  12.055  19.771  0.00  0.00    +0.000 C 
ATOM     15  C   UNL     1      -3.914  15.451  24.022  0.00  0.00    +0.000 C 
ATOM     16  C   UNL     1      -3.854  16.516  22.926  0.00  0.00    +0.000 C 
ATOM     17  N   UNL     1      -3.279  15.901  21.714  0.00  0.00    +0.000 NA
ATOM     18  C   UNL     1      -1.846  16.192  21.614  0.00  0.00    +0.000 C 
ENDROOT
BRANCH   1  20
ATOM     19  C   UNL     1      -2.997  10.545  15.297  0.00  0.00    +0.000 C 
ATOM     20  O   UNL     1      -4.063  10.843  16.185  0.00  0.00    +0.000 OA
ENDBRANCH   1  20
BRANCH   6  21
ATOM     21  O   UNL     1      -6.079  11.077  18.171  0.00  0.00    +0.000 OA
ATOM     22  C   UNL     1      -7.026  12.106  17.885  0.00  0.00    +0.000 C 
ENDBRANCH   6  21
BRANCH  14  23
ATOM     23  O   UNL     1      -0.140  13.307  19.660  0.00  0.00    +0.000 OA
ATOM     24  C   UNL     1       0.826  13.319  18.618  0.00  0.00    +0.000 C 
ENDBRANCH  14  23
TORSDOF 3
ENDMDL
MODEL 6
REMARK VINA RESULT:      -5.5      2.107      4.622
REMARK  Name = 
REMARK  7 active torsions:
REMARK  status: ('A' for Active; 'I' for Inactive)
REMARK    1  A    between atoms: C_1  and  O_2
REMARK    2  A    between atoms: O_2  and  C_3
REMARK    3  A    between atoms: C_8  and  O_9
REMARK    4  A    between atoms: O_9  and  C_10
REMARK    5  A    between atoms: C_18  and  O_19
REMARK    6  A    between atoms: O_19  and  C_20
REMARK    7  A    between atoms: N_23  and  C_24
REMARK                            x       y       z     vdW  Elec       q    Type
REMARK                         _______ _______ _______ _____ _____    ______ ____
ROOT
ATOM      1  C   UNL     1      -4.393  11.889  18.517  0.00  0.00    +0.000 A 
ATOM      2  C   UNL     1      -3.719  12.195  19.704  0.00  0.00    +0.000 A 
ATOM      3  C   UNL     1      -2.347  12.021  19.773  0.00  0.00    +0.000 A 
ATOM      4  C   UNL     1      -1.671  11.308  18.757  0.00  0.00    +0.000 A 
ATOM      5  C   UNL     1      -2.300  11.093  17.540  0.00  0.00    +0.000 A 
ATOM      6  C   UNL     1      -3.648  11.464  17.396  0.00  0.00    +0.000 A 
ATOM      7  C   UNL     1      -0.295  10.866  19.222  0.00  0.00    +0.000 C 
ATOM      8  C   UNL     1       0.557   9.784  18.528  0.00  0.00    +0.000 C 
ATOM      9  C   UNL     1       1.904  10.291  18.076  0.00  0.00    +0.000 C 
ATOM     10  C   UNL     1       2.228  11.582  17.929  0.00  0.00    +0.000 C 
ATOM     11  C   UNL     1       1.260  12.653  18.365  0.00  0.00    +0.000 C 
ATOM     12  C   UNL     1       0.490  12.141  19.595  0.00  0.00    +0.000 C 
ATOM     13  O   UNL     1      -0.316  13.184  20.182  0.00  0.00    +0.000 OA
ATOM     14  C   UNL     1      -1.487  12.668  20.855  0.00  0.00    +0.000 C 
ATOM     15  C   UNL     1       2.883   9.154  18.069  0.00  0.00    +0.000 C 
ATOM     16  C   UNL     1       2.108   8.015  18.732  0.00  0.00    +0.000 C 
ATOM     17  N   UNL     1       0.898   8.580  19.357  0.00  0.00    +0.000 NA
ATOM     18  C   UNL     1       1.114   8.821  20.786  0.00  0.00    +0.000 C 
ENDROOT
BRANCH   1  20
ATOM     19  C   UNL     1      -6.514  10.808  18.624  0.00  0.00    +0.000 C 
ATOM     20  O   UNL     1      -5.754  11.978  18.367  0.00  0.00    +0.000 OA
ENDBRANCH   1  20
BRANCH   6  21
ATOM     21  O   UNL     1      -4.141  11.366  16.112  0.00  0.00    +0.000 OA
ATOM     22  C   UNL     1      -3.276  10.701  15.192  0.00  0.00    +0.000 C 
ENDBRANCH   6  21
BRANCH  14  23
ATOM     23  O   UNL     1      -1.172  11.750  21.900  0.00  0.00    +0.000 OA
ATOM     24  C   UNL     1      -2.003  11.913  23.042  0.00  0.00    +0.000 C 
ENDBRANCH  14  23
TORSDOF 3
ENDMDL
MODEL 7
REMARK VINA RESULT:      -5.4      2.765      5.675
REMARK  Name = 
REMARK  7 active torsions:
REMARK  status: ('A' for Active; 'I' for Inactive)
REMARK    1  A    between atoms: C_1  and  O_2
REMARK    2  A    between atoms: O_2  and  C_3
REMARK    3  A    between atoms: C_8  and  O_9
REMARK    4  A    between atoms: O_9  and  C_10
REMARK    5  A    between atoms: C_18  and  O_19
REMARK    6  A    between atoms: O_19  and  C_20
REMARK    7  A    between atoms: N_23  and  C_24
REMARK                            x       y       z     vdW  Elec       q    Type
REMARK                         _______ _______ _______ _____ _____    ______ ____
ROOT
ATOM      1  C   UNL     1       2.623   6.603  19.710  0.00  0.00    +0.000 A 
ATOM      2  C   UNL     1       1.860   7.079  20.781  0.00  0.00    +0.000 A 
ATOM      3  C   UNL     1       1.153   8.262  20.642  0.00  0.00    +0.000 A 
ATOM      4  C   UNL     1       1.397   9.107  19.536  0.00  0.00    +0.000 A 
ATOM      5  C   UNL     1       2.063   8.607  18.428  0.00  0.00    +0.000 A 
ATOM      6  C   UNL     1       2.607   7.312  18.489  0.00  0.00    +0.000 A 
ATOM      7  C   UNL     1       0.862  10.505  19.788  0.00  0.00    +0.000 C 
ATOM      8  C   UNL     1       1.258  11.754  18.974  0.00  0.00    +0.000 C 
ATOM      9  C   UNL     1       0.080  12.436  18.323  0.00  0.00    +0.000 C 
ATOM     10  C   UNL     1      -1.120  11.873  18.128  0.00  0.00    +0.000 C 
ATOM     11  C   UNL     1      -1.413  10.511  18.705  0.00  0.00    +0.000 C 
ATOM     12  C   UNL     1      -0.656  10.374  20.038  0.00  0.00    +0.000 C 
ATOM     13  O   UNL     1      -1.039   9.172  20.738  0.00  0.00    +0.000 OA
ATOM     14  C   UNL     1       0.018   8.660  21.581  0.00  0.00    +0.000 C 
ATOM     15  C   UNL     1       0.378  13.897  18.170  0.00  0.00    +0.000 C 
ATOM     16  C   UNL     1       1.685  14.077  18.942  0.00  0.00    +0.000 C 
ATOM     17  N   UNL     1       1.920  12.860  19.743  0.00  0.00    +0.000 NA
ATOM     18  C   UNL     1       1.465  13.049  21.122  0.00  0.00    +0.000 C 
ENDROOT
BRANCH   1  20
ATOM     19  C   UNL     1       2.755   4.265  20.149  0.00  0.00    +0.000 C 
ATOM     20  O   UNL     1       3.397   5.471  19.767  0.00  0.00    +0.000 OA
ENDBRANCH   1  20
BRANCH   6  21
ATOM     21  O   UNL     1       3.105   6.837  17.294  0.00  0.00    +0.000 OA
ATOM     22  C   UNL     1       4.505   7.043  17.110  0.00  0.00    +0.000 C 
ENDBRANCH   6  21
BRANCH  14  23
ATOM     23  O   UNL     1       0.450   9.595  22.568  0.00  0.00    +0.000 OA
ATOM     24  C   UNL     1      -0.616  10.064  23.384  0.00  0.00    +0.000 C 
ENDBRANCH  14  23
TORSDOF 3
ENDMDL
MODEL 8
REMARK VINA RESULT:      -5.3      2.574      6.252
REMARK  Name = 
REMARK  7 active torsions:
REMARK  status: ('A' for Active; 'I' for Inactive)
REMARK    1  A    between atoms: C_1  and  O_2
REMARK    2  A    between atoms: O_2  and  C_3
REMARK    3  A    between atoms: C_8  and  O_9
REMARK    4  A    between atoms: O_9  and  C_10
REMARK    5  A    between atoms: C_18  and  O_19
REMARK    6  A    between atoms: O_19  and  C_20
REMARK    7  A    between atoms: N_23  and  C_24
REMARK                            x       y       z     vdW  Elec       q    Type
REMARK                         _______ _______ _______ _____ _____    ______ ____
ROOT
ATOM      1  C   UNL     1       0.510  15.526  20.563  0.00  0.00    +0.000 A 
ATOM      2  C   UNL     1      -0.199  14.659  21.401  0.00  0.00    +0.000 A 
ATOM      3  C   UNL     1      -0.659  13.453  20.901  0.00  0.00    +0.000 A 
ATOM      4  C   UNL     1      -0.641  13.209  19.509  0.00  0.00    +0.000 A 
ATOM      5  C   UNL     1       0.144  14.004  18.687  0.00  0.00    +0.000 A 
ATOM      6  C   UNL     1       0.791  15.124  19.239  0.00  0.00    +0.000 A 
ATOM      7  C   UNL     1      -1.557  12.056  19.143  0.00  0.00    +0.000 C 
ATOM      8  C   UNL     1      -2.054  11.753  17.715  0.00  0.00    +0.000 C 
ATOM      9  C   UNL     1      -1.675  10.373  17.236  0.00  0.00    +0.000 C 
ATOM     10  C   UNL     1      -0.718   9.609  17.779  0.00  0.00    +0.000 C 
ATOM     11  C   UNL     1      -0.034  10.051  19.047  0.00  0.00    +0.000 C 
ATOM     12  C   UNL     1      -1.054  10.814  19.910  0.00  0.00    +0.000 C 
ATOM     13  O   UNL     1      -0.522  11.102  21.221  0.00  0.00    +0.000 OA
ATOM     14  C   UNL     1      -1.092  12.298  21.800  0.00  0.00    +0.000 C 
ATOM     15  C   UNL     1      -2.694   9.897  16.244  0.00  0.00    +0.000 C 
ATOM     16  C   UNL     1      -3.789  10.962  16.320  0.00  0.00    +0.000 C 
ATOM     17  N   UNL     1      -3.541  11.796  17.511  0.00  0.00    +0.000 NA
ATOM     18  C   UNL     1      -4.360  11.347  18.640  0.00  0.00    +0.000 C 
ENDROOT
BRANCH   1  20
ATOM     19  C   UNL     1       0.020  17.824  20.957  0.00  0.00    +0.000 C 
ATOM     20  O   UNL     1       0.962  16.763  20.950  0.00  0.00    +0.000 OA
ENDBRANCH   1  20
BRANCH   6  21
ATOM     21  O   UNL     1       1.675  15.757  18.393  0.00  0.00    +0.000 OA
ATOM     22  C   UNL     1       2.870  15.025  18.125  0.00  0.00    +0.000 C 
ENDBRANCH   6  21
BRANCH  14  23
ATOM     23  O   UNL     1      -2.511  12.234  21.933  0.00  0.00    +0.000 OA
ATOM     24  C   UNL     1      -2.935  12.226  23.289  0.00  0.00    +0.000 C 
ENDBRANCH  14  23
TORSDOF 3
ENDMDL
MODEL 9
REMARK VINA RESULT:      -5.3      2.910      5.189
REMARK  Name = 
REMARK  7 active torsions:
REMARK  status: ('A' for Active; 'I' for Inactive)
REMARK    1  A    between atoms: C_1  and  O_2
REMARK    2  A    between atoms: O_2  and  C_3
REMARK    3  A    between atoms: C_8  and  O_9
REMARK    4  A    between atoms: O_9  and  C_10
REMARK    5  A    between atoms: C_18  and  O_19
REMARK    6  A    between atoms: O_19  and  C_20
REMARK    7  A    between atoms: N_23  and  C_24
REMARK                            x       y       z     vdW  Elec       q    Type
REMARK                         _______ _______ _______ _____ _____    ______ ____
ROOT
ATOM      1  C   UNL     1      -3.581  10.989  17.575  0.00  0.00    +0.000 A 
ATOM      2  C   UNL     1      -4.870  11.455  17.853  0.00  0.00    +0.000 A 
ATOM      3  C   UNL     1      -5.067  12.325  18.913  0.00  0.00    +0.000 A 
ATOM      4  C   UNL     1      -4.035  12.539  19.855  0.00  0.00    +0.000 A 
ATOM      5  C   UNL     1      -2.736  12.172  19.539  0.00  0.00    +0.000 A 
ATOM      6  C   UNL     1      -2.499  11.463  18.348  0.00  0.00    +0.000 A 
ATOM      7  C   UNL     1      -4.578  13.159  21.129  0.00  0.00    +0.000 C 
ATOM      8  C   UNL     1      -3.825  13.197  22.474  0.00  0.00    +0.000 C 
ATOM      9  C   UNL     1      -3.614  14.597  22.997  0.00  0.00    +0.000 C 
ATOM     10  C   UNL     1      -3.709  15.712  22.261  0.00  0.00    +0.000 C 
ATOM     11  C   UNL     1      -4.195  15.632  20.836  0.00  0.00    +0.000 C 
ATOM     12  C   UNL     1      -5.234  14.501  20.738  0.00  0.00    +0.000 C 
ATOM     13  O   UNL     1      -5.881  14.492  19.448  0.00  0.00    +0.000 OA
ATOM     14  C   UNL     1      -6.327  13.173  19.061  0.00  0.00    +0.000 C 
ATOM     15  C   UNL     1      -3.541  14.559  24.494  0.00  0.00    +0.000 C 
ATOM     16  C   UNL     1      -3.924  13.118  24.833  0.00  0.00    +0.000 C 
ATOM     17  N   UNL     1      -4.489  12.493  23.622  0.00  0.00    +0.000 NA
ATOM     18  C   UNL     1      -5.953  12.538  23.647  0.00  0.00    +0.000 C 
ENDROOT
BRANCH   1  20
ATOM     19  C   UNL     1      -3.193  10.589  15.259  0.00  0.00    +0.000 C 
ATOM     20  O   UNL     1      -3.293  10.087  16.582  0.00  0.00    +0.000 OA
ENDBRANCH   1  20
BRANCH   6  21
ATOM     21  O   UNL     1      -1.168  11.284  18.037  0.00  0.00    +0.000 OA
ATOM     22  C   UNL     1      -0.360  10.827  19.121  0.00  0.00    +0.000 C 
ENDBRANCH   6  21
BRANCH  14  23
ATOM     23  O   UNL     1      -7.245  12.597  19.990  0.00  0.00    +0.000 OA
ATOM     24  C   UNL     1      -7.453  11.209  19.767  0.00  0.00    +0.000 C 
ENDBRANCH  14  23
TORSDOF 3
ENDMDL
