MODEL 1
REMARK VINA RESULT:      -6.9      0.000      0.000
REMARK  Name = 
REMARK  8 active torsions:
REMARK  status: ('A' for Active; 'I' for Inactive)
REMARK    1  A    between atoms: C_1  and  C_2
REMARK    2  A    between atoms: C_2  and  C_3
REMARK    3  A    between atoms: C_4  and  C_5
REMARK    4  A    between atoms: C_10  and  N_11
REMARK    5  A    between atoms: N_11  and  C_12
REMARK    6  A    between atoms: C_12  and  C_13
REMARK    7  A    between atoms: N_16  and  C_17
REMARK    8  A    between atoms: C_17  and  C_18
REMARK                            x       y       z     vdW  Elec       q    Type
REMARK                         _______ _______ _______ _____ _____    ______ ____
ROOT
ATOM      1  C   UNL     1       3.275   4.907  19.687  0.00  0.00    +0.000 A 
ATOM      2  C   UNL     1       2.535   3.741  19.895  0.00  0.00    +0.000 A 
ATOM      3  C   UNL     1       1.054   3.726  20.166  0.00  0.00    +0.000 C 
ATOM      4  N   UNL     1       3.100   2.517  19.947  0.00  0.00    +0.000 NA
ATOM      5  C   UNL     1       4.411   2.449  19.764  0.00  0.00    +0.000 A 
ATOM      6  N   UNL     1       4.989   1.199  19.882  0.00  0.00    +0.000 N 
ATOM      7  N   UNL     1       5.206   3.498  19.552  0.00  0.00    +0.000 NA
ATOM      8  C   UNL     1       4.646   4.721  19.499  0.00  0.00    +0.000 A 
ATOM      9  H   UNL     1       4.388   0.619  20.448  0.00  0.00    +0.000 HD
ATOM     10  H   UNL     1       5.946   1.305  20.195  0.00  0.00    +0.000 HD
ENDROOT
BRANCH   1  12
ATOM     11  C   UNL     1       2.492   6.829  18.274  0.00  0.00    +0.000 C 
ATOM     12  C   UNL     1       2.594   6.250  19.682  0.00  0.00    +0.000 C 
ENDBRANCH   1  12
BRANCH   8  13
ATOM     13  N   UNL     1       5.595   5.726  19.352  0.00  0.00    +0.000 N 
ATOM     14  H   UNL     1       5.902   5.924  20.306  0.00  0.00    +0.000 HD
BRANCH  13  15
ATOM     15  C   UNL     1       6.743   5.559  18.474  0.00  0.00    +0.000 C 
BRANCH  15  16
ATOM     16  C   UNL     1       6.436   5.446  17.016  0.00  0.00    +0.000 A 
ATOM     17  C   UNL     1       5.583   6.268  16.248  0.00  0.00    +0.000 A 
ATOM     18  N   UNL     1       5.603   5.963  14.949  0.00  0.00    +0.000 NA
ATOM     19  N   UNL     1       6.479   4.942  14.874  0.00  0.00    +0.000 N 
ATOM     20  C   UNL     1       6.990   4.585  16.087  0.00  0.00    +0.000 A 
BRANCH  19  21
ATOM     21  C   UNL     1       6.830   4.382  13.585  0.00  0.00    +0.000 C 
ATOM     22  C   UNL     1       5.694   3.579  12.984  0.00  0.00    +0.000 C 
ENDBRANCH  19  21
ENDBRANCH  15  16
ENDBRANCH  13  15
ENDBRANCH   8  13
TORSDOF 5
ENDMDL
MODEL 2
REMARK VINA RESULT:      -6.9      1.312      1.587
REMARK  Name = 
REMARK  8 active torsions:
REMARK  status: ('A' for Active; 'I' for Inactive)
REMARK    1  A    between atoms: C_1  and  C_2
REMARK    2  A    between atoms: C_2  and  C_3
REMARK    3  A    between atoms: C_4  and  C_5
REMARK    4  A    between atoms: C_10  and  N_11
REMARK    5  A    between atoms: N_11  and  C_12
REMARK    6  A    between atoms: C_12  and  C_13
REMARK    7  A    between atoms: N_16  and  C_17
REMARK    8  A    between atoms: C_17  and  C_18
REMARK                            x       y       z     vdW  Elec       q    Type
REMARK                         _______ _______ _______ _____ _____    ______ ____
ROOT
ATOM      1  C   UNL     1       2.991   4.639  18.746  0.00  0.00    +0.000 A 
ATOM      2  C   UNL     1       2.482   3.821  19.757  0.00  0.00    +0.000 A 
ATOM      3  C   UNL     1       1.121   4.000  20.373  0.00  0.00    +0.000 C 
ATOM      4  N   UNL     1       3.201   2.834  20.328  0.00  0.00    +0.000 NA
ATOM      5  C   UNL     1       4.431   2.641  19.873  0.00  0.00    +0.000 A 
ATOM      6  N   UNL     1       5.182   1.670  20.508  0.00  0.00    +0.000 N 
ATOM      7  N   UNL     1       5.009   3.360  18.910  0.00  0.00    +0.000 NA
ATOM      8  C   UNL     1       4.293   4.346  18.336  0.00  0.00    +0.000 A 
ATOM      9  H   UNL     1       4.812   1.533  21.436  0.00  0.00    +0.000 HD
ATOM     10  H   UNL     1       6.163   1.912  20.440  0.00  0.00    +0.000 HD
ENDROOT
BRANCH   1  12
ATOM     11  C   UNL     1       2.562   7.113  18.737  0.00  0.00    +0.000 C 
ATOM     12  C   UNL     1       2.154   5.754  18.175  0.00  0.00    +0.000 C 
ENDBRANCH   1  12
BRANCH   8  13
ATOM     13  N   UNL     1       5.039   5.062  17.408  0.00  0.00    +0.000 N 
ATOM     14  H   UNL     1       5.159   5.982  17.836  0.00  0.00    +0.000 HD
BRANCH  13  15
ATOM     15  C   UNL     1       6.314   4.562  16.914  0.00  0.00    +0.000 C 
BRANCH  15  16
ATOM     16  C   UNL     1       6.458   4.499  15.429  0.00  0.00    +0.000 A 
ATOM     17  C   UNL     1       7.372   5.208  14.619  0.00  0.00    +0.000 A 
ATOM     18  N   UNL     1       7.311   4.851  13.335  0.00  0.00    +0.000 NA
ATOM     19  N   UNL     1       6.355   3.902  13.313  0.00  0.00    +0.000 N 
ATOM     20  C   UNL     1       5.802   3.669  14.538  0.00  0.00    +0.000 A 
BRANCH  19  21
ATOM     21  C   UNL     1       6.054   3.205  12.079  0.00  0.00    +0.000 C 
ATOM     22  C   UNL     1       4.580   3.276  11.731  0.00  0.00    +0.000 C 
ENDBRANCH  19  21
ENDBRANCH  15  16
ENDBRANCH  13  15
ENDBRANCH   8  13
TORSDOF 5
ENDMDL
MODEL 3
REMARK VINA RESULT:      -6.8      2.037      3.313
REMARK  Name = 
REMARK  8 active torsions:
REMARK  status: ('A' for Active; 'I' for Inactive)
REMARK    1  A    between atoms: C_1  and  C_2
REMARK    2  A    between atoms: C_2  and  C_3
REMARK    3  A    between atoms: C_4  and  C_5
REMARK    4  A    between atoms: C_10  and  N_11
REMARK    5  A    between atoms: N_11  and  C_12
REMARK    6  A    between atoms: C_12  and  C_13
REMARK    7  A    between atoms: N_16  and  C_17
REMARK    8  A    between atoms: C_17  and  C_18
REMARK                            x       y       z     vdW  Elec       q    Type
REMARK                         _______ _______ _______ _____ _____    ______ ____
ROOT
ATOM      1  C   UNL     1       2.982   4.667  18.568  0.00  0.00    +0.000 A 
ATOM      2  C   UNL     1       2.572   4.076  19.765  0.00  0.00    +0.000 A 
ATOM      3  C   UNL     1       1.373   4.528  20.554  0.00  0.00    +0.000 C 
ATOM      4  N   UNL     1       3.263   3.085  20.364  0.00  0.00    +0.000 NA
ATOM      5  C   UNL     1       4.361   2.661  19.754  0.00  0.00    +0.000 A 
ATOM      6  N   UNL     1       5.097   1.691  20.408  0.00  0.00    +0.000 N 
ATOM      7  N   UNL     1       4.836   3.152  18.609  0.00  0.00    +0.000 NA
ATOM      8  C   UNL     1       4.147   4.140  18.007  0.00  0.00    +0.000 A 
ATOM      9  H   UNL     1       4.887   1.736  21.393  0.00  0.00    +0.000 HD
ATOM     10  H   UNL     1       6.071   1.781  20.146  0.00  0.00    +0.000 HD
ENDROOT
BRANCH   1  12
ATOM     11  C   UNL     1       2.880   7.145  18.174  0.00  0.00    +0.000 C 
ATOM     12  C   UNL     1       2.190   5.800  17.968  0.00  0.00    +0.000 C 
ENDBRANCH   1  12
BRANCH   8  13
ATOM     13  N   UNL     1       4.791   4.610  16.869  0.00  0.00    +0.000 N 
ATOM     14  H   UNL     1       4.396   5.540  16.721  0.00  0.00    +0.000 HD
BRANCH  13  15
ATOM     15  C   UNL     1       6.244   4.658  16.789  0.00  0.00    +0.000 C 
BRANCH  15  16
ATOM     16  C   UNL     1       6.892   5.842  17.430  0.00  0.00    +0.000 A 
ATOM     17  C   UNL     1       7.777   5.851  18.530  0.00  0.00    +0.000 A 
ATOM     18  N   UNL     1       8.260   7.066  18.796  0.00  0.00    +0.000 NA
ATOM     19  N   UNL     1       7.689   7.848  17.860  0.00  0.00    +0.000 N 
ATOM     20  C   UNL     1       6.848   7.165  17.030  0.00  0.00    +0.000 A 
BRANCH  19  21
ATOM     21  C   UNL     1       8.038   9.251  17.776  0.00  0.00    +0.000 C 
ATOM     22  C   UNL     1       9.003   9.664  18.870  0.00  0.00    +0.000 C 
ENDBRANCH  19  21
ENDBRANCH  15  16
ENDBRANCH  13  15
ENDBRANCH   8  13
TORSDOF 5
ENDMDL
MODEL 4
REMARK VINA RESULT:      -6.7      1.901      3.141
REMARK  Name = 
REMARK  8 active torsions:
REMARK  status: ('A' for Active; 'I' for Inactive)
REMARK    1  A    between atoms: C_1  and  C_2
REMARK    2  A    between atoms: C_2  and  C_3
REMARK    3  A    between atoms: C_4  and  C_5
REMARK    4  A    between atoms: C_10  and  N_11
REMARK    5  A    between atoms: N_11  and  C_12
REMARK    6  A    between atoms: C_12  and  C_13
REMARK    7  A    between atoms: N_16  and  C_17
REMARK    8  A    between atoms: C_17  and  C_18
REMARK                            x       y       z     vdW  Elec       q    Type
REMARK                         _______ _______ _______ _____ _____    ______ ____
ROOT
ATOM      1  C   UNL     1       2.351   5.681  18.879  0.00  0.00    +0.000 A 
ATOM      2  C   UNL     1       1.996   5.875  20.216  0.00  0.00    +0.000 A 
ATOM      3  C   UNL     1       1.577   7.204  20.786  0.00  0.00    +0.000 C 
ATOM      4  N   UNL     1       2.067   4.896  21.140  0.00  0.00    +0.000 NA
ATOM      5  C   UNL     1       2.473   3.704  20.726  0.00  0.00    +0.000 A 
ATOM      6  N   UNL     1       2.604   2.725  21.693  0.00  0.00    +0.000 N 
ATOM      7  N   UNL     1       2.829   3.412  19.476  0.00  0.00    +0.000 NA
ATOM      8  C   UNL     1       2.758   4.386  18.550  0.00  0.00    +0.000 A 
ATOM      9  H   UNL     1       2.729   3.171  22.589  0.00  0.00    +0.000 HD
ATOM     10  H   UNL     1       3.320   2.070  21.406  0.00  0.00    +0.000 HD
ENDROOT
BRANCH   1  12
ATOM     11  C   UNL     1       3.662   7.461  17.688  0.00  0.00    +0.000 C 
ATOM     12  C   UNL     1       2.292   6.825  17.901  0.00  0.00    +0.000 C 
ENDBRANCH   1  12
BRANCH   8  13
ATOM     13  N   UNL     1       3.232   3.969  17.311  0.00  0.00    +0.000 N 
ATOM     14  H   UNL     1       3.115   4.785  16.708  0.00  0.00    +0.000 HD
BRANCH  13  15
ATOM     15  C   UNL     1       4.569   3.414  17.161  0.00  0.00    +0.000 C 
BRANCH  15  16
ATOM     16  C   UNL     1       5.684   4.408  17.118  0.00  0.00    +0.000 A 
ATOM     17  C   UNL     1       6.328   4.934  15.977  0.00  0.00    +0.000 A 
ATOM     18  N   UNL     1       7.219   5.880  16.276  0.00  0.00    +0.000 NA
ATOM     19  N   UNL     1       7.150   5.972  17.618  0.00  0.00    +0.000 N 
ATOM     20  C   UNL     1       6.259   5.098  18.169  0.00  0.00    +0.000 A 
BRANCH  19  21
ATOM     21  C   UNL     1       7.933   6.969  18.318  0.00  0.00    +0.000 C 
ATOM     22  C   UNL     1       7.802   8.341  17.687  0.00  0.00    +0.000 C 
ENDBRANCH  19  21
ENDBRANCH  15  16
ENDBRANCH  13  15
ENDBRANCH   8  13
TORSDOF 5
ENDMDL
MODEL 5
REMARK VINA RESULT:      -6.6      2.282      3.109
REMARK  Name = 
REMARK  8 active torsions:
REMARK  status: ('A' for Active; 'I' for Inactive)
REMARK    1  A    between atoms: C_1  and  C_2
REMARK    2  A    between atoms: C_2  and  C_3
REMARK    3  A    between atoms: C_4  and  C_5
REMARK    4  A    between atoms: C_10  and  N_11
REMARK    5  A    between atoms: N_11  and  C_12
REMARK    6  A    between atoms: C_12  and  C_13
REMARK    7  A    between atoms: N_16  and  C_17
REMARK    8  A    between atoms: C_17  and  C_18
REMARK                            x       y       z     vdW  Elec       q    Type
REMARK                         _______ _______ _______ _____ _____    ______ ____
ROOT
ATOM      1  C   UNL     1       2.394   4.831  18.601  0.00  0.00    +0.000 A 
ATOM      2  C   UNL     1       1.647   4.658  19.768  0.00  0.00    +0.000 A 
ATOM      3  C   UNL     1       0.936   3.380  20.126  0.00  0.00    +0.000 C 
ATOM      4  N   UNL     1       1.432   5.653  20.652  0.00  0.00    +0.000 NA
ATOM      5  C   UNL     1       1.986   6.828  20.386  0.00  0.00    +0.000 A 
ATOM      6  N   UNL     1       1.707   7.858  21.264  0.00  0.00    +0.000 N 
ATOM      7  N   UNL     1       2.720   7.097  19.306  0.00  0.00    +0.000 NA
ATOM      8  C   UNL     1       2.938   6.105  18.422  0.00  0.00    +0.000 A 
ATOM      9  H   UNL     1       0.844   7.649  21.742  0.00  0.00    +0.000 HD
ATOM     10  H   UNL     1       1.750   8.738  20.766  0.00  0.00    +0.000 HD
ENDROOT
BRANCH   1  12
ATOM     11  C   UNL     1       3.899   2.980  17.820  0.00  0.00    +0.000 C 
ATOM     12  C   UNL     1       2.564   3.693  17.629  0.00  0.00    +0.000 C 
ENDBRANCH   1  12
BRANCH   8  13
ATOM     13  N   UNL     1       3.649   6.541  17.310  0.00  0.00    +0.000 N 
ATOM     14  H   UNL     1       3.245   7.454  17.094  0.00  0.00    +0.000 HD
BRANCH  13  15
ATOM     15  C   UNL     1       5.102   6.619  17.325  0.00  0.00    +0.000 C 
BRANCH  15  16
ATOM     16  C   UNL     1       5.806   5.873  16.239  0.00  0.00    +0.000 A 
ATOM     17  C   UNL     1       7.177   5.545  16.165  0.00  0.00    +0.000 A 
ATOM     18  N   UNL     1       7.471   4.783  15.111  0.00  0.00    +0.000 NA
ATOM     19  N   UNL     1       6.283   4.611  14.500  0.00  0.00    +0.000 N 
ATOM     20  C   UNL     1       5.259   5.259  15.127  0.00  0.00    +0.000 A 
BRANCH  19  21
ATOM     21  C   UNL     1       6.184   3.756  13.335  0.00  0.00    +0.000 C 
ATOM     22  C   UNL     1       7.123   4.192  12.227  0.00  0.00    +0.000 C 
ENDBRANCH  19  21
ENDBRANCH  15  16
ENDBRANCH  13  15
ENDBRANCH   8  13
TORSDOF 5
ENDMDL
MODEL 6
REMARK VINA RESULT:      -6.6      1.905      3.207
REMARK  Name = 
REMARK  8 active torsions:
REMARK  status: ('A' for Active; 'I' for Inactive)
REMARK    1  A    between atoms: C_1  and  C_2
REMARK    2  A    between atoms: C_2  and  C_3
REMARK    3  A    between atoms: C_4  and  C_5
REMARK    4  A    between atoms: C_10  and  N_11
REMARK    5  A    between atoms: N_11  and  C_12
REMARK    6  A    between atoms: C_12  and  C_13
REMARK    7  A    between atoms: N_16  and  C_17
REMARK    8  A    between atoms: C_17  and  C_18
REMARK                            x       y       z     vdW  Elec       q    Type
REMARK                         _______ _______ _______ _____ _____    ______ ____
ROOT
ATOM      1  C   UNL     1       2.529   4.240  18.216  0.00  0.00    +0.000 A 
ATOM      2  C   UNL     1       2.089   3.361  19.208  0.00  0.00    +0.000 A 
ATOM      3  C   UNL     1       1.083   3.729  20.266  0.00  0.00    +0.000 C 
ATOM      4  N   UNL     1       2.585   2.116  19.354  0.00  0.00    +0.000 NA
ATOM      5  C   UNL     1       3.513   1.731  18.488  0.00  0.00    +0.000 A 
ATOM      6  N   UNL     1       4.061   0.478  18.685  0.00  0.00    +0.000 N 
ATOM      7  N   UNL     1       3.997   2.488  17.503  0.00  0.00    +0.000 NA
ATOM      8  C   UNL     1       3.503   3.731  17.354  0.00  0.00    +0.000 A 
ATOM      9  H   UNL     1       3.940   0.221  19.653  0.00  0.00    +0.000 HD
ATOM     10  H   UNL     1       5.008   0.471  18.327  0.00  0.00    +0.000 HD
ENDROOT
BRANCH   1  12
ATOM     11  C   UNL     1       2.904   6.663  18.756  0.00  0.00    +0.000 C 
ATOM     12  C   UNL     1       1.967   5.635  18.130  0.00  0.00    +0.000 C 
ENDBRANCH   1  12
BRANCH   8  13
ATOM     13  N   UNL     1       4.148   4.434  16.344  0.00  0.00    +0.000 N 
ATOM     14  H   UNL     1       3.846   5.401  16.477  0.00  0.00    +0.000 HD
BRANCH  13  15
ATOM     15  C   UNL     1       5.594   4.372  16.186  0.00  0.00    +0.000 C 
BRANCH  15  16
ATOM     16  C   UNL     1       6.393   5.118  17.204  0.00  0.00    +0.000 A 
ATOM     17  C   UNL     1       6.948   4.617  18.402  0.00  0.00    +0.000 A 
ATOM     18  N   UNL     1       7.693   5.518  19.044  0.00  0.00    +0.000 NA
ATOM     19  N   UNL     1       7.626   6.608  18.255  0.00  0.00    +0.000 N 
ATOM     20  C   UNL     1       6.845   6.424  17.152  0.00  0.00    +0.000 A 
BRANCH  19  21
ATOM     21  C   UNL     1       8.389   7.793  18.589  0.00  0.00    +0.000 C 
ATOM     22  C   UNL     1       7.995   8.984  17.737  0.00  0.00    +0.000 C 
ENDBRANCH  19  21
ENDBRANCH  15  16
ENDBRANCH  13  15
ENDBRANCH   8  13
TORSDOF 5
ENDMDL
MODEL 7
REMARK VINA RESULT:      -6.5      1.200      1.418
REMARK  Name = 
REMARK  8 active torsions:
REMARK  status: ('A' for Active; 'I' for Inactive)
REMARK    1  A    between atoms: C_1  and  C_2
REMARK    2  A    between atoms: C_2  and  C_3
REMARK    3  A    between atoms: C_4  and  C_5
REMARK    4  A    between atoms: C_10  and  N_11
REMARK    5  A    between atoms: N_11  and  C_12
REMARK    6  A    between atoms: C_12  and  C_13
REMARK    7  A    between atoms: N_16  and  C_17
REMARK    8  A    between atoms: C_17  and  C_18
REMARK                            x       y       z     vdW  Elec       q    Type
REMARK                         _______ _______ _______ _____ _____    ______ ____
ROOT
ATOM      1  C   UNL     1       2.946   4.346  20.008  0.00  0.00    +0.000 A 
ATOM      2  C   UNL     1       2.290   3.137  20.245  0.00  0.00    +0.000 A 
ATOM      3  C   UNL     1       1.212   2.958  21.281  0.00  0.00    +0.000 C 
ATOM      4  N   UNL     1       2.617   1.992  19.612  0.00  0.00    +0.000 NA
ATOM      5  C   UNL     1       3.592   2.055  18.715  0.00  0.00    +0.000 A 
ATOM      6  N   UNL     1       3.964   0.865  18.120  0.00  0.00    +0.000 N 
ATOM      7  N   UNL     1       4.276   3.158  18.410  0.00  0.00    +0.000 NA
ATOM      8  C   UNL     1       3.951   4.303  19.039  0.00  0.00    +0.000 A 
ATOM      9  H   UNL     1       3.697   0.104  18.726  0.00  0.00    +0.000 HD
ATOM     10  H   UNL     1       4.940   0.917  17.856  0.00  0.00    +0.000 HD
ENDROOT
BRANCH   1  12
ATOM     11  C   UNL     1       1.798   6.577  19.908  0.00  0.00    +0.000 C 
ATOM     12  C   UNL     1       2.563   5.584  20.777  0.00  0.00    +0.000 C 
ENDBRANCH   1  12
BRANCH   8  13
ATOM     13  N   UNL     1       4.791   5.352  18.686  0.00  0.00    +0.000 N 
ATOM     14  H   UNL     1       5.732   4.972  18.802  0.00  0.00    +0.000 HD
BRANCH  13  15
ATOM     15  C   UNL     1       4.669   6.017  17.397  0.00  0.00    +0.000 C 
BRANCH  15  16
ATOM     16  C   UNL     1       5.641   5.587  16.348  0.00  0.00    +0.000 A 
ATOM     17  C   UNL     1       7.043   5.466  16.468  0.00  0.00    +0.000 A 
ATOM     18  N   UNL     1       7.614   4.959  15.373  0.00  0.00    +0.000 NA
ATOM     19  N   UNL     1       6.576   4.745  14.542  0.00  0.00    +0.000 N 
ATOM     20  C   UNL     1       5.377   5.122  15.073  0.00  0.00    +0.000 A 
BRANCH  19  21
ATOM     21  C   UNL     1       6.796   4.115  13.256  0.00  0.00    +0.000 C 
ATOM     22  C   UNL     1       5.522   3.517  12.690  0.00  0.00    +0.000 C 
ENDBRANCH  19  21
ENDBRANCH  15  16
ENDBRANCH  13  15
ENDBRANCH   8  13
TORSDOF 5
ENDMDL
MODEL 8
REMARK VINA RESULT:      -6.5      1.743      2.896
REMARK  Name = 
REMARK  8 active torsions:
REMARK  status: ('A' for Active; 'I' for Inactive)
REMARK    1  A    between atoms: C_1  and  C_2
REMARK    2  A    between atoms: C_2  and  C_3
REMARK    3  A    between atoms: C_4  and  C_5
REMARK    4  A    between atoms: C_10  and  N_11
REMARK    5  A    between atoms: N_11  and  C_12
REMARK    6  A    between atoms: C_12  and  C_13
REMARK    7  A    between atoms: N_16  and  C_17
REMARK    8  A    between atoms: C_17  and  C_18
REMARK                            x       y       z     vdW  Elec       q    Type
REMARK                         _______ _______ _______ _____ _____    ______ ____
ROOT
ATOM      1  C   UNL     1       3.293   3.631  19.850  0.00  0.00    +0.000 A 
ATOM      2  C   UNL     1       2.178   3.820  20.670  0.00  0.00    +0.000 A 
ATOM      3  C   UNL     1       1.378   2.693  21.268  0.00  0.00    +0.000 C 
ATOM      4  N   UNL     1       1.671   5.039  20.944  0.00  0.00    +0.000 NA
ATOM      5  C   UNL     1       2.292   6.084  20.415  0.00  0.00    +0.000 A 
ATOM      6  N   UNL     1       1.727   7.323  20.648  0.00  0.00    +0.000 N 
ATOM      7  N   UNL     1       3.364   6.014  19.626  0.00  0.00    +0.000 NA
ATOM      8  C   UNL     1       3.875   4.799  19.352  0.00  0.00    +0.000 A 
ATOM      9  H   UNL     1       0.748   7.197  20.858  0.00  0.00    +0.000 HD
ATOM     10  H   UNL     1       1.950   7.940  19.877  0.00  0.00    +0.000 HD
ENDROOT
BRANCH   1  12
ATOM     11  C   UNL     1       3.321   1.759  18.178  0.00  0.00    +0.000 C 
ATOM     12  C   UNL     1       3.789   2.242  19.547  0.00  0.00    +0.000 C 
ENDBRANCH   1  12
BRANCH   8  13
ATOM     13  N   UNL     1       4.937   4.866  18.459  0.00  0.00    +0.000 N 
ATOM     14  H   UNL     1       5.010   3.920  18.082  0.00  0.00    +0.000 HD
BRANCH  13  15
ATOM     15  C   UNL     1       4.958   5.844  17.381  0.00  0.00    +0.000 C 
BRANCH  15  16
ATOM     16  C   UNL     1       5.676   5.429  16.139  0.00  0.00    +0.000 A 
ATOM     17  C   UNL     1       7.028   5.662  15.804  0.00  0.00    +0.000 A 
ATOM     18  N   UNL     1       7.387   5.071  14.662  0.00  0.00    +0.000 NA
ATOM     19  N   UNL     1       6.263   4.449  14.258  0.00  0.00    +0.000 N 
ATOM     20  C   UNL     1       5.208   4.648  15.098  0.00  0.00    +0.000 A 
BRANCH  19  21
ATOM     21  C   UNL     1       6.282   3.620  13.070  0.00  0.00    +0.000 C 
ATOM     22  C   UNL     1       7.164   4.202  11.983  0.00  0.00    +0.000 C 
ENDBRANCH  19  21
ENDBRANCH  15  16
ENDBRANCH  13  15
ENDBRANCH   8  13
TORSDOF 5
ENDMDL
MODEL 9
REMARK VINA RESULT:      -6.5      1.240      1.419
REMARK  Name = 
REMARK  8 active torsions:
REMARK  status: ('A' for Active; 'I' for Inactive)
REMARK    1  A    between atoms: C_1  and  C_2
REMARK    2  A    between atoms: C_2  and  C_3
REMARK    3  A    between atoms: C_4  and  C_5
REMARK    4  A    between atoms: C_10  and  N_11
REMARK    5  A    between atoms: N_11  and  C_12
REMARK    6  A    between atoms: C_12  and  C_13
REMARK    7  A    between atoms: N_16  and  C_17
REMARK    8  A    between atoms: C_17  and  C_18
REMARK                            x       y       z     vdW  Elec       q    Type
REMARK                         _______ _______ _______ _____ _____    ______ ____
ROOT
ATOM      1  C   UNL     1       2.564   4.184  19.162  0.00  0.00    +0.000 A 
ATOM      2  C   UNL     1       1.885   2.988  18.918  0.00  0.00    +0.000 A 
ATOM      3  C   UNL     1       0.387   2.880  18.825  0.00  0.00    +0.000 C 
ATOM      4  N   UNL     1       2.514   1.800  18.816  0.00  0.00    +0.000 NA
ATOM      5  C   UNL     1       3.834   1.803  18.933  0.00  0.00    +0.000 A 
ATOM      6  N   UNL     1       4.462   0.573  18.891  0.00  0.00    +0.000 N 
ATOM      7  N   UNL     1       4.576   2.886  19.161  0.00  0.00    +0.000 NA
ATOM      8  C   UNL     1       3.953   4.075  19.262  0.00  0.00    +0.000 A 
ATOM      9  H   UNL     1       3.796  -0.139  19.152  0.00  0.00    +0.000 HD
ATOM     10  H   UNL     1       5.316   0.618  19.434  0.00  0.00    +0.000 HD
ENDROOT
BRANCH   1  12
ATOM     11  C   UNL     1       1.589   5.844  20.774  0.00  0.00    +0.000 C 
ATOM     12  C   UNL     1       1.803   5.476  19.309  0.00  0.00    +0.000 C 
ENDBRANCH   1  12
BRANCH   8  13
ATOM     13  N   UNL     1       4.833   5.104  19.576  0.00  0.00    +0.000 N 
ATOM     14  H   UNL     1       4.712   5.241  20.581  0.00  0.00    +0.000 HD
BRANCH  13  15
ATOM     15  C   UNL     1       6.247   5.016  19.243  0.00  0.00    +0.000 C 
BRANCH  15  16
ATOM     16  C   UNL     1       6.603   5.332  17.827  0.00  0.00    +0.000 A 
ATOM     17  C   UNL     1       7.297   6.462  17.343  0.00  0.00    +0.000 A 
ATOM     18  N   UNL     1       7.544   6.395  16.033  0.00  0.00    +0.000 NA
ATOM     19  N   UNL     1       7.012   5.213  15.668  0.00  0.00    +0.000 N 
ATOM     20  C   UNL     1       6.421   4.548  16.702  0.00  0.00    +0.000 A 
BRANCH  19  21
ATOM     21  C   UNL     1       7.154   4.745  14.304  0.00  0.00    +0.000 C 
ATOM     22  C   UNL     1       5.940   3.964  13.841  0.00  0.00    +0.000 C 
ENDBRANCH  19  21
ENDBRANCH  15  16
ENDBRANCH  13  15
ENDBRANCH   8  13
TORSDOF 5
ENDMDL
