MODEL 1
REMARK VINA RESULT:      -7.9      0.000      0.000
REMARK  Name = 
REMARK  3 active torsions:
REMARK  status: ('A' for Active; 'I' for Inactive)
REMARK    1  A    between atoms: C_1  and  N_2
REMARK    2  A    between atoms: N_2  and  C_3
REMARK    3  A    between atoms: C_5  and  C_6
REMARK                            x       y       z     vdW  Elec       q    Type
REMARK                         _______ _______ _______ _____ _____    ______ ____
ROOT
ATOM      1  C   UNL     1       2.640   6.345  19.991  0.00  0.00    +0.000 C 
ATOM      2  C   UNL     1       2.841   6.891  18.557  0.00  0.00    +0.000 C 
ATOM      3  C   UNL     1       3.084   5.668  17.648  0.00  0.00    +0.000 C 
ATOM      4  C   UNL     1       2.222   4.646  18.353  0.00  0.00    +0.000 A 
ATOM      5  C   UNL     1       1.800   3.424  17.855  0.00  0.00    +0.000 A 
ATOM      6  C   UNL     1       1.130   2.555  18.715  0.00  0.00    +0.000 A 
ATOM      7  C   UNL     1       0.893   2.917  20.052  0.00  0.00    +0.000 A 
ATOM      8  C   UNL     1       1.319   4.156  20.544  0.00  0.00    +0.000 A 
ATOM      9  C   UNL     1       1.977   5.023  19.687  0.00  0.00    +0.000 A 
ENDROOT
BRANCH   3  10
ATOM     10  C   UNL     1       4.552   5.292  17.540  0.00  0.00    +0.000 A 
ATOM     11  C   UNL     1       5.462   5.530  18.586  0.00  0.00    +0.000 A 
ATOM     12  C   UNL     1       6.807   5.188  18.467  0.00  0.00    +0.000 A 
ATOM     13  C   UNL     1       7.274   4.601  17.299  0.00  0.00    +0.000 A 
ATOM     14  C   UNL     1       6.391   4.352  16.248  0.00  0.00    +0.000 A 
ATOM     15  C   UNL     1       5.039   4.697  16.365  0.00  0.00    +0.000 A 
ENDBRANCH   3  10
BRANCH   1  17
ATOM     16  C   UNL     1       1.473   8.458  20.177  0.00  0.00    +0.000 C 
ATOM     17  N   UNL     1       1.842   7.219  20.852  0.00  0.00    +0.000 NA
ATOM     18  H   UNL     1       0.998   6.724  21.134  0.00  0.00    +0.000 HD
ENDBRANCH   1  17
TORSDOF 2
ENDMDL
MODEL 2
REMARK VINA RESULT:      -7.8      0.088      1.171
REMARK  Name = 
REMARK  3 active torsions:
REMARK  status: ('A' for Active; 'I' for Inactive)
REMARK    1  A    between atoms: C_1  and  N_2
REMARK    2  A    between atoms: N_2  and  C_3
REMARK    3  A    between atoms: C_5  and  C_6
REMARK                            x       y       z     vdW  Elec       q    Type
REMARK                         _______ _______ _______ _____ _____    ______ ____
ROOT
ATOM      1  C   UNL     1       2.600   6.415  19.970  0.00  0.00    +0.000 C 
ATOM      2  C   UNL     1       2.797   6.922  18.522  0.00  0.00    +0.000 C 
ATOM      3  C   UNL     1       3.055   5.676  17.648  0.00  0.00    +0.000 C 
ATOM      4  C   UNL     1       2.203   4.665  18.381  0.00  0.00    +0.000 A 
ATOM      5  C   UNL     1       1.796   3.425  17.917  0.00  0.00    +0.000 A 
ATOM      6  C   UNL     1       1.134   2.573  18.801  0.00  0.00    +0.000 A 
ATOM      7  C   UNL     1       0.891   2.971  20.126  0.00  0.00    +0.000 A 
ATOM      8  C   UNL     1       1.303   4.227  20.584  0.00  0.00    +0.000 A 
ATOM      9  C   UNL     1       1.952   5.077  19.703  0.00  0.00    +0.000 A 
ENDROOT
BRANCH   3  10
ATOM     10  C   UNL     1       4.527   5.313  17.553  0.00  0.00    +0.000 A 
ATOM     11  C   UNL     1       5.082   4.744  16.392  0.00  0.00    +0.000 A 
ATOM     12  C   UNL     1       6.433   4.409  16.325  0.00  0.00    +0.000 A 
ATOM     13  C   UNL     1       7.259   4.633  17.418  0.00  0.00    +0.000 A 
ATOM     14  C   UNL     1       6.733   5.197  18.580  0.00  0.00    +0.000 A 
ATOM     15  C   UNL     1       5.376   5.533  18.649  0.00  0.00    +0.000 A 
ENDBRANCH   3  10
BRANCH   1  17
ATOM     16  C   UNL     1       1.469   8.550  20.119  0.00  0.00    +0.000 C 
ATOM     17  N   UNL     1       1.791   7.304  20.805  0.00  0.00    +0.000 NA
ATOM     18  H   UNL     1       0.927   6.825  21.058  0.00  0.00    +0.000 HD
ENDBRANCH   1  17
TORSDOF 2
ENDMDL
MODEL 3
REMARK VINA RESULT:      -7.8      2.298      5.427
REMARK  Name = 
REMARK  3 active torsions:
REMARK  status: ('A' for Active; 'I' for Inactive)
REMARK    1  A    between atoms: C_1  and  N_2
REMARK    2  A    between atoms: N_2  and  C_3
REMARK    3  A    between atoms: C_5  and  C_6
REMARK                            x       y       z     vdW  Elec       q    Type
REMARK                         _______ _______ _______ _____ _____    ______ ____
ROOT
ATOM      1  C   UNL     1       4.734   4.477  19.252  0.00  0.00    +0.000 C 
ATOM      2  C   UNL     1       3.681   4.611  18.126  0.00  0.00    +0.000 C 
ATOM      3  C   UNL     1       3.822   6.039  17.556  0.00  0.00    +0.000 C 
ATOM      4  C   UNL     1       5.309   6.246  17.740  0.00  0.00    +0.000 A 
ATOM      5  C   UNL     1       6.092   7.229  17.158  0.00  0.00    +0.000 A 
ATOM      6  C   UNL     1       7.420   7.344  17.566  0.00  0.00    +0.000 A 
ATOM      7  C   UNL     1       7.942   6.480  18.544  0.00  0.00    +0.000 A 
ATOM      8  C   UNL     1       7.144   5.487  19.122  0.00  0.00    +0.000 A 
ATOM      9  C   UNL     1       5.827   5.367  18.709  0.00  0.00    +0.000 A 
ENDROOT
BRANCH   3  10
ATOM     10  C   UNL     1       2.949   7.052  18.276  0.00  0.00    +0.000 A 
ATOM     11  C   UNL     1       2.511   6.855  19.599  0.00  0.00    +0.000 A 
ATOM     12  C   UNL     1       1.703   7.790  20.241  0.00  0.00    +0.000 A 
ATOM     13  C   UNL     1       1.311   8.943  19.575  0.00  0.00    +0.000 A 
ATOM     14  C   UNL     1       1.733   9.163  18.264  0.00  0.00    +0.000 A 
ATOM     15  C   UNL     1       2.544   8.224  17.617  0.00  0.00    +0.000 A 
ENDBRANCH   3  10
BRANCH   1  17
ATOM     16  C   UNL     1       4.047   2.238  19.867  0.00  0.00    +0.000 C 
ATOM     17  N   UNL     1       5.165   3.101  19.500  0.00  0.00    +0.000 NA
ATOM     18  H   UNL     1       5.610   2.737  18.658  0.00  0.00    +0.000 HD
ENDBRANCH   1  17
TORSDOF 2
ENDMDL
MODEL 4
REMARK VINA RESULT:      -7.7      2.284      5.492
REMARK  Name = 
REMARK  3 active torsions:
REMARK  status: ('A' for Active; 'I' for Inactive)
REMARK    1  A    between atoms: C_1  and  N_2
REMARK    2  A    between atoms: N_2  and  C_3
REMARK    3  A    between atoms: C_5  and  C_6
REMARK                            x       y       z     vdW  Elec       q    Type
REMARK                         _______ _______ _______ _____ _____    ______ ____
ROOT
ATOM      1  C   UNL     1       4.721   4.480  19.242  0.00  0.00    +0.000 C 
ATOM      2  C   UNL     1       3.677   4.609  18.107  0.00  0.00    +0.000 C 
ATOM      3  C   UNL     1       3.824   6.034  17.531  0.00  0.00    +0.000 C 
ATOM      4  C   UNL     1       5.309   6.240  17.725  0.00  0.00    +0.000 A 
ATOM      5  C   UNL     1       6.097   7.220  17.145  0.00  0.00    +0.000 A 
ATOM      6  C   UNL     1       7.422   7.336  17.563  0.00  0.00    +0.000 A 
ATOM      7  C   UNL     1       7.936   6.476  18.549  0.00  0.00    +0.000 A 
ATOM      8  C   UNL     1       7.132   5.487  19.126  0.00  0.00    +0.000 A 
ATOM      9  C   UNL     1       5.818   5.366  18.703  0.00  0.00    +0.000 A 
ENDROOT
BRANCH   3  10
ATOM     10  C   UNL     1       2.946   7.052  18.239  0.00  0.00    +0.000 A 
ATOM     11  C   UNL     1       2.544   8.250  17.620  0.00  0.00    +0.000 A 
ATOM     12  C   UNL     1       1.746   9.177  18.287  0.00  0.00    +0.000 A 
ATOM     13  C   UNL     1       1.333   8.929  19.589  0.00  0.00    +0.000 A 
ATOM     14  C   UNL     1       1.717   7.748  20.224  0.00  0.00    +0.000 A 
ATOM     15  C   UNL     1       2.520   6.816  19.556  0.00  0.00    +0.000 A 
ENDBRANCH   3  10
BRANCH   1  17
ATOM     16  C   UNL     1       4.020   2.181  19.533  0.00  0.00    +0.000 C 
ATOM     17  N   UNL     1       5.148   3.105  19.500  0.00  0.00    +0.000 NA
ATOM     18  H   UNL     1       5.798   2.818  18.770  0.00  0.00    +0.000 HD
ENDBRANCH   1  17
TORSDOF 2
ENDMDL
MODEL 5
REMARK VINA RESULT:      -7.6      1.735      4.658
REMARK  Name = 
REMARK  3 active torsions:
REMARK  status: ('A' for Active; 'I' for Inactive)
REMARK    1  A    between atoms: C_1  and  N_2
REMARK    2  A    between atoms: N_2  and  C_3
REMARK    3  A    between atoms: C_5  and  C_6
REMARK                            x       y       z     vdW  Elec       q    Type
REMARK                         _______ _______ _______ _____ _____    ______ ____
ROOT
ATOM      1  C   UNL     1       3.531   4.979  17.455  0.00  0.00    +0.000 C 
ATOM      2  C   UNL     1       4.225   5.834  18.543  0.00  0.00    +0.000 C 
ATOM      3  C   UNL     1       3.165   6.105  19.633  0.00  0.00    +0.000 C 
ATOM      4  C   UNL     1       2.369   4.823  19.545  0.00  0.00    +0.000 A 
ATOM      5  C   UNL     1       1.454   4.345  20.469  0.00  0.00    +0.000 A 
ATOM      6  C   UNL     1       0.712   3.212  20.138  0.00  0.00    +0.000 A 
ATOM      7  C   UNL     1       0.893   2.579  18.897  0.00  0.00    +0.000 A 
ATOM      8  C   UNL     1       1.822   3.067  17.973  0.00  0.00    +0.000 A 
ATOM      9  C   UNL     1       2.567   4.188  18.305  0.00  0.00    +0.000 A 
ENDROOT
BRANCH   3  10
ATOM     10  C   UNL     1       2.362   7.369  19.377  0.00  0.00    +0.000 A 
ATOM     11  C   UNL     1       2.303   7.971  18.107  0.00  0.00    +0.000 A 
ATOM     12  C   UNL     1       1.569   9.135  17.891  0.00  0.00    +0.000 A 
ATOM     13  C   UNL     1       0.878   9.725  18.941  0.00  0.00    +0.000 A 
ATOM     14  C   UNL     1       0.919   9.146  20.208  0.00  0.00    +0.000 A 
ATOM     15  C   UNL     1       1.657   7.978  20.428  0.00  0.00    +0.000 A 
ENDBRANCH   3  10
BRANCH   1  17
ATOM     16  C   UNL     1       5.845   4.411  17.022  0.00  0.00    +0.000 C 
ATOM     17  N   UNL     1       4.452   4.147  16.679  0.00  0.00    +0.000 NA
ATOM     18  H   UNL     1       4.241   3.166  16.858  0.00  0.00    +0.000 HD
ENDBRANCH   1  17
TORSDOF 2
ENDMDL
MODEL 6
REMARK VINA RESULT:      -7.5      1.795      4.490
REMARK  Name = 
REMARK  3 active torsions:
REMARK  status: ('A' for Active; 'I' for Inactive)
REMARK    1  A    between atoms: C_1  and  N_2
REMARK    2  A    between atoms: N_2  and  C_3
REMARK    3  A    between atoms: C_5  and  C_6
REMARK                            x       y       z     vdW  Elec       q    Type
REMARK                         _______ _______ _______ _____ _____    ______ ____
ROOT
ATOM      1  C   UNL     1       3.584   4.862  17.471  0.00  0.00    +0.000 C 
ATOM      2  C   UNL     1       4.287   5.709  18.559  0.00  0.00    +0.000 C 
ATOM      3  C   UNL     1       3.225   6.013  19.638  0.00  0.00    +0.000 C 
ATOM      4  C   UNL     1       2.399   4.750  19.552  0.00  0.00    +0.000 A 
ATOM      5  C   UNL     1       1.465   4.301  20.471  0.00  0.00    +0.000 A 
ATOM      6  C   UNL     1       0.699   3.184  20.142  0.00  0.00    +0.000 A 
ATOM      7  C   UNL     1       0.876   2.536  18.907  0.00  0.00    +0.000 A 
ATOM      8  C   UNL     1       1.825   2.996  17.988  0.00  0.00    +0.000 A 
ATOM      9  C   UNL     1       2.593   4.100  18.319  0.00  0.00    +0.000 A 
ENDROOT
BRANCH   3  10
ATOM     10  C   UNL     1       2.454   7.294  19.364  0.00  0.00    +0.000 A 
ATOM     11  C   UNL     1       1.681   7.925  20.356  0.00  0.00    +0.000 A 
ATOM     12  C   UNL     1       0.973   9.094  20.086  0.00  0.00    +0.000 A 
ATOM     13  C   UNL     1       1.019   9.657  18.818  0.00  0.00    +0.000 A 
ATOM     14  C   UNL     1       1.780   9.051  17.819  0.00  0.00    +0.000 A 
ATOM     15  C   UNL     1       2.491   7.876  18.087  0.00  0.00    +0.000 A 
ENDBRANCH   3  10
BRANCH   1  17
ATOM     16  C   UNL     1       5.414   4.777  15.888  0.00  0.00    +0.000 C 
ATOM     17  N   UNL     1       4.491   4.003  16.711  0.00  0.00    +0.000 NA
ATOM     18  H   UNL     1       5.023   3.425  17.361  0.00  0.00    +0.000 HD
ENDBRANCH   1  17
TORSDOF 2
ENDMDL
MODEL 7
REMARK VINA RESULT:      -7.3      1.327      1.415
REMARK  Name = 
REMARK  3 active torsions:
REMARK  status: ('A' for Active; 'I' for Inactive)
REMARK    1  A    between atoms: C_1  and  N_2
REMARK    2  A    between atoms: N_2  and  C_3
REMARK    3  A    between atoms: C_5  and  C_6
REMARK                            x       y       z     vdW  Elec       q    Type
REMARK                         _______ _______ _______ _____ _____    ______ ____
ROOT
ATOM      1  C   UNL     1       2.489   7.368  19.583  0.00  0.00    +0.000 C 
ATOM      2  C   UNL     1       2.906   7.491  18.098  0.00  0.00    +0.000 C 
ATOM      3  C   UNL     1       3.571   6.151  17.714  0.00  0.00    +0.000 C 
ATOM      4  C   UNL     1       2.775   5.207  18.586  0.00  0.00    +0.000 A 
ATOM      5  C   UNL     1       2.711   3.828  18.479  0.00  0.00    +0.000 A 
ATOM      6  C   UNL     1       2.035   3.119  19.472  0.00  0.00    +0.000 A 
ATOM      7  C   UNL     1       1.438   3.795  20.549  0.00  0.00    +0.000 A 
ATOM      8  C   UNL     1       1.505   5.189  20.646  0.00  0.00    +0.000 A 
ATOM      9  C   UNL     1       2.169   5.894  19.654  0.00  0.00    +0.000 A 
ENDROOT
BRANCH   3  10
ATOM     10  C   UNL     1       5.069   6.139  17.969  0.00  0.00    +0.000 A 
ATOM     11  C   UNL     1       5.636   5.437  19.049  0.00  0.00    +0.000 A 
ATOM     12  C   UNL     1       7.011   5.444  19.274  0.00  0.00    +0.000 A 
ATOM     13  C   UNL     1       7.850   6.154  18.425  0.00  0.00    +0.000 A 
ATOM     14  C   UNL     1       7.312   6.855  17.347  0.00  0.00    +0.000 A 
ATOM     15  C   UNL     1       5.931   6.851  17.120  0.00  0.00    +0.000 A 
ENDBRANCH   3  10
BRANCH   1  17
ATOM     16  C   UNL     1       1.176   9.317  19.002  0.00  0.00    +0.000 C 
ATOM     17  N   UNL     1       1.370   8.233  19.958  0.00  0.00    +0.000 NA
ATOM     18  H   UNL     1       0.521   7.671  20.007  0.00  0.00    +0.000 HD
ENDBRANCH   1  17
TORSDOF 2
ENDMDL
MODEL 8
REMARK VINA RESULT:      -7.1      1.494      4.695
REMARK  Name = 
REMARK  3 active torsions:
REMARK  status: ('A' for Active; 'I' for Inactive)
REMARK    1  A    between atoms: C_1  and  N_2
REMARK    2  A    between atoms: N_2  and  C_3
REMARK    3  A    between atoms: C_5  and  C_6
REMARK                            x       y       z     vdW  Elec       q    Type
REMARK                         _______ _______ _______ _____ _____    ______ ____
ROOT
ATOM      1  C   UNL     1       3.022   7.190  17.778  0.00  0.00    +0.000 C 
ATOM      2  C   UNL     1       2.699   6.900  19.263  0.00  0.00    +0.000 C 
ATOM      3  C   UNL     1       3.423   5.586  19.625  0.00  0.00    +0.000 C 
ATOM      4  C   UNL     1       4.643   5.711  18.741  0.00  0.00    +0.000 A 
ATOM      5  C   UNL     1       5.814   4.976  18.827  0.00  0.00    +0.000 A 
ATOM      6  C   UNL     1       6.771   5.138  17.826  0.00  0.00    +0.000 A 
ATOM      7  C   UNL     1       6.545   6.026  16.761  0.00  0.00    +0.000 A 
ATOM      8  C   UNL     1       5.361   6.768  16.686  0.00  0.00    +0.000 A 
ATOM      9  C   UNL     1       4.414   6.613  17.686  0.00  0.00    +0.000 A 
ENDROOT
BRANCH   3  10
ATOM     10  C   UNL     1       2.576   4.352  19.364  0.00  0.00    +0.000 A 
ATOM     11  C   UNL     1       2.850   3.470  18.303  0.00  0.00    +0.000 A 
ATOM     12  C   UNL     1       2.057   2.347  18.073  0.00  0.00    +0.000 A 
ATOM     13  C   UNL     1       0.972   2.082  18.897  0.00  0.00    +0.000 A 
ATOM     14  C   UNL     1       0.681   2.940  19.957  0.00  0.00    +0.000 A 
ATOM     15  C   UNL     1       1.475   4.070  20.189  0.00  0.00    +0.000 A 
ENDBRANCH   3  10
BRANCH   1  17
ATOM     16  C   UNL     1       1.698   9.216  17.866  0.00  0.00    +0.000 C 
ATOM     17  N   UNL     1       2.947   8.607  17.421  0.00  0.00    +0.000 NA
ATOM     18  H   UNL     1       3.732   9.097  17.847  0.00  0.00    +0.000 HD
ENDBRANCH   1  17
TORSDOF 2
ENDMDL
MODEL 9
REMARK VINA RESULT:      -7.1      1.458      4.589
REMARK  Name = 
REMARK  3 active torsions:
REMARK  status: ('A' for Active; 'I' for Inactive)
REMARK    1  A    between atoms: C_1  and  N_2
REMARK    2  A    between atoms: N_2  and  C_3
REMARK    3  A    between atoms: C_5  and  C_6
REMARK                            x       y       z     vdW  Elec       q    Type
REMARK                         _______ _______ _______ _____ _____    ______ ____
ROOT
ATOM      1  C   UNL     1       2.739   7.357  17.858  0.00  0.00    +0.000 C 
ATOM      2  C   UNL     1       2.627   7.107  19.381  0.00  0.00    +0.000 C 
ATOM      3  C   UNL     1       3.343   5.769  19.663  0.00  0.00    +0.000 C 
ATOM      4  C   UNL     1       4.424   5.826  18.607  0.00  0.00    +0.000 A 
ATOM      5  C   UNL     1       5.564   5.043  18.538  0.00  0.00    +0.000 A 
ATOM      6  C   UNL     1       6.370   5.146  17.405  0.00  0.00    +0.000 A 
ATOM      7  C   UNL     1       6.026   6.026  16.364  0.00  0.00    +0.000 A 
ATOM      8  C   UNL     1       4.874   6.816  16.446  0.00  0.00    +0.000 A 
ATOM      9  C   UNL     1       4.079   6.720  17.576  0.00  0.00    +0.000 A 
ENDROOT
BRANCH   3  10
ATOM     10  C   UNL     1       2.419   4.568  19.557  0.00  0.00    +0.000 A 
ATOM     11  C   UNL     1       1.576   4.179  20.615  0.00  0.00    +0.000 A 
ATOM     12  C   UNL     1       0.741   3.070  20.506  0.00  0.00    +0.000 A 
ATOM     13  C   UNL     1       0.731   2.322  19.336  0.00  0.00    +0.000 A 
ATOM     14  C   UNL     1       1.554   2.688  18.272  0.00  0.00    +0.000 A 
ATOM     15  C   UNL     1       2.396   3.801  18.381  0.00  0.00    +0.000 A 
ENDBRANCH   3  10
BRANCH   1  17
ATOM     16  C   UNL     1       1.443   9.400  17.959  0.00  0.00    +0.000 C 
ATOM     17  N   UNL     1       2.669   8.770  17.483  0.00  0.00    +0.000 NA
ATOM     18  H   UNL     1       3.473   9.257  17.877  0.00  0.00    +0.000 HD
ENDBRANCH   1  17
TORSDOF 2
ENDMDL
