MODEL 1
REMARK VINA RESULT:      -7.2      0.000      0.000
REMARK  Name = 
REMARK  4 active torsions:
REMARK  status: ('A' for Active; 'I' for Inactive)
REMARK    1  A    between atoms: C_1  and  C_2
REMARK    2  A    between atoms: C_2  and  C_3
REMARK    3  A    between atoms: C_3  and  N_4
REMARK    4  A    between atoms: C_6  and  N_7
REMARK                            x       y       z     vdW  Elec       q    Type
REMARK                         _______ _______ _______ _____ _____    ______ ____
ROOT
ATOM      1  N   UNL     1       6.738   5.911  17.634  0.00  0.00    +0.000 N 
ATOM      2  C   UNL     1       5.578   5.628  18.438  0.00  0.00    +0.000 C 
ATOM      3  C   UNL     1       4.899   4.453  17.728  0.00  0.00    +0.000 C 
ATOM      4  C   UNL     1       5.330   4.620  16.269  0.00  0.00    +0.000 C 
ATOM      5  C   UNL     1       6.631   5.377  16.363  0.00  0.00    +0.000 C 
ATOM      6  O   UNL     1       7.422   5.522  15.443  0.00  0.00    +0.000 OA
ENDROOT
BRANCH   3   7
ATOM      7  N   UNL     1       3.459   4.503  17.862  0.00  0.00    +0.000 N 
ATOM      8  C   UNL     1       2.836   3.908  18.927  0.00  0.00    +0.000 A 
ATOM      9  N   UNL     1       3.562   3.430  19.952  0.00  0.00    +0.000 NA
ATOM     10  C   UNL     1       2.881   2.925  21.004  0.00  0.00    +0.000 A 
ATOM     11  C   UNL     1       1.515   2.891  21.067  0.00  0.00    +0.000 A 
ATOM     12  F   UNL     1       0.863   2.406  22.127  0.00  0.00    +0.000 F 
ATOM     13  C   UNL     1       0.858   3.395  19.973  0.00  0.00    +0.000 A 
ATOM     14  N   UNL     1       1.495   3.899  18.894  0.00  0.00    +0.000 NA
ATOM     15  H   UNL     1       2.853   4.639  17.066  0.00  0.00    +0.000 HD
ENDBRANCH   3   7
BRANCH   1  16
ATOM     16  C   UNL     1       7.771   6.836  18.060  0.00  0.00    +0.000 C 
BRANCH  16  18
ATOM     17  C   UNL     1       8.461   9.270  18.217  0.00  0.00    +0.000 C 
ATOM     18  C   UNL     1       7.537   8.258  17.554  0.00  0.00    +0.000 C 
ENDBRANCH  16  18
ENDBRANCH   1  16
TORSDOF 3
ENDMDL
MODEL 2
REMARK VINA RESULT:      -7.1      2.643      4.309
REMARK  Name = 
REMARK  4 active torsions:
REMARK  status: ('A' for Active; 'I' for Inactive)
REMARK    1  A    between atoms: C_1  and  C_2
REMARK    2  A    between atoms: C_2  and  C_3
REMARK    3  A    between atoms: C_3  and  N_4
REMARK    4  A    between atoms: C_6  and  N_7
REMARK                            x       y       z     vdW  Elec       q    Type
REMARK                         _______ _______ _______ _____ _____    ______ ____
ROOT
ATOM      1  N   UNL     1       6.389   4.080  13.721  0.00  0.00    +0.000 N 
ATOM      2  C   UNL     1       5.510   3.418  14.648  0.00  0.00    +0.000 C 
ATOM      3  C   UNL     1       5.498   4.330  15.879  0.00  0.00    +0.000 C 
ATOM      4  C   UNL     1       6.855   5.035  15.814  0.00  0.00    +0.000 C 
ATOM      5  C   UNL     1       7.209   5.001  14.349  0.00  0.00    +0.000 C 
ATOM      6  O   UNL     1       8.104   5.653  13.831  0.00  0.00    +0.000 OA
ENDROOT
BRANCH   3   7
ATOM      7  N   UNL     1       5.354   3.576  17.106  0.00  0.00    +0.000 N 
ATOM      8  C   UNL     1       4.166   3.573  17.787  0.00  0.00    +0.000 A 
ATOM      9  N   UNL     1       3.070   4.120  17.235  0.00  0.00    +0.000 NA
ATOM     10  C   UNL     1       1.915   4.016  17.928  0.00  0.00    +0.000 A 
ATOM     11  C   UNL     1       1.821   3.382  19.137  0.00  0.00    +0.000 A 
ATOM     12  F   UNL     1       0.663   3.274  19.795  0.00  0.00    +0.000 F 
ATOM     13  C   UNL     1       2.991   2.860  19.625  0.00  0.00    +0.000 A 
ATOM     14  N   UNL     1       4.171   2.950  18.975  0.00  0.00    +0.000 NA
ATOM     15  H   UNL     1       6.148   3.332  17.679  0.00  0.00    +0.000 HD
ENDBRANCH   3   7
BRANCH   1  16
ATOM     16  C   UNL     1       6.533   3.649  12.343  0.00  0.00    +0.000 C 
BRANCH  16  18
ATOM     17  C   UNL     1       4.232   3.351  11.322  0.00  0.00    +0.000 C 
ATOM     18  C   UNL     1       5.451   2.659  11.917  0.00  0.00    +0.000 C 
ENDBRANCH  16  18
ENDBRANCH   1  16
TORSDOF 3
ENDMDL
MODEL 3
REMARK VINA RESULT:      -7.0      1.758      3.305
REMARK  Name = 
REMARK  4 active torsions:
REMARK  status: ('A' for Active; 'I' for Inactive)
REMARK    1  A    between atoms: C_1  and  C_2
REMARK    2  A    between atoms: C_2  and  C_3
REMARK    3  A    between atoms: C_3  and  N_4
REMARK    4  A    between atoms: C_6  and  N_7
REMARK                            x       y       z     vdW  Elec       q    Type
REMARK                         _______ _______ _______ _____ _____    ______ ____
ROOT
ATOM      1  N   UNL     1       6.465   4.803  15.717  0.00  0.00    +0.000 N 
ATOM      2  C   UNL     1       5.670   3.820  16.406  0.00  0.00    +0.000 C 
ATOM      3  C   UNL     1       5.381   4.452  17.771  0.00  0.00    +0.000 C 
ATOM      4  C   UNL     1       6.568   5.393  17.987  0.00  0.00    +0.000 C 
ATOM      5  C   UNL     1       7.031   5.716  16.589  0.00  0.00    +0.000 C 
ATOM      6  O   UNL     1       7.813   6.610  16.301  0.00  0.00    +0.000 OA
ENDROOT
BRANCH   3   7
ATOM      7  N   UNL     1       5.300   3.456  18.818  0.00  0.00    +0.000 N 
ATOM      8  C   UNL     1       4.155   3.310  19.554  0.00  0.00    +0.000 A 
ATOM      9  N   UNL     1       3.035   3.962  19.197  0.00  0.00    +0.000 NA
ATOM     10  C   UNL     1       1.922   3.714  19.922  0.00  0.00    +0.000 A 
ATOM     11  C   UNL     1       1.891   2.840  20.973  0.00  0.00    +0.000 A 
ATOM     12  F   UNL     1       0.773   2.596  21.663  0.00  0.00    +0.000 F 
ATOM     13  C   UNL     1       3.081   2.227  21.269  0.00  0.00    +0.000 A 
ATOM     14  N   UNL     1       4.222   2.451  20.582  0.00  0.00    +0.000 NA
ATOM     15  H   UNL     1       6.123   3.097  19.278  0.00  0.00    +0.000 HD
ENDBRANCH   3   7
BRANCH   1  16
ATOM     16  C   UNL     1       6.796   4.687  14.310  0.00  0.00    +0.000 C 
BRANCH  16  18
ATOM     17  C   UNL     1       6.128   3.274  12.314  0.00  0.00    +0.000 C 
ATOM     18  C   UNL     1       5.644   4.133  13.474  0.00  0.00    +0.000 C 
ENDBRANCH  16  18
ENDBRANCH   1  16
TORSDOF 3
ENDMDL
MODEL 4
REMARK VINA RESULT:      -6.9      2.279      3.510
REMARK  Name = 
REMARK  4 active torsions:
REMARK  status: ('A' for Active; 'I' for Inactive)
REMARK    1  A    between atoms: C_1  and  C_2
REMARK    2  A    between atoms: C_2  and  C_3
REMARK    3  A    between atoms: C_3  and  N_4
REMARK    4  A    between atoms: C_6  and  N_7
REMARK                            x       y       z     vdW  Elec       q    Type
REMARK                         _______ _______ _______ _____ _____    ______ ____
ROOT
ATOM      1  N   UNL     1       5.874   4.662  15.006  0.00  0.00    +0.000 N 
ATOM      2  C   UNL     1       5.734   3.501  15.845  0.00  0.00    +0.000 C 
ATOM      3  C   UNL     1       4.605   3.864  16.814  0.00  0.00    +0.000 C 
ATOM      4  C   UNL     1       4.678   5.391  16.890  0.00  0.00    +0.000 C 
ATOM      5  C   UNL     1       5.309   5.787  15.579  0.00  0.00    +0.000 C 
ATOM      6  O   UNL     1       5.344   6.926  15.137  0.00  0.00    +0.000 OA
ENDROOT
BRANCH   3   7
ATOM      7  N   UNL     1       4.798   3.261  18.115  0.00  0.00    +0.000 N 
ATOM      8  C   UNL     1       3.763   3.180  19.007  0.00  0.00    +0.000 A 
ATOM      9  N   UNL     1       2.514   3.493  18.621  0.00  0.00    +0.000 NA
ATOM     10  C   UNL     1       1.528   3.318  19.529  0.00  0.00    +0.000 A 
ATOM     11  C   UNL     1       1.747   2.837  20.791  0.00  0.00    +0.000 A 
ATOM     12  F   UNL     1       0.754   2.654  21.665  0.00  0.00    +0.000 F 
ATOM     13  C   UNL     1       3.053   2.551  21.098  0.00  0.00    +0.000 A 
ATOM     14  N   UNL     1       4.073   2.721  20.229  0.00  0.00    +0.000 NA
ATOM     15  H   UNL     1       5.708   3.207  18.549  0.00  0.00    +0.000 HD
ENDBRANCH   3   7
BRANCH   1  16
ATOM     16  C   UNL     1       6.710   4.668  13.821  0.00  0.00    +0.000 C 
BRANCH  16  18
ATOM     17  C   UNL     1       4.978   3.651  12.275  0.00  0.00    +0.000 C 
ATOM     18  C   UNL     1       6.379   3.530  12.857  0.00  0.00    +0.000 C 
ENDBRANCH  16  18
ENDBRANCH   1  16
TORSDOF 3
ENDMDL
MODEL 5
REMARK VINA RESULT:      -6.8      1.003      1.280
REMARK  Name = 
REMARK  4 active torsions:
REMARK  status: ('A' for Active; 'I' for Inactive)
REMARK    1  A    between atoms: C_1  and  C_2
REMARK    2  A    between atoms: C_2  and  C_3
REMARK    3  A    between atoms: C_3  and  N_4
REMARK    4  A    between atoms: C_6  and  N_7
REMARK                            x       y       z     vdW  Elec       q    Type
REMARK                         _______ _______ _______ _____ _____    ______ ____
ROOT
ATOM      1  N   UNL     1       6.476   5.949  16.819  0.00  0.00    +0.000 N 
ATOM      2  C   UNL     1       5.281   5.547  17.514  0.00  0.00    +0.000 C 
ATOM      3  C   UNL     1       5.052   4.099  17.075  0.00  0.00    +0.000 C 
ATOM      4  C   UNL     1       5.709   4.037  15.694  0.00  0.00    +0.000 C 
ATOM      5  C   UNL     1       6.749   5.127  15.740  0.00  0.00    +0.000 C 
ATOM      6  O   UNL     1       7.648   5.270  14.925  0.00  0.00    +0.000 OA
ENDROOT
BRANCH   3   7
ATOM      7  N   UNL     1       3.644   3.773  17.004  0.00  0.00    +0.000 N 
ATOM      8  C   UNL     1       2.953   3.418  18.131  0.00  0.00    +0.000 A 
ATOM      9  N   UNL     1       3.525   3.541  19.341  0.00  0.00    +0.000 NA
ATOM     10  C   UNL     1       2.761   3.245  20.416  0.00  0.00    +0.000 A 
ATOM     11  C   UNL     1       1.457   2.843  20.321  0.00  0.00    +0.000 A 
ATOM     12  F   UNL     1       0.716   2.575  21.399  0.00  0.00    +0.000 F 
ATOM     13  C   UNL     1       0.960   2.739  19.047  0.00  0.00    +0.000 A 
ATOM     14  N   UNL     1       1.688   3.013  17.943  0.00  0.00    +0.000 NA
ATOM     15  H   UNL     1       3.212   3.454  16.150  0.00  0.00    +0.000 HD
ENDBRANCH   3   7
BRANCH   1  16
ATOM     16  C   UNL     1       7.156   7.198  17.102  0.00  0.00    +0.000 C 
BRANCH  16  18
ATOM     17  C   UNL     1       7.971   5.765  19.027  0.00  0.00    +0.000 C 
ATOM     18  C   UNL     1       7.978   7.147  18.389  0.00  0.00    +0.000 C 
ENDBRANCH  16  18
ENDBRANCH   1  16
TORSDOF 3
ENDMDL
MODEL 6
REMARK VINA RESULT:      -6.7      0.782      1.007
REMARK  Name = 
REMARK  4 active torsions:
REMARK  status: ('A' for Active; 'I' for Inactive)
REMARK    1  A    between atoms: C_1  and  C_2
REMARK    2  A    between atoms: C_2  and  C_3
REMARK    3  A    between atoms: C_3  and  N_4
REMARK    4  A    between atoms: C_6  and  N_7
REMARK                            x       y       z     vdW  Elec       q    Type
REMARK                         _______ _______ _______ _____ _____    ______ ____
ROOT
ATOM      1  N   UNL     1       6.753   4.696  17.456  0.00  0.00    +0.000 N 
ATOM      2  C   UNL     1       5.575   4.357  18.211  0.00  0.00    +0.000 C 
ATOM      3  C   UNL     1       4.614   3.767  17.176  0.00  0.00    +0.000 C 
ATOM      4  C   UNL     1       5.043   4.438  15.868  0.00  0.00    +0.000 C 
ATOM      5  C   UNL     1       6.491   4.786  16.100  0.00  0.00    +0.000 C 
ATOM      6  O   UNL     1       7.275   5.131  15.228  0.00  0.00    +0.000 OA
ENDROOT
BRANCH   3   7
ATOM      7  N   UNL     1       3.233   4.064  17.493  0.00  0.00    +0.000 N 
ATOM      8  C   UNL     1       2.672   3.611  18.656  0.00  0.00    +0.000 A 
ATOM      9  N   UNL     1       3.442   3.043  19.601  0.00  0.00    +0.000 NA
ATOM     10  C   UNL     1       2.836   2.687  20.755  0.00  0.00    +0.000 A 
ATOM     11  C   UNL     1       1.505   2.888  20.997  0.00  0.00    +0.000 A 
ATOM     12  F   UNL     1       0.932   2.547  22.154  0.00  0.00    +0.000 F 
ATOM     13  C   UNL     1       0.798   3.468  19.975  0.00  0.00    +0.000 A 
ATOM     14  N   UNL     1       1.356   3.829  18.799  0.00  0.00    +0.000 NA
ATOM     15  H   UNL     1       2.556   4.281  16.776  0.00  0.00    +0.000 HD
ENDBRANCH   3   7
BRANCH   1  16
ATOM     16  C   UNL     1       7.990   5.109  18.089  0.00  0.00    +0.000 C 
BRANCH  16  18
ATOM     17  C   UNL     1       7.809   7.622  17.808  0.00  0.00    +0.000 C 
ATOM     18  C   UNL     1       7.873   6.461  18.791  0.00  0.00    +0.000 C 
ENDBRANCH  16  18
ENDBRANCH   1  16
TORSDOF 3
ENDMDL
MODEL 7
REMARK VINA RESULT:      -6.3      2.322      3.963
REMARK  Name = 
REMARK  4 active torsions:
REMARK  status: ('A' for Active; 'I' for Inactive)
REMARK    1  A    between atoms: C_1  and  C_2
REMARK    2  A    between atoms: C_2  and  C_3
REMARK    3  A    between atoms: C_3  and  N_4
REMARK    4  A    between atoms: C_6  and  N_7
REMARK                            x       y       z     vdW  Elec       q    Type
REMARK                         _______ _______ _______ _____ _____    ______ ____
ROOT
ATOM      1  N   UNL     1       6.149   4.121  14.545  0.00  0.00    +0.000 N 
ATOM      2  C   UNL     1       5.261   3.861  15.648  0.00  0.00    +0.000 C 
ATOM      3  C   UNL     1       5.375   5.106  16.530  0.00  0.00    +0.000 C 
ATOM      4  C   UNL     1       6.779   5.633  16.226  0.00  0.00    +0.000 C 
ATOM      5  C   UNL     1       7.065   5.115  14.839  0.00  0.00    +0.000 C 
ATOM      6  O   UNL     1       7.986   5.491  14.129  0.00  0.00    +0.000 OA
ENDROOT
BRANCH   3   7
ATOM      7  N   UNL     1       5.224   4.787  17.934  0.00  0.00    +0.000 N 
ATOM      8  C   UNL     1       3.980   4.681  18.495  0.00  0.00    +0.000 A 
ATOM      9  N   UNL     1       2.885   4.693  17.717  0.00  0.00    +0.000 NA
ATOM     10  C   UNL     1       1.694   4.508  18.328  0.00  0.00    +0.000 A 
ATOM     11  C   UNL     1       1.565   4.305  19.675  0.00  0.00    +0.000 A 
ATOM     12  F   UNL     1       0.379   4.104  20.254  0.00  0.00    +0.000 F 
ATOM     13  C   UNL     1       2.735   4.316  20.390  0.00  0.00    +0.000 A 
ATOM     14  N   UNL     1       3.948   4.508  19.826  0.00  0.00    +0.000 NA
ATOM     15  H   UNL     1       5.954   4.974  18.605  0.00  0.00    +0.000 HD
ENDBRANCH   3   7
BRANCH   1  16
ATOM     16  C   UNL     1       6.199   3.271  13.370  0.00  0.00    +0.000 C 
BRANCH  16  18
ATOM     17  C   UNL     1       4.420   3.130  11.570  0.00  0.00    +0.000 C 
ATOM     18  C   UNL     1       5.584   3.930  12.137  0.00  0.00    +0.000 C 
ENDBRANCH  16  18
ENDBRANCH   1  16
TORSDOF 3
ENDMDL
MODEL 8
REMARK VINA RESULT:      -6.1      2.283      3.067
REMARK  Name = 
REMARK  4 active torsions:
REMARK  status: ('A' for Active; 'I' for Inactive)
REMARK    1  A    between atoms: C_1  and  C_2
REMARK    2  A    between atoms: C_2  and  C_3
REMARK    3  A    between atoms: C_3  and  N_4
REMARK    4  A    between atoms: C_6  and  N_7
REMARK                            x       y       z     vdW  Elec       q    Type
REMARK                         _______ _______ _______ _____ _____    ______ ____
ROOT
ATOM      1  N   UNL     1       5.460   4.525  15.097  0.00  0.00    +0.000 N 
ATOM      2  C   UNL     1       5.247   3.393  15.960  0.00  0.00    +0.000 C 
ATOM      3  C   UNL     1       4.333   3.924  17.067  0.00  0.00    +0.000 C 
ATOM      4  C   UNL     1       4.662   5.418  17.116  0.00  0.00    +0.000 C 
ATOM      5  C   UNL     1       5.167   5.721  15.728  0.00  0.00    +0.000 C 
ATOM      6  O   UNL     1       5.326   6.843  15.272  0.00  0.00    +0.000 OA
ENDROOT
BRANCH   3   7
ATOM      7  N   UNL     1       4.598   3.284  18.338  0.00  0.00    +0.000 N 
ATOM      8  C   UNL     1       3.612   3.168  19.280  0.00  0.00    +0.000 A 
ATOM      9  N   UNL     1       2.342   3.483  18.970  0.00  0.00    +0.000 NA
ATOM     10  C   UNL     1       1.407   3.273  19.923  0.00  0.00    +0.000 A 
ATOM     11  C   UNL     1       1.695   2.757  21.156  0.00  0.00    +0.000 A 
ATOM     12  F   UNL     1       0.751   2.540  22.075  0.00  0.00    +0.000 F 
ATOM     13  C   UNL     1       3.017   2.472  21.385  0.00  0.00    +0.000 A 
ATOM     14  N   UNL     1       3.989   2.675  20.469  0.00  0.00    +0.000 NA
ATOM     15  H   UNL     1       5.530   3.224  18.721  0.00  0.00    +0.000 HD
ENDBRANCH   3   7
BRANCH   1  16
ATOM     16  C   UNL     1       6.120   4.408  13.810  0.00  0.00    +0.000 C 
BRANCH  16  18
ATOM     17  C   UNL     1       7.975   5.499  12.472  0.00  0.00    +0.000 C 
ATOM     18  C   UNL     1       7.548   4.949  13.826  0.00  0.00    +0.000 C 
ENDBRANCH  16  18
ENDBRANCH   1  16
TORSDOF 3
ENDMDL
MODEL 9
REMARK VINA RESULT:      -6.0      3.636      4.776
REMARK  Name = 
REMARK  4 active torsions:
REMARK  status: ('A' for Active; 'I' for Inactive)
REMARK    1  A    between atoms: C_1  and  C_2
REMARK    2  A    between atoms: C_2  and  C_3
REMARK    3  A    between atoms: C_3  and  N_4
REMARK    4  A    between atoms: C_6  and  N_7
REMARK                            x       y       z     vdW  Elec       q    Type
REMARK                         _______ _______ _______ _____ _____    ______ ____
ROOT
ATOM      1  N   UNL     1       5.798   4.470  16.254  0.00  0.00    +0.000 N 
ATOM      2  C   UNL     1       4.523   4.982  16.684  0.00  0.00    +0.000 C 
ATOM      3  C   UNL     1       4.872   6.043  17.731  0.00  0.00    +0.000 C 
ATOM      4  C   UNL     1       6.217   5.569  18.286  0.00  0.00    +0.000 C 
ATOM      5  C   UNL     1       6.804   4.756  17.160  0.00  0.00    +0.000 C 
ATOM      6  O   UNL     1       7.966   4.382  17.100  0.00  0.00    +0.000 OA
ENDROOT
BRANCH   3   7
ATOM      7  N   UNL     1       3.869   6.121  18.773  0.00  0.00    +0.000 N 
ATOM      8  C   UNL     1       3.034   7.202  18.858  0.00  0.00    +0.000 A 
ATOM      9  N   UNL     1       3.011   8.116  17.873  0.00  0.00    +0.000 NA
ATOM     10  C   UNL     1       2.110   9.117  17.985  0.00  0.00    +0.000 A 
ATOM     11  C   UNL     1       1.236   9.226  19.031  0.00  0.00    +0.000 A 
ATOM     12  F   UNL     1       0.339  10.213  19.109  0.00  0.00    +0.000 F 
ATOM     13  C   UNL     1       1.336   8.252  19.991  0.00  0.00    +0.000 A 
ATOM     14  N   UNL     1       2.228   7.240  19.930  0.00  0.00    +0.000 NA
ATOM     15  H   UNL     1       3.961   5.613  19.640  0.00  0.00    +0.000 HD
ENDBRANCH   3   7
BRANCH   1  16
ATOM     16  C   UNL     1       5.934   3.574  15.121  0.00  0.00    +0.000 C 
BRANCH  16  18
ATOM     17  C   UNL     1       6.150   3.455  12.599  0.00  0.00    +0.000 C 
ATOM     18  C   UNL     1       6.381   4.292  13.849  0.00  0.00    +0.000 C 
ENDBRANCH  16  18
ENDBRANCH   1  16
TORSDOF 3
ENDMDL
