MODEL 1
REMARK VINA RESULT:      -7.2      0.000      0.000
REMARK  Name = 
REMARK  6 active torsions:
REMARK  status: ('A' for Active; 'I' for Inactive)
REMARK    1  A    between atoms: C_1  and  C_2
REMARK    2  A    between atoms: C_8  and  N_9
REMARK    3  A    between atoms: N_9  and  S_10
REMARK    4  A    between atoms: N_9  and  S_14
REMARK    5  A    between atoms: S_10  and  C_11
REMARK    6  A    between atoms: S_14  and  C_15
REMARK                            x       y       z     vdW  Elec       q    Type
REMARK                         _______ _______ _______ _____ _____    ______ ____
ROOT
ATOM      1  N   UNL     1       5.816   4.916  17.044  0.00  0.00    +0.000 N 
ENDROOT
BRANCH   1   9
ATOM      2  C   UNL     1       3.931   2.773  17.596  0.00  0.00    +0.000 C 
ATOM      3  C   UNL     1       3.582   4.213  17.874  0.00  0.00    +0.000 A 
ATOM      4  C   UNL     1       2.325   4.569  18.408  0.00  0.00    +0.000 A 
ATOM      5 CL   UNL     1       1.145   3.391  18.876  0.00  0.00    +0.000 Cl
ATOM      6  C   UNL     1       1.970   5.908  18.584  0.00  0.00    +0.000 A 
ATOM      7  C   UNL     1       2.858   6.917  18.234  0.00  0.00    +0.000 A 
ATOM      8  C   UNL     1       4.114   6.592  17.726  0.00  0.00    +0.000 A 
ATOM      9  C   UNL     1       4.485   5.252  17.527  0.00  0.00    +0.000 A 
ENDBRANCH   1   9
BRANCH   1  10
ATOM     10  S   UNL     1       7.005   5.194  18.236  0.00  0.00    +0.000 S 
ATOM     11  C   UNL     1       7.545   6.872  17.945  0.00  0.00    +0.000 C 
ATOM     12  O   UNL     1       6.406   5.127  19.555  0.00  0.00    +0.000 OA
ATOM     13  O   UNL     1       8.144   4.351  17.928  0.00  0.00    +0.000 OA
ENDBRANCH   1  10
BRANCH   1  14
ATOM     14  S   UNL     1       6.222   5.414  15.483  0.00  0.00    +0.000 S 
ATOM     15  C   UNL     1       5.517   4.161  14.432  0.00  0.00    +0.000 C 
ATOM     16  O   UNL     1       5.548   6.653  15.156  0.00  0.00    +0.000 OA
ATOM     17  O   UNL     1       7.656   5.295  15.329  0.00  0.00    +0.000 OA
ENDBRANCH   1  14
TORSDOF 3
ENDMDL
MODEL 2
REMARK VINA RESULT:      -7.0      0.988      1.140
REMARK  Name = 
REMARK  6 active torsions:
REMARK  status: ('A' for Active; 'I' for Inactive)
REMARK    1  A    between atoms: C_1  and  C_2
REMARK    2  A    between atoms: C_8  and  N_9
REMARK    3  A    between atoms: N_9  and  S_10
REMARK    4  A    between atoms: N_9  and  S_14
REMARK    5  A    between atoms: S_10  and  C_11
REMARK    6  A    between atoms: S_14  and  C_15
REMARK                            x       y       z     vdW  Elec       q    Type
REMARK                         _______ _______ _______ _____ _____    ______ ____
ROOT
ATOM      1  N   UNL     1       5.964   4.971  16.675  0.00  0.00    +0.000 N 
ENDROOT
BRANCH   1   9
ATOM      2  C   UNL     1       3.953   2.990  17.372  0.00  0.00    +0.000 C 
ATOM      3  C   UNL     1       3.723   4.460  17.619  0.00  0.00    +0.000 A 
ATOM      4  C   UNL     1       2.520   4.922  18.195  0.00  0.00    +0.000 A 
ATOM      5 CL   UNL     1       1.280   3.849  18.747  0.00  0.00    +0.000 Cl
ATOM      6  C   UNL     1       2.272   6.289  18.343  0.00  0.00    +0.000 A 
ATOM      7  C   UNL     1       3.216   7.219  17.925  0.00  0.00    +0.000 A 
ATOM      8  C   UNL     1       4.421   6.787  17.375  0.00  0.00    +0.000 A 
ATOM      9  C   UNL     1       4.684   5.418  17.203  0.00  0.00    +0.000 A 
ENDBRANCH   1   9
BRANCH   1  10
ATOM     10  S   UNL     1       7.235   5.270  17.774  0.00  0.00    +0.000 S 
ATOM     11  C   UNL     1       6.455   5.229  19.381  0.00  0.00    +0.000 C 
ATOM     12  O   UNL     1       8.206   4.195  17.708  0.00  0.00    +0.000 OA
ATOM     13  O   UNL     1       7.674   6.638  17.580  0.00  0.00    +0.000 OA
ENDBRANCH   1  10
BRANCH   1  14
ATOM     14  S   UNL     1       6.302   5.325  15.060  0.00  0.00    +0.000 S 
ATOM     15  C   UNL     1       5.694   3.908  14.169  0.00  0.00    +0.000 C 
ATOM     16  O   UNL     1       5.518   6.459  14.616  0.00  0.00    +0.000 OA
ATOM     17  O   UNL     1       7.739   5.313  14.885  0.00  0.00    +0.000 OA
ENDBRANCH   1  14
TORSDOF 3
ENDMDL
MODEL 3
REMARK VINA RESULT:      -6.7      1.785      3.498
REMARK  Name = 
REMARK  6 active torsions:
REMARK  status: ('A' for Active; 'I' for Inactive)
REMARK    1  A    between atoms: C_1  and  C_2
REMARK    2  A    between atoms: C_8  and  N_9
REMARK    3  A    between atoms: N_9  and  S_10
REMARK    4  A    between atoms: N_9  and  S_14
REMARK    5  A    between atoms: S_10  and  C_11
REMARK    6  A    between atoms: S_14  and  C_15
REMARK                            x       y       z     vdW  Elec       q    Type
REMARK                         _______ _______ _______ _____ _____    ______ ____
ROOT
ATOM      1  N   UNL     1       5.631   5.190  18.146  0.00  0.00    +0.000 N 
ENDROOT
BRANCH   1   9
ATOM      2  C   UNL     1       3.164   6.452  19.026  0.00  0.00    +0.000 C 
ATOM      3  C   UNL     1       3.462   5.009  19.346  0.00  0.00    +0.000 A 
ATOM      4  C   UNL     1       2.554   4.224  20.087  0.00  0.00    +0.000 A 
ATOM      5 CL   UNL     1       1.006   4.816  20.590  0.00  0.00    +0.000 Cl
ATOM      6  C   UNL     1       2.869   2.915  20.457  0.00  0.00    +0.000 A 
ATOM      7  C   UNL     1       4.092   2.362  20.095  0.00  0.00    +0.000 A 
ATOM      8  C   UNL     1       4.996   3.109  19.343  0.00  0.00    +0.000 A 
ATOM      9  C   UNL     1       4.705   4.432  18.974  0.00  0.00    +0.000 A 
ENDBRANCH   1   9
BRANCH   1  10
ATOM     10  S   UNL     1       5.474   4.786  16.496  0.00  0.00    +0.000 S 
ATOM     11  C   UNL     1       5.165   6.345  15.681  0.00  0.00    +0.000 C 
ATOM     12  O   UNL     1       6.725   4.247  15.999  0.00  0.00    +0.000 OA
ATOM     13  O   UNL     1       4.257   4.011  16.346  0.00  0.00    +0.000 OA
ENDBRANCH   1  10
BRANCH   1  14
ATOM     14  S   UNL     1       7.214   5.354  18.706  0.00  0.00    +0.000 S 
ATOM     15  C   UNL     1       7.749   6.919  18.045  0.00  0.00    +0.000 C 
ATOM     16  O   UNL     1       7.229   5.489  20.148  0.00  0.00    +0.000 OA
ATOM     17  O   UNL     1       8.031   4.353  18.054  0.00  0.00    +0.000 OA
ENDBRANCH   1  14
TORSDOF 3
ENDMDL
MODEL 4
REMARK VINA RESULT:      -6.5      0.926      1.105
REMARK  Name = 
REMARK  6 active torsions:
REMARK  status: ('A' for Active; 'I' for Inactive)
REMARK    1  A    between atoms: C_1  and  C_2
REMARK    2  A    between atoms: C_8  and  N_9
REMARK    3  A    between atoms: N_9  and  S_10
REMARK    4  A    between atoms: N_9  and  S_14
REMARK    5  A    between atoms: S_10  and  C_11
REMARK    6  A    between atoms: S_14  and  C_15
REMARK                            x       y       z     vdW  Elec       q    Type
REMARK                         _______ _______ _______ _____ _____    ______ ____
ROOT
ATOM      1  N   UNL     1       5.684   5.120  17.109  0.00  0.00    +0.000 N 
ENDROOT
BRANCH   1   9
ATOM      2  C   UNL     1       3.957   2.820  17.534  0.00  0.00    +0.000 C 
ATOM      3  C   UNL     1       3.486   4.219  17.840  0.00  0.00    +0.000 A 
ATOM      4  C   UNL     1       2.188   4.459  18.341  0.00  0.00    +0.000 A 
ATOM      5 CL   UNL     1       1.091   3.178  18.733  0.00  0.00    +0.000 Cl
ATOM      6  C   UNL     1       1.723   5.760  18.542  0.00  0.00    +0.000 A 
ATOM      7  C   UNL     1       2.540   6.846  18.252  0.00  0.00    +0.000 A 
ATOM      8  C   UNL     1       3.833   6.635  17.778  0.00  0.00    +0.000 A 
ATOM      9  C   UNL     1       4.315   5.336  17.555  0.00  0.00    +0.000 A 
ENDBRANCH   1   9
BRANCH   1  10
ATOM     10  S   UNL     1       6.812   5.569  18.307  0.00  0.00    +0.000 S 
ATOM     11  C   UNL     1       8.174   4.434  18.086  0.00  0.00    +0.000 C 
ATOM     12  O   UNL     1       7.290   6.914  18.055  0.00  0.00    +0.000 OA
ATOM     13  O   UNL     1       6.235   5.250  19.599  0.00  0.00    +0.000 OA
ENDBRANCH   1  10
BRANCH   1  14
ATOM     14  S   UNL     1       6.069   5.592  15.535  0.00  0.00    +0.000 S 
ATOM     15  C   UNL     1       5.448   4.267  14.521  0.00  0.00    +0.000 C 
ATOM     16  O   UNL     1       5.323   6.777  15.166  0.00  0.00    +0.000 OA
ATOM     17  O   UNL     1       7.508   5.557  15.392  0.00  0.00    +0.000 OA
ENDBRANCH   1  14
TORSDOF 3
ENDMDL
MODEL 5
REMARK VINA RESULT:      -6.3      2.007      2.203
REMARK  Name = 
REMARK  6 active torsions:
REMARK  status: ('A' for Active; 'I' for Inactive)
REMARK    1  A    between atoms: C_1  and  C_2
REMARK    2  A    between atoms: C_8  and  N_9
REMARK    3  A    between atoms: N_9  and  S_10
REMARK    4  A    between atoms: N_9  and  S_14
REMARK    5  A    between atoms: S_10  and  C_11
REMARK    6  A    between atoms: S_14  and  C_15
REMARK                            x       y       z     vdW  Elec       q    Type
REMARK                         _______ _______ _______ _____ _____    ______ ____
ROOT
ATOM      1  N   UNL     1       4.635   5.279  17.925  0.00  0.00    +0.000 N 
ENDROOT
BRANCH   1   9
ATOM      2  C   UNL     1       2.861   3.141  17.069  0.00  0.00    +0.000 C 
ATOM      3  C   UNL     1       2.580   3.938  18.317  0.00  0.00    +0.000 A 
ATOM      4  C   UNL     1       1.443   3.675  19.110  0.00  0.00    +0.000 A 
ATOM      5 CL   UNL     1       0.356   2.369  18.774  0.00  0.00    +0.000 Cl
ATOM      6  C   UNL     1       1.136   4.470  20.216  0.00  0.00    +0.000 A 
ATOM      7  C   UNL     1       1.956   5.539  20.556  0.00  0.00    +0.000 A 
ATOM      8  C   UNL     1       3.097   5.806  19.802  0.00  0.00    +0.000 A 
ATOM      9  C   UNL     1       3.415   5.028  18.677  0.00  0.00    +0.000 A 
ENDBRANCH   1   9
BRANCH   1  10
ATOM     10  S   UNL     1       6.012   4.705  18.751  0.00  0.00    +0.000 S 
ATOM     11  C   UNL     1       7.237   4.472  17.472  0.00  0.00    +0.000 C 
ATOM     12  O   UNL     1       6.495   5.718  19.669  0.00  0.00    +0.000 OA
ATOM     13  O   UNL     1       5.705   3.379  19.253  0.00  0.00    +0.000 OA
ENDBRANCH   1  10
BRANCH   1  14
ATOM     14  S   UNL     1       4.801   6.796  17.203  0.00  0.00    +0.000 S 
ATOM     15  C   UNL     1       5.045   6.430  15.477  0.00  0.00    +0.000 C 
ATOM     16  O   UNL     1       3.562   7.538  17.295  0.00  0.00    +0.000 OA
ATOM     17  O   UNL     1       6.043   7.381  17.660  0.00  0.00    +0.000 OA
ENDBRANCH   1  14
TORSDOF 3
ENDMDL
MODEL 6
REMARK VINA RESULT:      -6.2      0.909      1.069
REMARK  Name = 
REMARK  6 active torsions:
REMARK  status: ('A' for Active; 'I' for Inactive)
REMARK    1  A    between atoms: C_1  and  C_2
REMARK    2  A    between atoms: C_8  and  N_9
REMARK    3  A    between atoms: N_9  and  S_10
REMARK    4  A    between atoms: N_9  and  S_14
REMARK    5  A    between atoms: S_10  and  C_11
REMARK    6  A    between atoms: S_14  and  C_15
REMARK                            x       y       z     vdW  Elec       q    Type
REMARK                         _______ _______ _______ _____ _____    ______ ____
ROOT
ATOM      1  N   UNL     1       5.807   4.726  17.201  0.00  0.00    +0.000 N 
ENDROOT
BRANCH   1   9
ATOM      2  C   UNL     1       3.859   2.622  17.682  0.00  0.00    +0.000 C 
ATOM      3  C   UNL     1       3.564   4.057  18.035  0.00  0.00    +0.000 A 
ATOM      4  C   UNL     1       2.328   4.427  18.609  0.00  0.00    +0.000 A 
ATOM      5 CL   UNL     1       1.117   3.268  19.040  0.00  0.00    +0.000 Cl
ATOM      6  C   UNL     1       2.022   5.768  18.856  0.00  0.00    +0.000 A 
ATOM      7  C   UNL     1       2.938   6.763  18.539  0.00  0.00    +0.000 A 
ATOM      8  C   UNL     1       4.174   6.421  17.993  0.00  0.00    +0.000 A 
ATOM      9  C   UNL     1       4.496   5.081  17.723  0.00  0.00    +0.000 A 
ENDBRANCH   1   9
BRANCH   1  10
ATOM     10  S   UNL     1       7.049   5.123  18.300  0.00  0.00    +0.000 S 
ATOM     11  C   UNL     1       7.483   6.808  17.894  0.00  0.00    +0.000 C 
ATOM     12  O   UNL     1       6.536   5.094  19.655  0.00  0.00    +0.000 OA
ATOM     13  O   UNL     1       8.210   4.322  17.961  0.00  0.00    +0.000 OA
ENDBRANCH   1  10
BRANCH   1  14
ATOM     14  S   UNL     1       6.121   5.093  15.584  0.00  0.00    +0.000 S 
ATOM     15  C   UNL     1       5.197   6.587  15.290  0.00  0.00    +0.000 C 
ATOM     16  O   UNL     1       7.518   5.431  15.405  0.00  0.00    +0.000 OA
ATOM     17  O   UNL     1       5.501   4.079  14.760  0.00  0.00    +0.000 OA
ENDBRANCH   1  14
TORSDOF 3
ENDMDL
MODEL 7
REMARK VINA RESULT:      -6.2      1.647      3.485
REMARK  Name = 
REMARK  6 active torsions:
REMARK  status: ('A' for Active; 'I' for Inactive)
REMARK    1  A    between atoms: C_1  and  C_2
REMARK    2  A    between atoms: C_8  and  N_9
REMARK    3  A    between atoms: N_9  and  S_10
REMARK    4  A    between atoms: N_9  and  S_14
REMARK    5  A    between atoms: S_10  and  C_11
REMARK    6  A    between atoms: S_14  and  C_15
REMARK                            x       y       z     vdW  Elec       q    Type
REMARK                         _______ _______ _______ _____ _____    ______ ____
ROOT
ATOM      1  N   UNL     1       5.620   5.383  18.124  0.00  0.00    +0.000 N 
ENDROOT
BRANCH   1   9
ATOM      2  C   UNL     1       3.122   6.490  19.120  0.00  0.00    +0.000 C 
ATOM      3  C   UNL     1       3.465   5.034  19.311  0.00  0.00    +0.000 A 
ATOM      4  C   UNL     1       2.583   4.160  19.983  0.00  0.00    +0.000 A 
ATOM      5 CL   UNL     1       1.022   4.659  20.541  0.00  0.00    +0.000 Cl
ATOM      6  C   UNL     1       2.939   2.833  20.236  0.00  0.00    +0.000 A 
ATOM      7  C   UNL     1       4.174   2.350  19.822  0.00  0.00    +0.000 A 
ATOM      8  C   UNL     1       5.052   3.187  19.136  0.00  0.00    +0.000 A 
ATOM      9  C   UNL     1       4.721   4.528  18.886  0.00  0.00    +0.000 A 
ENDBRANCH   1   9
BRANCH   1  10
ATOM     10  S   UNL     1       5.395   5.192  16.444  0.00  0.00    +0.000 S 
ATOM     11  C   UNL     1       6.890   4.391  15.882  0.00  0.00    +0.000 C 
ATOM     12  O   UNL     1       4.277   4.304  16.194  0.00  0.00    +0.000 OA
ATOM     13  O   UNL     1       5.403   6.512  15.845  0.00  0.00    +0.000 OA
ENDBRANCH   1  10
BRANCH   1  14
ATOM     14  S   UNL     1       7.225   5.470  18.638  0.00  0.00    +0.000 S 
ATOM     15  C   UNL     1       7.781   7.059  18.056  0.00  0.00    +0.000 C 
ATOM     16  O   UNL     1       7.292   5.514  20.084  0.00  0.00    +0.000 OA
ATOM     17  O   UNL     1       7.991   4.491  17.898  0.00  0.00    +0.000 OA
ENDBRANCH   1  14
TORSDOF 3
ENDMDL
MODEL 8
REMARK VINA RESULT:      -6.2      1.584      3.529
REMARK  Name = 
REMARK  6 active torsions:
REMARK  status: ('A' for Active; 'I' for Inactive)
REMARK    1  A    between atoms: C_1  and  C_2
REMARK    2  A    between atoms: C_8  and  N_9
REMARK    3  A    between atoms: N_9  and  S_10
REMARK    4  A    between atoms: N_9  and  S_14
REMARK    5  A    between atoms: S_10  and  C_11
REMARK    6  A    between atoms: S_14  and  C_15
REMARK                            x       y       z     vdW  Elec       q    Type
REMARK                         _______ _______ _______ _____ _____    ______ ____
ROOT
ATOM      1  N   UNL     1       5.702   5.316  18.143  0.00  0.00    +0.000 N 
ENDROOT
BRANCH   1   9
ATOM      2  C   UNL     1       3.245   6.526  19.118  0.00  0.00    +0.000 C 
ATOM      3  C   UNL     1       3.549   5.069  19.358  0.00  0.00    +0.000 A 
ATOM      4  C   UNL     1       2.650   4.244  20.068  0.00  0.00    +0.000 A 
ATOM      5 CL   UNL     1       1.108   4.805  20.619  0.00  0.00    +0.000 Cl
ATOM      6  C   UNL     1       2.972   2.917  20.365  0.00  0.00    +0.000 A 
ATOM      7  C   UNL     1       4.190   2.387  19.960  0.00  0.00    +0.000 A 
ATOM      8  C   UNL     1       5.084   3.174  19.237  0.00  0.00    +0.000 A 
ATOM      9  C   UNL     1       4.787   4.514  18.941  0.00  0.00    +0.000 A 
ENDBRANCH   1   9
BRANCH   1  10
ATOM     10  S   UNL     1       5.526   4.998  16.476  0.00  0.00    +0.000 S 
ATOM     11  C   UNL     1       3.958   4.153  16.346  0.00  0.00    +0.000 C 
ATOM     12  O   UNL     1       5.437   6.247  15.743  0.00  0.00    +0.000 OA
ATOM     13  O   UNL     1       6.534   4.025  16.103  0.00  0.00    +0.000 OA
ENDBRANCH   1  10
BRANCH   1  14
ATOM     14  S   UNL     1       7.292   5.454  18.692  0.00  0.00    +0.000 S 
ATOM     15  C   UNL     1       7.820   7.048  18.100  0.00  0.00    +0.000 C 
ATOM     16  O   UNL     1       7.324   5.520  20.138  0.00  0.00    +0.000 OA
ATOM     17  O   UNL     1       8.101   4.484  17.985  0.00  0.00    +0.000 OA
ENDBRANCH   1  14
TORSDOF 3
ENDMDL
MODEL 9
REMARK VINA RESULT:      -6.2      1.210      1.525
REMARK  Name = 
REMARK  6 active torsions:
REMARK  status: ('A' for Active; 'I' for Inactive)
REMARK    1  A    between atoms: C_1  and  C_2
REMARK    2  A    between atoms: C_8  and  N_9
REMARK    3  A    between atoms: N_9  and  S_10
REMARK    4  A    between atoms: N_9  and  S_14
REMARK    5  A    between atoms: S_10  and  C_11
REMARK    6  A    between atoms: S_14  and  C_15
REMARK                            x       y       z     vdW  Elec       q    Type
REMARK                         _______ _______ _______ _____ _____    ______ ____
ROOT
ATOM      1  N   UNL     1       5.627   4.895  16.735  0.00  0.00    +0.000 N 
ENDROOT
BRANCH   1   9
ATOM      2  C   UNL     1       3.882   2.784  17.715  0.00  0.00    +0.000 C 
ATOM      3  C   UNL     1       3.596   4.235  18.007  0.00  0.00    +0.000 A 
ATOM      4  C   UNL     1       2.468   4.617  18.764  0.00  0.00    +0.000 A 
ATOM      5 CL   UNL     1       1.400   3.464  19.491  0.00  0.00    +0.000 Cl
ATOM      6  C   UNL     1       2.155   5.965  18.961  0.00  0.00    +0.000 A 
ATOM      7  C   UNL     1       2.959   6.955  18.411  0.00  0.00    +0.000 A 
ATOM      8  C   UNL     1       4.091   6.604  17.679  0.00  0.00    +0.000 A 
ATOM      9  C   UNL     1       4.415   5.255  17.457  0.00  0.00    +0.000 A 
ENDBRANCH   1   9
BRANCH   1  10
ATOM     10  S   UNL     1       7.028   5.342  17.598  0.00  0.00    +0.000 S 
ATOM     11  C   UNL     1       6.522   5.330  19.311  0.00  0.00    +0.000 C 
ATOM     12  O   UNL     1       8.060   4.339  17.417  0.00  0.00    +0.000 OA
ATOM     13  O   UNL     1       7.319   6.727  17.280  0.00  0.00    +0.000 OA
ENDBRANCH   1  10
BRANCH   1  14
ATOM     14  S   UNL     1       5.663   5.208  15.077  0.00  0.00    +0.000 S 
ATOM     15  C   UNL     1       7.352   4.888  14.612  0.00  0.00    +0.000 C 
ATOM     16  O   UNL     1       4.849   4.246  14.363  0.00  0.00    +0.000 OA
ATOM     17  O   UNL     1       5.463   6.627  14.881  0.00  0.00    +0.000 OA
ENDBRANCH   1  14
TORSDOF 3
ENDMDL
