MODEL 1
REMARK VINA RESULT:      -8.2      0.000      0.000
REMARK  Name = 
REMARK  6 active torsions:
REMARK  status: ('A' for Active; 'I' for Inactive)
REMARK    1  A    between atoms: C_1  and  C_2
REMARK    2  A    between atoms: C_2  and  C_3
REMARK    3  A    between atoms: C_10  and  N_11
REMARK    4  A    between atoms: C_16  and  C_17
REMARK    5  A    between atoms: C_20  and  S_21
REMARK    6  A    between atoms: S_21  and  C_22
REMARK                            x       y       z     vdW  Elec       q    Type
REMARK                         _______ _______ _______ _____ _____    ______ ____
ROOT
ATOM      1  N   UNL     1      -0.448  11.640  21.810  0.00  0.00    +0.000 N 
ATOM      2  N   UNL     1      -0.843  11.285  23.050  0.00  0.00    +0.000 NA
ATOM      3  C   UNL     1      -0.444  10.025  23.179  0.00  0.00    +0.000 A 
ATOM      4  C   UNL     1       0.194   9.550  22.020  0.00  0.00    +0.000 A 
ATOM      5  C   UNL     1       0.786   8.347  21.635  0.00  0.00    +0.000 A 
ATOM      6  C   UNL     1       1.321   8.285  20.348  0.00  0.00    +0.000 A 
ATOM      7  N   UNL     1       1.297   9.340  19.495  0.00  0.00    +0.000 NA
ATOM      8  C   UNL     1       0.731  10.516  19.866  0.00  0.00    +0.000 A 
ATOM      9  C   UNL     1       0.177  10.621  21.134  0.00  0.00    +0.000 A 
ENDROOT
BRANCH   1  17
ATOM     10  C   UNL     1      -6.770  15.944  22.859  0.00  0.00    +0.000 A 
ATOM     11  C   UNL     1      -5.685  16.009  23.695  0.00  0.00    +0.000 A 
ATOM     12  N   UNL     1      -4.573  15.276  23.529  0.00  0.00    +0.000 NA
ATOM     13  C   UNL     1      -4.517  14.449  22.472  0.00  0.00    +0.000 A 
ATOM     14  N   UNL     1      -3.292  13.913  22.132  0.00  0.00    +0.000 N 
ATOM     15  C   UNL     1      -2.262  13.869  23.160  0.00  0.00    +0.000 C 
ATOM     16  C   UNL     1      -0.895  13.998  22.491  0.00  0.00    +0.000 C 
ATOM     17  C   UNL     1      -0.704  13.000  21.341  0.00  0.00    +0.000 C 
ATOM     18  C   UNL     1      -1.876  13.070  20.354  0.00  0.00    +0.000 C 
ATOM     19  C   UNL     1      -3.233  12.945  21.047  0.00  0.00    +0.000 C 
ATOM     20  N   UNL     1      -5.563  14.261  21.651  0.00  0.00    +0.000 NA
ATOM     21  C   UNL     1      -6.663  15.008  21.858  0.00  0.00    +0.000 A 
BRANCH  10  23
ATOM     22  C   UNL     1      -7.483  18.174  23.666  0.00  0.00    +0.000 C 
ATOM     23  C   UNL     1      -7.916  16.895  22.961  0.00  0.00    +0.000 C 
ENDBRANCH  10  23
ENDBRANCH   1  17
BRANCH   6  24
ATOM     24  C   UNL     1       1.973   7.060  19.844  0.00  0.00    +0.000 A 
ATOM     25  C   UNL     1       1.851   5.824  20.513  0.00  0.00    +0.000 A 
ATOM     26  C   UNL     1       2.515   4.684  20.067  0.00  0.00    +0.000 A 
ATOM     27  C   UNL     1       3.304   4.758  18.919  0.00  0.00    +0.000 A 
ATOM     28  C   UNL     1       3.442   5.960  18.225  0.00  0.00    +0.000 A 
ATOM     29  C   UNL     1       2.769   7.097  18.684  0.00  0.00    +0.000 A 
BRANCH  27  30
ATOM     30  S   UNL     1       4.206   3.324  18.382  0.00  0.00    +0.000 S 
ATOM     31  C   UNL     1       4.968   3.862  16.874  0.00  0.00    +0.000 C 
ATOM     32  O   UNL     1       5.254   3.074  19.354  0.00  0.00    +0.000 OA
ATOM     33  O   UNL     1       3.235   2.297  18.054  0.00  0.00    +0.000 OA
ENDBRANCH  27  30
ENDBRANCH   6  24
TORSDOF 4
ENDMDL
MODEL 2
REMARK VINA RESULT:      -8.2      1.184      1.794
REMARK  Name = 
REMARK  6 active torsions:
REMARK  status: ('A' for Active; 'I' for Inactive)
REMARK    1  A    between atoms: C_1  and  C_2
REMARK    2  A    between atoms: C_2  and  C_3
REMARK    3  A    between atoms: C_10  and  N_11
REMARK    4  A    between atoms: C_16  and  C_17
REMARK    5  A    between atoms: C_20  and  S_21
REMARK    6  A    between atoms: S_21  and  C_22
REMARK                            x       y       z     vdW  Elec       q    Type
REMARK                         _______ _______ _______ _____ _____    ______ ____
ROOT
ATOM      1  N   UNL     1      -0.454  11.444  21.808  0.00  0.00    +0.000 N 
ATOM      2  N   UNL     1      -0.810  11.166  23.078  0.00  0.00    +0.000 NA
ATOM      3  C   UNL     1      -0.370   9.930  23.284  0.00  0.00    +0.000 A 
ATOM      4  C   UNL     1       0.255   9.393  22.146  0.00  0.00    +0.000 A 
ATOM      5  C   UNL     1       0.873   8.183  21.830  0.00  0.00    +0.000 A 
ATOM      6  C   UNL     1       1.380   8.046  20.538  0.00  0.00    +0.000 A 
ATOM      7  N   UNL     1       1.305   9.037  19.614  0.00  0.00    +0.000 NA
ATOM      8  C   UNL     1       0.713  10.220  19.917  0.00  0.00    +0.000 A 
ATOM      9  C   UNL     1       0.185  10.398  21.188  0.00  0.00    +0.000 A 
ENDROOT
BRANCH   1  17
ATOM     10  C   UNL     1      -4.843  17.011  24.862  0.00  0.00    +0.000 A 
ATOM     11  C   UNL     1      -3.484  16.962  25.038  0.00  0.00    +0.000 A 
ATOM     12  N   UNL     1      -2.700  16.008  24.513  0.00  0.00    +0.000 NA
ATOM     13  C   UNL     1      -3.281  15.064  23.754  0.00  0.00    +0.000 A 
ATOM     14  N   UNL     1      -2.468  14.258  22.984  0.00  0.00    +0.000 N 
ATOM     15  C   UNL     1      -1.070  14.136  23.374  0.00  0.00    +0.000 C 
ATOM     16  C   UNL     1      -0.229  13.909  22.120  0.00  0.00    +0.000 C 
ATOM     17  C   UNL     1      -0.761  12.760  21.252  0.00  0.00    +0.000 C 
ATOM     18  C   UNL     1      -2.256  12.940  20.961  0.00  0.00    +0.000 C 
ATOM     19  C   UNL     1      -3.076  13.173  22.230  0.00  0.00    +0.000 C 
ATOM     20  N   UNL     1      -4.613  14.988  23.597  0.00  0.00    +0.000 NA
ATOM     21  C   UNL     1      -5.364  15.959  24.149  0.00  0.00    +0.000 A 
BRANCH  10  23
ATOM     22  C   UNL     1      -6.621  18.604  24.197  0.00  0.00    +0.000 C 
ATOM     23  C   UNL     1      -5.665  18.176  25.305  0.00  0.00    +0.000 C 
ENDBRANCH  10  23
ENDBRANCH   1  17
BRANCH   6  24
ATOM     24  C   UNL     1       2.057   6.807  20.104  0.00  0.00    +0.000 A 
ATOM     25  C   UNL     1       3.013   6.806  19.068  0.00  0.00    +0.000 A 
ATOM     26  C   UNL     1       3.605   5.626  18.622  0.00  0.00    +0.000 A 
ATOM     27  C   UNL     1       3.262   4.419  19.227  0.00  0.00    +0.000 A 
ATOM     28  C   UNL     1       2.326   4.380  20.261  0.00  0.00    +0.000 A 
ATOM     29  C   UNL     1       1.740   5.572  20.699  0.00  0.00    +0.000 A 
BRANCH  27  30
ATOM     30  S   UNL     1       3.964   2.903  18.620  0.00  0.00    +0.000 S 
ATOM     31  C   UNL     1       2.603   1.768  18.683  0.00  0.00    +0.000 C 
ATOM     32  O   UNL     1       4.317   3.108  17.228  0.00  0.00    +0.000 OA
ATOM     33  O   UNL     1       4.958   2.469  19.583  0.00  0.00    +0.000 OA
ENDBRANCH  27  30
ENDBRANCH   6  24
TORSDOF 4
ENDMDL
MODEL 3
REMARK VINA RESULT:      -8.0      2.870      3.566
REMARK  Name = 
REMARK  6 active torsions:
REMARK  status: ('A' for Active; 'I' for Inactive)
REMARK    1  A    between atoms: C_1  and  C_2
REMARK    2  A    between atoms: C_2  and  C_3
REMARK    3  A    between atoms: C_10  and  N_11
REMARK    4  A    between atoms: C_16  and  C_17
REMARK    5  A    between atoms: C_20  and  S_21
REMARK    6  A    between atoms: S_21  and  C_22
REMARK                            x       y       z     vdW  Elec       q    Type
REMARK                         _______ _______ _______ _____ _____    ______ ____
ROOT
ATOM      1  N   UNL     1      -0.083  10.515  20.266  0.00  0.00    +0.000 N 
ATOM      2  N   UNL     1      -0.341   9.920  21.449  0.00  0.00    +0.000 NA
ATOM      3  C   UNL     1       0.399   8.817  21.435  0.00  0.00    +0.000 A 
ATOM      4  C   UNL     1       1.126   8.681  20.240  0.00  0.00    +0.000 A 
ATOM      5  C   UNL     1       2.026   7.748  19.725  0.00  0.00    +0.000 A 
ATOM      6  C   UNL     1       2.535   7.991  18.450  0.00  0.00    +0.000 A 
ATOM      7  N   UNL     1       2.201   9.090  17.727  0.00  0.00    +0.000 NA
ATOM      8  C   UNL     1       1.333  10.006  18.224  0.00  0.00    +0.000 A 
ATOM      9  C   UNL     1       0.793   9.800  19.486  0.00  0.00    +0.000 A 
ENDROOT
BRANCH   1  17
ATOM     10  C   UNL     1      -1.473  16.432  25.025  0.00  0.00    +0.000 A 
ATOM     11  C   UNL     1      -0.341  16.354  24.254  0.00  0.00    +0.000 A 
ATOM     12  N   UNL     1      -0.081  15.339  23.416  0.00  0.00    +0.000 NA
ATOM     13  C   UNL     1      -0.993  14.358  23.313  0.00  0.00    +0.000 A 
ATOM     14  N   UNL     1      -0.877  13.472  22.263  0.00  0.00    +0.000 N 
ATOM     15  C   UNL     1       0.427  13.336  21.630  0.00  0.00    +0.000 C 
ATOM     16  C   UNL     1       0.224  12.988  20.157  0.00  0.00    +0.000 C 
ATOM     17  C   UNL     1      -0.718  11.793  19.957  0.00  0.00    +0.000 C 
ATOM     18  C   UNL     1      -2.031  11.997  20.723  0.00  0.00    +0.000 C 
ATOM     19  C   UNL     1      -1.803  12.351  22.193  0.00  0.00    +0.000 C 
ATOM     20  N   UNL     1      -2.087  14.312  24.090  0.00  0.00    +0.000 NA
ATOM     21  C   UNL     1      -2.306  15.345  24.924  0.00  0.00    +0.000 A 
BRANCH  10  23
ATOM     22  C   UNL     1      -0.615  18.137  26.604  0.00  0.00    +0.000 C 
ATOM     23  C   UNL     1      -1.822  17.652  25.811  0.00  0.00    +0.000 C 
ENDBRANCH  10  23
ENDBRANCH   1  17
BRANCH   6  24
ATOM     24  C   UNL     1       3.498   7.067  17.816  0.00  0.00    +0.000 A 
ATOM     25  C   UNL     1       3.863   5.846  18.419  0.00  0.00    +0.000 A 
ATOM     26  C   UNL     1       4.815   5.005  17.847  0.00  0.00    +0.000 A 
ATOM     27  C   UNL     1       5.407   5.366  16.638  0.00  0.00    +0.000 A 
ATOM     28  C   UNL     1       5.065   6.563  16.007  0.00  0.00    +0.000 A 
ATOM     29  C   UNL     1       4.107   7.397  16.592  0.00  0.00    +0.000 A 
BRANCH  27  30
ATOM     30  S   UNL     1       6.669   4.331  15.935  0.00  0.00    +0.000 S 
ATOM     31  C   UNL     1       7.085   5.161  14.425  0.00  0.00    +0.000 C 
ATOM     32  O   UNL     1       7.822   4.386  16.814  0.00  0.00    +0.000 OA
ATOM     33  O   UNL     1       6.052   3.063  15.598  0.00  0.00    +0.000 OA
ENDBRANCH  27  30
ENDBRANCH   6  24
TORSDOF 4
ENDMDL
MODEL 4
REMARK VINA RESULT:      -7.9      1.153      2.044
REMARK  Name = 
REMARK  6 active torsions:
REMARK  status: ('A' for Active; 'I' for Inactive)
REMARK    1  A    between atoms: C_1  and  C_2
REMARK    2  A    between atoms: C_2  and  C_3
REMARK    3  A    between atoms: C_10  and  N_11
REMARK    4  A    between atoms: C_16  and  C_17
REMARK    5  A    between atoms: C_20  and  S_21
REMARK    6  A    between atoms: S_21  and  C_22
REMARK                            x       y       z     vdW  Elec       q    Type
REMARK                         _______ _______ _______ _____ _____    ______ ____
ROOT
ATOM      1  N   UNL     1      -0.311  11.860  21.352  0.00  0.00    +0.000 N 
ATOM      2  N   UNL     1      -0.452  12.502  20.175  0.00  0.00    +0.000 NA
ATOM      3  C   UNL     1       0.047  11.661  19.275  0.00  0.00    +0.000 A 
ATOM      4  C   UNL     1       0.531  10.480  19.865  0.00  0.00    +0.000 A 
ATOM      5  C   UNL     1       1.129   9.310  19.397  0.00  0.00    +0.000 A 
ATOM      6  C   UNL     1       1.473   8.349  20.347  0.00  0.00    +0.000 A 
ATOM      7  N   UNL     1       1.232   8.511  21.672  0.00  0.00    +0.000 NA
ATOM      8  C   UNL     1       0.643   9.644  22.133  0.00  0.00    +0.000 A 
ATOM      9  C   UNL     1       0.292  10.632  21.225  0.00  0.00    +0.000 A 
ENDROOT
BRANCH   1  17
ATOM     10  C   UNL     1      -6.703  16.074  22.334  0.00  0.00    +0.000 A 
ATOM     11  C   UNL     1      -6.663  14.725  22.578  0.00  0.00    +0.000 A 
ATOM     12  N   UNL     1      -5.563  13.974  22.420  0.00  0.00    +0.000 NA
ATOM     13  C   UNL     1      -4.435  14.585  22.023  0.00  0.00    +0.000 A 
ATOM     14  N   UNL     1      -3.247  13.892  22.132  0.00  0.00    +0.000 N 
ATOM     15  C   UNL     1      -3.314  12.439  22.203  0.00  0.00    +0.000 C 
ATOM     16  C   UNL     1      -2.143  11.934  23.043  0.00  0.00    +0.000 C 
ATOM     17  C   UNL     1      -0.794  12.496  22.575  0.00  0.00    +0.000 C 
ATOM     18  C   UNL     1      -0.849  14.025  22.459  0.00  0.00    +0.000 C 
ATOM     19  C   UNL     1      -2.032  14.507  21.619  0.00  0.00    +0.000 C 
ATOM     20  N   UNL     1      -4.404  15.884  21.682  0.00  0.00    +0.000 NA
ATOM     21  C   UNL     1      -5.532  16.600  21.845  0.00  0.00    +0.000 A 
BRANCH  10  23
ATOM     22  C   UNL     1      -7.443  18.154  23.459  0.00  0.00    +0.000 C 
ATOM     23  C   UNL     1      -7.885  16.916  22.687  0.00  0.00    +0.000 C 
ENDBRANCH  10  23
ENDBRANCH   1  17
BRANCH   6  24
ATOM     24  C   UNL     1       2.108   7.073  19.955  0.00  0.00    +0.000 A 
ATOM     25  C   UNL     1       2.953   6.978  18.831  0.00  0.00    +0.000 A 
ATOM     26  C   UNL     1       3.502   5.761  18.432  0.00  0.00    +0.000 A 
ATOM     27  C   UNL     1       3.228   4.612  19.172  0.00  0.00    +0.000 A 
ATOM     28  C   UNL     1       2.403   4.669  20.296  0.00  0.00    +0.000 A 
ATOM     29  C   UNL     1       1.859   5.897  20.686  0.00  0.00    +0.000 A 
BRANCH  27  30
ATOM     30  S   UNL     1       3.870   3.046  18.631  0.00  0.00    +0.000 S 
ATOM     31  C   UNL     1       2.462   1.974  18.717  0.00  0.00    +0.000 C 
ATOM     32  O   UNL     1       4.249   3.184  17.237  0.00  0.00    +0.000 OA
ATOM     33  O   UNL     1       4.833   2.606  19.623  0.00  0.00    +0.000 OA
ENDBRANCH  27  30
ENDBRANCH   6  24
TORSDOF 4
ENDMDL
MODEL 5
REMARK VINA RESULT:      -7.7      1.181      1.731
REMARK  Name = 
REMARK  6 active torsions:
REMARK  status: ('A' for Active; 'I' for Inactive)
REMARK    1  A    between atoms: C_1  and  C_2
REMARK    2  A    between atoms: C_2  and  C_3
REMARK    3  A    between atoms: C_10  and  N_11
REMARK    4  A    between atoms: C_16  and  C_17
REMARK    5  A    between atoms: C_20  and  S_21
REMARK    6  A    between atoms: S_21  and  C_22
REMARK                            x       y       z     vdW  Elec       q    Type
REMARK                         _______ _______ _______ _____ _____    ______ ____
ROOT
ATOM      1  N   UNL     1       0.086  12.110  20.878  0.00  0.00    +0.000 N 
ATOM      2  N   UNL     1      -0.061  12.653  19.653  0.00  0.00    +0.000 NA
ATOM      3  C   UNL     1       0.305  11.689  18.815  0.00  0.00    +0.000 A 
ATOM      4  C   UNL     1       0.709  10.525  19.491  0.00  0.00    +0.000 A 
ATOM      5  C   UNL     1       1.167   9.263  19.109  0.00  0.00    +0.000 A 
ATOM      6  C   UNL     1       1.474   8.363  20.129  0.00  0.00    +0.000 A 
ATOM      7  N   UNL     1       1.325   8.668  21.443  0.00  0.00    +0.000 NA
ATOM      8  C   UNL     1       0.872   9.890  21.821  0.00  0.00    +0.000 A 
ATOM      9  C   UNL     1       0.563  10.822  20.841  0.00  0.00    +0.000 A 
ENDROOT
BRANCH   1  17
ATOM     10  C   UNL     1      -6.686  15.404  22.572  0.00  0.00    +0.000 A 
ATOM     11  C   UNL     1      -6.340  14.155  23.020  0.00  0.00    +0.000 A 
ATOM     12  N   UNL     1      -5.167  13.565  22.743  0.00  0.00    +0.000 NA
ATOM     13  C   UNL     1      -4.277  14.249  22.005  0.00  0.00    +0.000 A 
ATOM     14  N   UNL     1      -2.980  13.783  21.956  0.00  0.00    +0.000 N 
ATOM     15  C   UNL     1      -2.749  12.381  22.279  0.00  0.00    +0.000 C 
ATOM     16  C   UNL     1      -1.363  12.243  22.904  0.00  0.00    +0.000 C 
ATOM     17  C   UNL     1      -0.265  12.899  22.056  0.00  0.00    +0.000 C 
ATOM     18  C   UNL     1      -0.635  14.345  21.705  0.00  0.00    +0.000 C 
ATOM     19  C   UNL     1      -2.029  14.460  21.087  0.00  0.00    +0.000 C 
ATOM     20  N   UNL     1      -4.564  15.440  21.457  0.00  0.00    +0.000 NA
ATOM     21  C   UNL     1      -5.755  15.993  21.750  0.00  0.00    +0.000 A 
BRANCH  10  23
ATOM     22  C   UNL     1      -7.899  17.564  22.587  0.00  0.00    +0.000 C 
ATOM     23  C   UNL     1      -7.916  16.108  23.039  0.00  0.00    +0.000 C 
ENDBRANCH  10  23
ENDBRANCH   1  17
BRANCH   6  24
ATOM     24  C   UNL     1       1.963   7.001  19.832  0.00  0.00    +0.000 A 
ATOM     25  C   UNL     1       1.794   5.936  20.741  0.00  0.00    +0.000 A 
ATOM     26  C   UNL     1       2.308   4.668  20.482  0.00  0.00    +0.000 A 
ATOM     27  C   UNL     1       2.987   4.437  19.287  0.00  0.00    +0.000 A 
ATOM     28  C   UNL     1       3.167   5.463  18.359  0.00  0.00    +0.000 A 
ATOM     29  C   UNL     1       2.645   6.731  18.632  0.00  0.00    +0.000 A 
BRANCH  27  30
ATOM     30  S   UNL     1       3.702   2.839  18.980  0.00  0.00    +0.000 S 
ATOM     31  C   UNL     1       4.237   2.947  17.293  0.00  0.00    +0.000 C 
ATOM     32  O   UNL     1       4.879   2.714  19.820  0.00  0.00    +0.000 OA
ATOM     33  O   UNL     1       2.632   1.863  19.052  0.00  0.00    +0.000 OA
ENDBRANCH  27  30
ENDBRANCH   6  24
TORSDOF 4
ENDMDL
MODEL 6
REMARK VINA RESULT:      -7.7      3.111      3.899
REMARK  Name = 
REMARK  6 active torsions:
REMARK  status: ('A' for Active; 'I' for Inactive)
REMARK    1  A    between atoms: C_1  and  C_2
REMARK    2  A    between atoms: C_2  and  C_3
REMARK    3  A    between atoms: C_10  and  N_11
REMARK    4  A    between atoms: C_16  and  C_17
REMARK    5  A    between atoms: C_20  and  S_21
REMARK    6  A    between atoms: S_21  and  C_22
REMARK                            x       y       z     vdW  Elec       q    Type
REMARK                         _______ _______ _______ _____ _____    ______ ____
ROOT
ATOM      1  N   UNL     1      -0.142  10.307  20.391  0.00  0.00    +0.000 N 
ATOM      2  N   UNL     1      -0.338   9.721  21.590  0.00  0.00    +0.000 NA
ATOM      3  C   UNL     1       0.456   8.657  21.574  0.00  0.00    +0.000 A 
ATOM      4  C   UNL     1       1.155   8.534  20.362  0.00  0.00    +0.000 A 
ATOM      5  C   UNL     1       2.087   7.637  19.838  0.00  0.00    +0.000 A 
ATOM      6  C   UNL     1       2.548   7.882  18.545  0.00  0.00    +0.000 A 
ATOM      7  N   UNL     1       2.140   8.949  17.813  0.00  0.00    +0.000 NA
ATOM      8  C   UNL     1       1.241   9.830  18.319  0.00  0.00    +0.000 A 
ATOM      9  C   UNL     1       0.747   9.621  19.598  0.00  0.00    +0.000 A 
ENDROOT
BRANCH   1  17
ATOM     10  C   UNL     1      -0.260  16.887  24.425  0.00  0.00    +0.000 A 
ATOM     11  C   UNL     1       0.625  16.664  23.401  0.00  0.00    +0.000 A 
ATOM     12  N   UNL     1       0.660  15.531  22.682  0.00  0.00    +0.000 NA
ATOM     13  C   UNL     1      -0.238  14.575  22.971  0.00  0.00    +0.000 A 
ATOM     14  N   UNL     1      -0.400  13.543  22.070  0.00  0.00    +0.000 N 
ATOM     15  C   UNL     1       0.689  13.278  21.139  0.00  0.00    +0.000 C 
ATOM     16  C   UNL     1       0.102  12.728  19.841  0.00  0.00    +0.000 C 
ATOM     17  C   UNL     1      -0.849  11.546  20.077  0.00  0.00    +0.000 C 
ATOM     18  C   UNL     1      -1.910  11.898  21.126  0.00  0.00    +0.000 C 
ATOM     19  C   UNL     1      -1.300  12.453  22.414  0.00  0.00    +0.000 C 
ATOM     20  N   UNL     1      -1.084  14.674  24.009  0.00  0.00    +0.000 NA
ATOM     21  C   UNL     1      -1.080  15.823  24.711  0.00  0.00    +0.000 A 
BRANCH  10  23
ATOM     22  C   UNL     1      -1.868  18.561  25.290  0.00  0.00    +0.000 C 
ATOM     23  C   UNL     1      -0.397  18.218  25.087  0.00  0.00    +0.000 C 
ENDBRANCH  10  23
ENDBRANCH   1  17
BRANCH   6  24
ATOM     24  C   UNL     1       3.538   6.995  17.901  0.00  0.00    +0.000 A 
ATOM     25  C   UNL     1       4.570   7.501  17.084  0.00  0.00    +0.000 A 
ATOM     26  C   UNL     1       5.465   6.657  16.431  0.00  0.00    +0.000 A 
ATOM     27  C   UNL     1       5.354   5.278  16.605  0.00  0.00    +0.000 A 
ATOM     28  C   UNL     1       4.352   4.740  17.412  0.00  0.00    +0.000 A 
ATOM     29  C   UNL     1       3.460   5.599  18.062  0.00  0.00    +0.000 A 
BRANCH  27  30
ATOM     30  S   UNL     1       6.451   4.193  15.723  0.00  0.00    +0.000 S 
ATOM     31  C   UNL     1       6.572   4.945  14.123  0.00  0.00    +0.000 C 
ATOM     32  O   UNL     1       7.753   4.271  16.360  0.00  0.00    +0.000 OA
ATOM     33  O   UNL     1       5.773   2.920  15.572  0.00  0.00    +0.000 OA
ENDBRANCH  27  30
ENDBRANCH   6  24
TORSDOF 4
ENDMDL
MODEL 7
REMARK VINA RESULT:      -7.7      1.149      1.599
REMARK  Name = 
REMARK  6 active torsions:
REMARK  status: ('A' for Active; 'I' for Inactive)
REMARK    1  A    between atoms: C_1  and  C_2
REMARK    2  A    between atoms: C_2  and  C_3
REMARK    3  A    between atoms: C_10  and  N_11
REMARK    4  A    between atoms: C_16  and  C_17
REMARK    5  A    between atoms: C_20  and  S_21
REMARK    6  A    between atoms: S_21  and  C_22
REMARK                            x       y       z     vdW  Elec       q    Type
REMARK                         _______ _______ _______ _____ _____    ______ ____
ROOT
ATOM      1  N   UNL     1      -0.168  11.639  21.342  0.00  0.00    +0.000 N 
ATOM      2  N   UNL     1      -0.525  11.488  22.633  0.00  0.00    +0.000 NA
ATOM      3  C   UNL     1      -0.130  10.259  22.946  0.00  0.00    +0.000 A 
ATOM      4  C   UNL     1       0.468   9.601  21.857  0.00  0.00    +0.000 A 
ATOM      5  C   UNL     1       1.039   8.346  21.647  0.00  0.00    +0.000 A 
ATOM      6  C   UNL     1       1.532   8.077  20.371  0.00  0.00    +0.000 A 
ATOM      7  N   UNL     1       1.487   8.986  19.363  0.00  0.00    +0.000 NA
ATOM      8  C   UNL     1       0.940  10.212  19.563  0.00  0.00    +0.000 A 
ATOM      9  C   UNL     1       0.428  10.520  20.815  0.00  0.00    +0.000 A 
ENDROOT
BRANCH   1  17
ATOM     10  C   UNL     1      -6.729  15.705  21.215  0.00  0.00    +0.000 A 
ATOM     11  C   UNL     1      -5.735  15.935  22.131  0.00  0.00    +0.000 A 
ATOM     12  N   UNL     1      -4.584  15.246  22.169  0.00  0.00    +0.000 NA
ATOM     13  C   UNL     1      -4.391  14.293  21.242  0.00  0.00    +0.000 A 
ATOM     14  N   UNL     1      -3.118  13.783  21.091  0.00  0.00    +0.000 N 
ATOM     15  C   UNL     1      -2.194  13.926  22.207  0.00  0.00    +0.000 C 
ATOM     16  C   UNL     1      -0.774  14.039  21.656  0.00  0.00    +0.000 C 
ATOM     17  C   UNL     1      -0.430  12.912  20.673  0.00  0.00    +0.000 C 
ATOM     18  C   UNL     1      -1.501  12.792  19.582  0.00  0.00    +0.000 C 
ATOM     19  C   UNL     1      -2.914  12.687  20.156  0.00  0.00    +0.000 C 
ATOM     20  N   UNL     1      -5.343  13.945  20.361  0.00  0.00    +0.000 NA
ATOM     21  C   UNL     1      -6.486  14.655  20.363  0.00  0.00    +0.000 A 
BRANCH  10  23
ATOM     22  C   UNL     1      -7.497  17.962  20.543  0.00  0.00    +0.000 C 
ATOM     23  C   UNL     1      -7.917  16.599  21.082  0.00  0.00    +0.000 C 
ENDBRANCH  10  23
ENDBRANCH   1  17
BRANCH   6  24
ATOM     24  C   UNL     1       2.160   6.780  20.045  0.00  0.00    +0.000 A 
ATOM     25  C   UNL     1       3.153   6.664  19.051  0.00  0.00    +0.000 A 
ATOM     26  C   UNL     1       3.700   5.430  18.707  0.00  0.00    +0.000 A 
ATOM     27  C   UNL     1       3.273   4.283  19.375  0.00  0.00    +0.000 A 
ATOM     28  C   UNL     1       2.299   4.359  20.371  0.00  0.00    +0.000 A 
ATOM     29  C   UNL     1       1.759   5.605  20.706  0.00  0.00    +0.000 A 
BRANCH  27  30
ATOM     30  S   UNL     1       3.918   2.698  18.896  0.00  0.00    +0.000 S 
ATOM     31  C   UNL     1       2.500   1.637  18.978  0.00  0.00    +0.000 C 
ATOM     32  O   UNL     1       4.332   2.792  17.509  0.00  0.00    +0.000 OA
ATOM     33  O   UNL     1       4.853   2.282  19.924  0.00  0.00    +0.000 OA
ENDBRANCH  27  30
ENDBRANCH   6  24
TORSDOF 4
ENDMDL
MODEL 8
REMARK VINA RESULT:      -7.5      1.543      2.253
REMARK  Name = 
REMARK  6 active torsions:
REMARK  status: ('A' for Active; 'I' for Inactive)
REMARK    1  A    between atoms: C_1  and  C_2
REMARK    2  A    between atoms: C_2  and  C_3
REMARK    3  A    between atoms: C_10  and  N_11
REMARK    4  A    between atoms: C_16  and  C_17
REMARK    5  A    between atoms: C_20  and  S_21
REMARK    6  A    between atoms: S_21  and  C_22
REMARK                            x       y       z     vdW  Elec       q    Type
REMARK                         _______ _______ _______ _____ _____    ______ ____
ROOT
ATOM      1  N   UNL     1       0.521  11.939  20.354  0.00  0.00    +0.000 N 
ATOM      2  N   UNL     1       0.499  12.370  19.076  0.00  0.00    +0.000 NA
ATOM      3  C   UNL     1       0.876  11.315  18.363  0.00  0.00    +0.000 A 
ATOM      4  C   UNL     1       1.163  10.202  19.173  0.00  0.00    +0.000 A 
ATOM      5  C   UNL     1       1.580   8.890  18.947  0.00  0.00    +0.000 A 
ATOM      6  C   UNL     1       1.758   8.078  20.066  0.00  0.00    +0.000 A 
ATOM      7  N   UNL     1       1.524   8.513  21.330  0.00  0.00    +0.000 NA
ATOM      8  C   UNL     1       1.110   9.785  21.557  0.00  0.00    +0.000 A 
ATOM      9  C   UNL     1       0.929  10.633  20.473  0.00  0.00    +0.000 A 
ENDROOT
BRANCH   1  17
ATOM     10  C   UNL     1      -6.613  14.014  22.449  0.00  0.00    +0.000 A 
ATOM     11  C   UNL     1      -5.941  12.977  23.043  0.00  0.00    +0.000 A 
ATOM     12  N   UNL     1      -4.699  12.602  22.700  0.00  0.00    +0.000 NA
ATOM     13  C   UNL     1      -4.075  13.299  21.736  0.00  0.00    +0.000 A 
ATOM     14  N   UNL     1      -2.718  13.113  21.575  0.00  0.00    +0.000 N 
ATOM     15  C   UNL     1      -2.136  11.882  22.091  0.00  0.00    +0.000 C 
ATOM     16  C   UNL     1      -0.697  12.161  22.520  0.00  0.00    +0.000 C 
ATOM     17  C   UNL     1       0.123  12.853  21.423  0.00  0.00    +0.000 C 
ATOM     18  C   UNL     1      -0.608  14.093  20.893  0.00  0.00    +0.000 C 
ATOM     19  C   UNL     1      -2.047  13.791  20.476  0.00  0.00    +0.000 C 
ATOM     20  N   UNL     1      -4.687  14.274  21.045  0.00  0.00    +0.000 NA
ATOM     21  C   UNL     1      -5.936  14.612  21.414  0.00  0.00    +0.000 A 
BRANCH  10  23
ATOM     22  C   UNL     1      -7.771  15.962  23.449  0.00  0.00    +0.000 C 
ATOM     23  C   UNL     1      -7.916  14.524  22.968  0.00  0.00    +0.000 C 
ENDBRANCH  10  23
ENDBRANCH   1  17
BRANCH   6  24
ATOM     24  C   UNL     1       2.194   6.673  19.935  0.00  0.00    +0.000 A 
ATOM     25  C   UNL     1       3.250   6.299  19.079  0.00  0.00    +0.000 A 
ATOM     26  C   UNL     1       3.619   4.965  18.915  0.00  0.00    +0.000 A 
ATOM     27  C   UNL     1       2.943   3.977  19.628  0.00  0.00    +0.000 A 
ATOM     28  C   UNL     1       1.899   4.308  20.491  0.00  0.00    +0.000 A 
ATOM     29  C   UNL     1       1.539   5.651  20.647  0.00  0.00    +0.000 A 
BRANCH  27  30
ATOM     30  S   UNL     1       3.365   2.269  19.374  0.00  0.00    +0.000 S 
ATOM     31  C   UNL     1       3.665   2.177  17.629  0.00  0.00    +0.000 C 
ATOM     32  O   UNL     1       4.617   2.018  20.062  0.00  0.00    +0.000 OA
ATOM     33  O   UNL     1       2.183   1.482  19.670  0.00  0.00    +0.000 OA
ENDBRANCH  27  30
ENDBRANCH   6  24
TORSDOF 4
ENDMDL
MODEL 9
REMARK VINA RESULT:      -7.4      1.842      2.613
REMARK  Name = 
REMARK  6 active torsions:
REMARK  status: ('A' for Active; 'I' for Inactive)
REMARK    1  A    between atoms: C_1  and  C_2
REMARK    2  A    between atoms: C_2  and  C_3
REMARK    3  A    between atoms: C_10  and  N_11
REMARK    4  A    between atoms: C_16  and  C_17
REMARK    5  A    between atoms: C_20  and  S_21
REMARK    6  A    between atoms: S_21  and  C_22
REMARK                            x       y       z     vdW  Elec       q    Type
REMARK                         _______ _______ _______ _____ _____    ______ ____
ROOT
ATOM      1  N   UNL     1      -0.204  10.955  20.049  0.00  0.00    +0.000 N 
ATOM      2  N   UNL     1      -0.503  10.441  21.259  0.00  0.00    +0.000 NA
ATOM      3  C   UNL     1       0.203   9.318  21.327  0.00  0.00    +0.000 A 
ATOM      4  C   UNL     1       0.947   9.088  20.157  0.00  0.00    +0.000 A 
ATOM      5  C   UNL     1       1.827   8.098  19.718  0.00  0.00    +0.000 A 
ATOM      6  C   UNL     1       2.367   8.249  18.441  0.00  0.00    +0.000 A 
ATOM      7  N   UNL     1       2.081   9.311  17.646  0.00  0.00    +0.000 NA
ATOM      8  C   UNL     1       1.232  10.282  18.070  0.00  0.00    +0.000 A 
ATOM      9  C   UNL     1       0.663  10.168  19.330  0.00  0.00    +0.000 A 
ENDROOT
BRANCH   1  17
ATOM     10  C   UNL     1      -3.905  16.092  24.465  0.00  0.00    +0.000 A 
ATOM     11  C   UNL     1      -2.562  16.176  24.202  0.00  0.00    +0.000 A 
ATOM     12  N   UNL     1      -1.898  15.299  23.433  0.00  0.00    +0.000 NA
ATOM     13  C   UNL     1      -2.598  14.297  22.874  0.00  0.00    +0.000 A 
ATOM     14  N   UNL     1      -1.998  13.569  21.868  0.00  0.00    +0.000 N 
ATOM     15  C   UNL     1      -0.544  13.586  21.793  0.00  0.00    +0.000 C 
ATOM     16  C   UNL     1      -0.126  13.432  20.332  0.00  0.00    +0.000 C 
ATOM     17  C   UNL     1      -0.794  12.231  19.650  0.00  0.00    +0.000 C 
ATOM     18  C   UNL     1      -2.314  12.263  19.850  0.00  0.00    +0.000 C 
ATOM     19  C   UNL     1      -2.708  12.424  21.319  0.00  0.00    +0.000 C 
ATOM     20  N   UNL     1      -3.897  14.092  23.144  0.00  0.00    +0.000 NA
ATOM     21  C   UNL     1      -4.523  14.989  23.928  0.00  0.00    +0.000 A 
BRANCH  10  23
ATOM     22  C   UNL     1      -5.667  17.819  24.237  0.00  0.00    +0.000 C 
ATOM     23  C   UNL     1      -4.650  17.175  25.173  0.00  0.00    +0.000 C 
ENDBRANCH  10  23
ENDBRANCH   1  17
BRANCH   6  24
ATOM     24  C   UNL     1       3.312   7.260  17.884  0.00  0.00    +0.000 A 
ATOM     25  C   UNL     1       4.280   7.616  16.922  0.00  0.00    +0.000 A 
ATOM     26  C   UNL     1       5.130   6.668  16.356  0.00  0.00    +0.000 A 
ATOM     27  C   UNL     1       5.038   5.338  16.764  0.00  0.00    +0.000 A 
ATOM     28  C   UNL     1       4.099   4.949  17.719  0.00  0.00    +0.000 A 
ATOM     29  C   UNL     1       3.253   5.911  18.280  0.00  0.00    +0.000 A 
BRANCH  27  30
ATOM     30  S   UNL     1       6.074   4.113  15.999  0.00  0.00    +0.000 S 
ATOM     31  C   UNL     1       5.874   4.433  14.266  0.00  0.00    +0.000 C 
ATOM     32  O   UNL     1       7.447   4.412  16.358  0.00  0.00    +0.000 OA
ATOM     33  O   UNL     1       5.496   2.815  16.287  0.00  0.00    +0.000 OA
ENDBRANCH  27  30
ENDBRANCH   6  24
TORSDOF 4
ENDMDL
