MODEL 1
REMARK VINA RESULT:      -7.6      0.000      0.000
REMARK  Name = 
REMARK  4 active torsions:
REMARK  status: ('A' for Active; 'I' for Inactive)
REMARK    1  A    between atoms: C_1  and  C_2
REMARK    2  A    between atoms: C_7  and  C_8
REMARK    3  A    between atoms: C_9  and  C_10
REMARK    4  A    between atoms: C_17  and  O_18
REMARK                            x       y       z     vdW  Elec       q    Type
REMARK                         _______ _______ _______ _____ _____    ______ ____
ROOT
ATOM      1  C   UNL     1       4.512   5.710  17.878  0.00  0.00    +0.000 A 
ATOM      2  N   UNL     1       3.589   6.646  17.843  0.00  0.00    +0.000 NA
ATOM      3  C   UNL     1       3.019   6.581  19.084  0.00  0.00    +0.000 A 
ATOM      4  N   UNL     1       2.087   7.502  19.421  0.00  0.00    +0.000 N 
ATOM      5  C   UNL     1       1.511   7.540  20.758  0.00  0.00    +0.000 C 
ATOM      6  C   UNL     1       1.529   8.983  21.268  0.00  0.00    +0.000 C 
ATOM      7  C   UNL     1       0.834   9.930  20.291  0.00  0.00    +0.000 C 
ATOM      8  C   UNL     1       1.416   9.806  18.881  0.00  0.00    +0.000 C 
ATOM      9  C   UNL     1       1.445   8.339  18.415  0.00  0.00    +0.000 C 
ATOM     10  N   UNL     1       3.520   5.610  19.856  0.00  0.00    +0.000 NA
ATOM     11  O   UNL     1       4.497   5.022  19.063  0.00  0.00    +0.000 OA
ENDROOT
BRANCH   1  20
ATOM     12  C   UNL     1       7.055   3.055  11.590  0.00  0.00    +0.000 C 
ATOM     13  C   UNL     1       6.284   3.643  12.739  0.00  0.00    +0.000 C 
ATOM     14  O   UNL     1       5.059   3.625  12.733  0.00  0.00    +0.000 OA
ATOM     15  N   UNL     1       7.103   4.174  13.711  0.00  0.00    +0.000 N 
ATOM     16  C   UNL     1       6.671   4.752  14.879  0.00  0.00    +0.000 A 
ATOM     17  N   UNL     1       7.443   5.534  15.590  0.00  0.00    +0.000 NA
ATOM     18  C   UNL     1       6.739   6.016  16.689  0.00  0.00    +0.000 A 
ATOM     19  C   UNL     1       7.405   7.007  17.577  0.00  0.00    +0.000 C 
ATOM     20  C   UNL     1       5.461   5.488  16.834  0.00  0.00    +0.000 A 
ATOM     21  S   UNL     1       5.136   4.430  15.532  0.00  0.00    +0.000 S 
ATOM     22  H   UNL     1       8.080   4.348  13.509  0.00  0.00    +0.000 HD
ENDBRANCH   1  20
BRANCH   8  23
ATOM     23  O   UNL     1       0.651  10.611  17.983  0.00  0.00    +0.000 OA
ATOM     24  H   UNL     1      -0.230  10.209  17.891  0.00  0.00    +0.000 HD
ENDBRANCH   8  23
TORSDOF 2
ENDMDL
MODEL 2
REMARK VINA RESULT:      -7.3      3.365      8.583
REMARK  Name = 
REMARK  4 active torsions:
REMARK  status: ('A' for Active; 'I' for Inactive)
REMARK    1  A    between atoms: C_1  and  C_2
REMARK    2  A    between atoms: C_7  and  C_8
REMARK    3  A    between atoms: C_9  and  C_10
REMARK    4  A    between atoms: C_17  and  O_18
REMARK                            x       y       z     vdW  Elec       q    Type
REMARK                         _______ _______ _______ _____ _____    ______ ____
ROOT
ATOM      1  C   UNL     1       1.975   7.322  19.991  0.00  0.00    +0.000 A 
ATOM      2  N   UNL     1       2.950   7.121  19.133  0.00  0.00    +0.000 NA
ATOM      3  C   UNL     1       3.250   5.796  19.294  0.00  0.00    +0.000 A 
ATOM      4  N   UNL     1       4.158   5.229  18.466  0.00  0.00    +0.000 N 
ATOM      5  C   UNL     1       4.453   3.805  18.529  0.00  0.00    +0.000 C 
ATOM      6  C   UNL     1       4.435   3.228  17.111  0.00  0.00    +0.000 C 
ATOM      7  C   UNL     1       5.380   3.993  16.186  0.00  0.00    +0.000 C 
ATOM      8  C   UNL     1       5.089   5.496  16.205  0.00  0.00    +0.000 C 
ATOM      9  C   UNL     1       5.050   6.039  17.645  0.00  0.00    +0.000 C 
ATOM     10  N   UNL     1       2.536   5.195  20.252  0.00  0.00    +0.000 NA
ATOM     11  O   UNL     1       1.700   6.199  20.725  0.00  0.00    +0.000 OA
ENDROOT
BRANCH   1  20
ATOM     12  C   UNL     1      -2.238  12.369  23.129  0.00  0.00    +0.000 C 
ATOM     13  C   UNL     1      -1.244  11.308  22.743  0.00  0.00    +0.000 C 
ATOM     14  O   UNL     1      -0.732  10.601  23.602  0.00  0.00    +0.000 OA
ATOM     15  N   UNL     1      -1.009  11.271  21.386  0.00  0.00    +0.000 N 
ATOM     16  C   UNL     1      -0.167  10.388  20.754  0.00  0.00    +0.000 A 
ATOM     17  N   UNL     1       0.283  10.607  19.545  0.00  0.00    +0.000 NA
ATOM     18  C   UNL     1       1.147   9.583  19.173  0.00  0.00    +0.000 A 
ATOM     19  C   UNL     1       1.850   9.690  17.866  0.00  0.00    +0.000 C 
ATOM     20  C   UNL     1       1.244   8.545  20.092  0.00  0.00    +0.000 A 
ATOM     21  S   UNL     1       0.284   8.909  21.459  0.00  0.00    +0.000 S 
ATOM     22  H   UNL     1      -1.298  12.045  20.801  0.00  0.00    +0.000 HD
ENDBRANCH   1  20
BRANCH   8  23
ATOM     23  O   UNL     1       6.075   6.177  15.430  0.00  0.00    +0.000 OA
ATOM     24  H   UNL     1       6.381   5.575  14.730  0.00  0.00    +0.000 HD
ENDBRANCH   8  23
TORSDOF 2
ENDMDL
MODEL 3
REMARK VINA RESULT:      -7.2      2.654      4.413
REMARK  Name = 
REMARK  4 active torsions:
REMARK  status: ('A' for Active; 'I' for Inactive)
REMARK    1  A    between atoms: C_1  and  C_2
REMARK    2  A    between atoms: C_7  and  C_8
REMARK    3  A    between atoms: C_9  and  C_10
REMARK    4  A    between atoms: C_17  and  O_18
REMARK                            x       y       z     vdW  Elec       q    Type
REMARK                         _______ _______ _______ _____ _____    ______ ____
ROOT
ATOM      1  C   UNL     1       1.751   7.917  20.140  0.00  0.00    +0.000 A 
ATOM      2  N   UNL     1       1.042   8.879  19.594  0.00  0.00    +0.000 NA
ATOM      3  C   UNL     1       0.748   9.699  20.649  0.00  0.00    +0.000 A 
ATOM      4  N   UNL     1       0.106  10.865  20.408  0.00  0.00    +0.000 N 
ATOM      5  C   UNL     1      -0.154  11.819  21.476  0.00  0.00    +0.000 C 
ATOM      6  C   UNL     1       0.252  13.218  21.005  0.00  0.00    +0.000 C 
ATOM      7  C   UNL     1      -0.438  13.588  19.693  0.00  0.00    +0.000 C 
ATOM      8  C   UNL     1      -0.206  12.523  18.617  0.00  0.00    +0.000 C 
ATOM      9  C   UNL     1      -0.562  11.118  19.136  0.00  0.00    +0.000 C 
ATOM     10  N   UNL     1       1.203   9.249  21.823  0.00  0.00    +0.000 NA
ATOM     11  O   UNL     1       1.856   8.066  21.497  0.00  0.00    +0.000 OA
ENDROOT
BRANCH   1  20
ATOM     12  C   UNL     1       5.939   5.026  14.927  0.00  0.00    +0.000 C 
ATOM     13  C   UNL     1       5.283   5.825  16.020  0.00  0.00    +0.000 C 
ATOM     14  O   UNL     1       5.578   7.003  16.185  0.00  0.00    +0.000 OA
ATOM     15  N   UNL     1       4.384   5.082  16.752  0.00  0.00    +0.000 N 
ATOM     16  C   UNL     1       3.625   5.561  17.793  0.00  0.00    +0.000 A 
ATOM     17  N   UNL     1       3.060   4.761  18.662  0.00  0.00    +0.000 NA
ATOM     18  C   UNL     1       2.398   5.511  19.628  0.00  0.00    +0.000 A 
ATOM     19  C   UNL     1       1.769   4.795  20.771  0.00  0.00    +0.000 C 
ATOM     20  C   UNL     1       2.394   6.882  19.395  0.00  0.00    +0.000 A 
ATOM     21  S   UNL     1       3.293   7.217  17.980  0.00  0.00    +0.000 S 
ATOM     22  H   UNL     1       4.391   4.071  16.687  0.00  0.00    +0.000 HD
ENDBRANCH   1  20
BRANCH   8  23
ATOM     23  O   UNL     1      -0.973  12.848  17.458  0.00  0.00    +0.000 OA
ATOM     24  H   UNL     1      -0.397  12.761  16.679  0.00  0.00    +0.000 HD
ENDBRANCH   8  23
TORSDOF 2
ENDMDL
MODEL 4
REMARK VINA RESULT:      -6.9      3.747      3.944
REMARK  Name = 
REMARK  4 active torsions:
REMARK  status: ('A' for Active; 'I' for Inactive)
REMARK    1  A    between atoms: C_1  and  C_2
REMARK    2  A    between atoms: C_7  and  C_8
REMARK    3  A    between atoms: C_9  and  C_10
REMARK    4  A    between atoms: C_17  and  O_18
REMARK                            x       y       z     vdW  Elec       q    Type
REMARK                         _______ _______ _______ _____ _____    ______ ____
ROOT
ATOM      1  C   UNL     1       5.821   4.261  18.002  0.00  0.00    +0.000 A 
ATOM      2  N   UNL     1       4.688   3.600  18.082  0.00  0.00    +0.000 NA
ATOM      3  C   UNL     1       4.460   3.518  19.428  0.00  0.00    +0.000 A 
ATOM      4  N   UNL     1       3.296   2.980  19.859  0.00  0.00    +0.000 N 
ATOM      5  C   UNL     1       2.957   2.948  21.274  0.00  0.00    +0.000 C 
ATOM      6  C   UNL     1       1.519   3.443  21.455  0.00  0.00    +0.000 C 
ATOM      7  C   UNL     1       0.543   2.650  20.589  0.00  0.00    +0.000 C 
ATOM      8  C   UNL     1       0.974   2.642  19.120  0.00  0.00    +0.000 C 
ATOM      9  C   UNL     1       2.442   2.201  18.971  0.00  0.00    +0.000 C 
ATOM     10  N   UNL     1       5.433   4.055  20.173  0.00  0.00    +0.000 NA
ATOM     11  O   UNL     1       6.341   4.537  19.239  0.00  0.00    +0.000 OA
ENDROOT
BRANCH   1  20
ATOM     12  C   UNL     1       7.330   4.114  10.877  0.00  0.00    +0.000 C 
ATOM     13  C   UNL     1       6.752   4.064  12.265  0.00  0.00    +0.000 C 
ATOM     14  O   UNL     1       5.749   3.398  12.491  0.00  0.00    +0.000 OA
ATOM     15  N   UNL     1       7.461   4.833  13.161  0.00  0.00    +0.000 N 
ATOM     16  C   UNL     1       7.172   4.953  14.499  0.00  0.00    +0.000 A 
ATOM     17  N   UNL     1       7.643   5.938  15.222  0.00  0.00    +0.000 NA
ATOM     18  C   UNL     1       7.157   5.840  16.521  0.00  0.00    +0.000 A 
ATOM     19  C   UNL     1       7.492   6.923  17.485  0.00  0.00    +0.000 C 
ATOM     20  C   UNL     1       6.400   4.701  16.772  0.00  0.00    +0.000 A 
ATOM     21  S   UNL     1       6.256   3.790  15.333  0.00  0.00    +0.000 S 
ATOM     22  H   UNL     1       8.121   5.523  12.825  0.00  0.00    +0.000 HD
ENDBRANCH   1  20
BRANCH   8  23
ATOM     23  O   UNL     1       0.107   1.785  18.377  0.00  0.00    +0.000 OA
ATOM     24  H   UNL     1       0.402   0.868  18.508  0.00  0.00    +0.000 HD
ENDBRANCH   8  23
TORSDOF 2
ENDMDL
MODEL 5
REMARK VINA RESULT:      -6.9      2.438      3.953
REMARK  Name = 
REMARK  4 active torsions:
REMARK  status: ('A' for Active; 'I' for Inactive)
REMARK    1  A    between atoms: C_1  and  C_2
REMARK    2  A    between atoms: C_7  and  C_8
REMARK    3  A    between atoms: C_9  and  C_10
REMARK    4  A    between atoms: C_17  and  O_18
REMARK                            x       y       z     vdW  Elec       q    Type
REMARK                         _______ _______ _______ _____ _____    ______ ____
ROOT
ATOM      1  C   UNL     1       2.011   7.382  19.754  0.00  0.00    +0.000 A 
ATOM      2  N   UNL     1       1.888   8.563  19.189  0.00  0.00    +0.000 NA
ATOM      3  C   UNL     1       1.189   9.288  20.113  0.00  0.00    +0.000 A 
ATOM      4  N   UNL     1       0.983  10.606  19.886  0.00  0.00    +0.000 N 
ATOM      5  C   UNL     1       0.324  11.449  20.873  0.00  0.00    +0.000 C 
ATOM      6  C   UNL     1       1.137  12.734  21.053  0.00  0.00    +0.000 C 
ATOM      7  C   UNL     1       1.365  13.443  19.720  0.00  0.00    +0.000 C 
ATOM      8  C   UNL     1       1.988  12.502  18.684  0.00  0.00    +0.000 C 
ATOM      9  C   UNL     1       1.188  11.192  18.567  0.00  0.00    +0.000 C 
ATOM     10  N   UNL     1       0.833   8.584  21.194  0.00  0.00    +0.000 NA
ATOM     11  O   UNL     1       1.362   7.321  20.958  0.00  0.00    +0.000 OA
ENDROOT
BRANCH   1  20
ATOM     12  C   UNL     1       6.649   4.142  15.165  0.00  0.00    +0.000 C 
ATOM     13  C   UNL     1       5.875   5.036  16.095  0.00  0.00    +0.000 C 
ATOM     14  O   UNL     1       6.030   6.251  16.055  0.00  0.00    +0.000 OA
ATOM     15  N   UNL     1       5.046   4.330  16.938  0.00  0.00    +0.000 N 
ATOM     16  C   UNL     1       4.207   4.891  17.872  0.00  0.00    +0.000 A 
ATOM     17  N   UNL     1       3.712   4.193  18.862  0.00  0.00    +0.000 NA
ATOM     18  C   UNL     1       2.941   5.015  19.676  0.00  0.00    +0.000 A 
ATOM     19  C   UNL     1       2.364   4.440  20.921  0.00  0.00    +0.000 C 
ATOM     20  C   UNL     1       2.789   6.315  19.207  0.00  0.00    +0.000 A 
ATOM     21  S   UNL     1       3.684   6.503  17.763  0.00  0.00    +0.000 S 
ATOM     22  H   UNL     1       5.169   3.332  17.051  0.00  0.00    +0.000 HD
ENDBRANCH   1  20
BRANCH   8  23
ATOM     23  O   UNL     1       2.060  13.170  17.424  0.00  0.00    +0.000 OA
ATOM     24  H   UNL     1       2.496  12.574  16.791  0.00  0.00    +0.000 HD
ENDBRANCH   8  23
TORSDOF 2
ENDMDL
MODEL 6
REMARK VINA RESULT:      -6.7      3.188      4.705
REMARK  Name = 
REMARK  4 active torsions:
REMARK  status: ('A' for Active; 'I' for Inactive)
REMARK    1  A    between atoms: C_1  and  C_2
REMARK    2  A    between atoms: C_7  and  C_8
REMARK    3  A    between atoms: C_9  and  C_10
REMARK    4  A    between atoms: C_17  and  O_18
REMARK                            x       y       z     vdW  Elec       q    Type
REMARK                         _______ _______ _______ _____ _____    ______ ____
ROOT
ATOM      1  C   UNL     1       2.859   7.666  18.239  0.00  0.00    +0.000 A 
ATOM      2  N   UNL     1       2.410   8.264  19.320  0.00  0.00    +0.000 NA
ATOM      3  C   UNL     1       1.647   9.286  18.828  0.00  0.00    +0.000 A 
ATOM      4  N   UNL     1       0.939  10.046  19.695  0.00  0.00    +0.000 N 
ATOM      5  C   UNL     1       0.040  11.090  19.226  0.00  0.00    +0.000 C 
ATOM      6  C   UNL     1      -1.299  10.962  19.958  0.00  0.00    +0.000 C 
ATOM      7  C   UNL     1      -1.110  10.974  21.473  0.00  0.00    +0.000 C 
ATOM      8  C   UNL     1      -0.100   9.914  21.921  0.00  0.00    +0.000 C 
ATOM      9  C   UNL     1       1.214  10.024  21.127  0.00  0.00    +0.000 C 
ATOM     10  N   UNL     1       1.655   9.370  17.493  0.00  0.00    +0.000 NA
ATOM     11  O   UNL     1       2.463   8.311  17.097  0.00  0.00    +0.000 OA
ENDROOT
BRANCH   1  20
ATOM     12  C   UNL     1       4.995   1.144  20.681  0.00  0.00    +0.000 C 
ATOM     13  C   UNL     1       4.287   2.399  20.249  0.00  0.00    +0.000 C 
ATOM     14  O   UNL     1       3.182   2.672  20.702  0.00  0.00    +0.000 OA
ATOM     15  N   UNL     1       5.012   3.125  19.329  0.00  0.00    +0.000 N 
ATOM     16  C   UNL     1       4.619   4.323  18.782  0.00  0.00    +0.000 A 
ATOM     17  N   UNL     1       5.156   4.790  17.684  0.00  0.00    +0.000 NA
ATOM     18  C   UNL     1       4.541   5.987  17.333  0.00  0.00    +0.000 A 
ATOM     19  C   UNL     1       4.936   6.638  16.055  0.00  0.00    +0.000 C 
ATOM     20  C   UNL     1       3.608   6.450  18.255  0.00  0.00    +0.000 A 
ATOM     21  S   UNL     1       3.470   5.325  19.533  0.00  0.00    +0.000 S 
ATOM     22  H   UNL     1       5.794   2.697  18.849  0.00  0.00    +0.000 HD
ENDBRANCH   1  20
BRANCH   8  23
ATOM     23  O   UNL     1       0.138  10.051  23.322  0.00  0.00    +0.000 OA
ATOM     24  H   UNL     1       1.097   9.988  23.474  0.00  0.00    +0.000 HD
ENDBRANCH   8  23
TORSDOF 2
ENDMDL
MODEL 7
REMARK VINA RESULT:      -6.6      4.142      5.085
REMARK  Name = 
REMARK  4 active torsions:
REMARK  status: ('A' for Active; 'I' for Inactive)
REMARK    1  A    between atoms: C_1  and  C_2
REMARK    2  A    between atoms: C_7  and  C_8
REMARK    3  A    between atoms: C_9  and  C_10
REMARK    4  A    between atoms: C_17  and  O_18
REMARK                            x       y       z     vdW  Elec       q    Type
REMARK                         _______ _______ _______ _____ _____    ______ ____
ROOT
ATOM      1  C   UNL     1       1.585   8.034  20.293  0.00  0.00    +0.000 A 
ATOM      2  N   UNL     1       0.905   9.012  19.737  0.00  0.00    +0.000 NA
ATOM      3  C   UNL     1       0.592   9.824  20.792  0.00  0.00    +0.000 A 
ATOM      4  N   UNL     1      -0.027  11.002  20.546  0.00  0.00    +0.000 N 
ATOM      5  C   UNL     1      -0.304  11.948  21.616  0.00  0.00    +0.000 C 
ATOM      6  C   UNL     1       0.134  13.346  21.173  0.00  0.00    +0.000 C 
ATOM      7  C   UNL     1      -0.513  13.739  19.846  0.00  0.00    +0.000 C 
ATOM      8  C   UNL     1      -0.264  12.683  18.766  0.00  0.00    +0.000 C 
ATOM      9  C   UNL     1      -0.654  11.278  19.259  0.00  0.00    +0.000 C 
ATOM     10  N   UNL     1       1.007   9.355  21.974  0.00  0.00    +0.000 NA
ATOM     11  O   UNL     1       1.654   8.168  21.654  0.00  0.00    +0.000 OA
ENDROOT
BRANCH   1  20
ATOM     12  C   UNL     1       3.656   1.236  18.693  0.00  0.00    +0.000 C 
ATOM     13  C   UNL     1       2.974   2.516  19.090  0.00  0.00    +0.000 C 
ATOM     14  O   UNL     1       1.992   2.491  19.822  0.00  0.00    +0.000 OA
ATOM     15  N   UNL     1       3.569   3.627  18.534  0.00  0.00    +0.000 N 
ATOM     16  C   UNL     1       3.170   4.925  18.745  0.00  0.00    +0.000 A 
ATOM     17  N   UNL     1       3.530   5.897  17.946  0.00  0.00    +0.000 NA
ATOM     18  C   UNL     1       2.949   7.089  18.365  0.00  0.00    +0.000 A 
ATOM     19  C   UNL     1       3.151   8.306  17.533  0.00  0.00    +0.000 C 
ATOM     20  C   UNL     1       2.236   6.998  19.555  0.00  0.00    +0.000 A 
ATOM     21  S   UNL     1       2.253   5.379  20.101  0.00  0.00    +0.000 S 
ATOM     22  H   UNL     1       4.217   3.522  17.764  0.00  0.00    +0.000 HD
ENDBRANCH   1  20
BRANCH   8  23
ATOM     23  O   UNL     1      -0.994  13.031  17.589  0.00  0.00    +0.000 OA
ATOM     24  H   UNL     1      -1.139  12.220  17.072  0.00  0.00    +0.000 HD
ENDBRANCH   8  23
TORSDOF 2
ENDMDL
MODEL 8
REMARK VINA RESULT:      -6.5      2.572      4.218
REMARK  Name = 
REMARK  4 active torsions:
REMARK  status: ('A' for Active; 'I' for Inactive)
REMARK    1  A    between atoms: C_1  and  C_2
REMARK    2  A    between atoms: C_7  and  C_8
REMARK    3  A    between atoms: C_9  and  C_10
REMARK    4  A    between atoms: C_17  and  O_18
REMARK                            x       y       z     vdW  Elec       q    Type
REMARK                         _______ _______ _______ _____ _____    ______ ____
ROOT
ATOM      1  C   UNL     1       2.220   8.301  18.534  0.00  0.00    +0.000 A 
ATOM      2  N   UNL     1       1.892   8.626  19.765  0.00  0.00    +0.000 NA
ATOM      3  C   UNL     1       1.230   9.814  19.617  0.00  0.00    +0.000 A 
ATOM      4  N   UNL     1       0.655  10.378  20.703  0.00  0.00    +0.000 N 
ATOM      5  C   UNL     1      -0.139  11.593  20.593  0.00  0.00    +0.000 C 
ATOM      6  C   UNL     1      -1.449  11.406  21.363  0.00  0.00    +0.000 C 
ATOM      7  C   UNL     1      -1.191  10.990  22.810  0.00  0.00    +0.000 C 
ATOM      8  C   UNL     1      -0.291   9.755  22.887  0.00  0.00    +0.000 C 
ATOM      9  C   UNL     1       0.990   9.944  22.054  0.00  0.00    +0.000 C 
ATOM     10  N   UNL     1       1.188  10.252  18.353  0.00  0.00    +0.000 NA
ATOM     11  O   UNL     1       1.850   9.265  17.634  0.00  0.00    +0.000 OA
ENDROOT
BRANCH   1  20
ATOM     12  C   UNL     1       6.596   3.801  14.836  0.00  0.00    +0.000 C 
ATOM     13  C   UNL     1       5.918   4.913  15.589  0.00  0.00    +0.000 C 
ATOM     14  O   UNL     1       6.317   6.067  15.477  0.00  0.00    +0.000 OA
ATOM     15  N   UNL     1       4.876   4.465  16.370  0.00  0.00    +0.000 N 
ATOM     16  C   UNL     1       4.068   5.264  17.143  0.00  0.00    +0.000 A 
ATOM     17  N   UNL     1       3.337   4.775  18.112  0.00  0.00    +0.000 NA
ATOM     18  C   UNL     1       2.660   5.805  18.756  0.00  0.00    +0.000 A 
ATOM     19  C   UNL     1       1.846   5.476  19.957  0.00  0.00    +0.000 C 
ATOM     20  C   UNL     1       2.825   7.058  18.174  0.00  0.00    +0.000 A 
ATOM     21  S   UNL     1       3.894   6.928  16.847  0.00  0.00    +0.000 S 
ATOM     22  H   UNL     1       4.784   3.478  16.573  0.00  0.00    +0.000 HD
ENDBRANCH   1  20
BRANCH   8  23
ATOM     23  O   UNL     1       0.025   9.485  24.253  0.00  0.00    +0.000 OA
ATOM     24  H   UNL     1      -0.383  10.178  24.801  0.00  0.00    +0.000 HD
ENDBRANCH   8  23
TORSDOF 2
ENDMDL
MODEL 9
REMARK VINA RESULT:      -6.5      4.562      8.871
REMARK  Name = 
REMARK  4 active torsions:
REMARK  status: ('A' for Active; 'I' for Inactive)
REMARK    1  A    between atoms: C_1  and  C_2
REMARK    2  A    between atoms: C_7  and  C_8
REMARK    3  A    between atoms: C_9  and  C_10
REMARK    4  A    between atoms: C_17  and  O_18
REMARK                            x       y       z     vdW  Elec       q    Type
REMARK                         _______ _______ _______ _____ _____    ______ ____
ROOT
ATOM      1  C   UNL     1       0.525   9.730  19.987  0.00  0.00    +0.000 A 
ATOM      2  N   UNL     1       1.377   8.903  19.421  0.00  0.00    +0.000 NA
ATOM      3  C   UNL     1       1.433   7.853  20.295  0.00  0.00    +0.000 A 
ATOM      4  N   UNL     1       2.152   6.759  19.953  0.00  0.00    +0.000 N 
ATOM      5  C   UNL     1       2.175   5.575  20.800  0.00  0.00    +0.000 C 
ATOM      6  C   UNL     1       1.942   4.336  19.933  0.00  0.00    +0.000 C 
ATOM      7  C   UNL     1       2.941   4.265  18.780  0.00  0.00    +0.000 C 
ATOM      8  C   UNL     1       2.942   5.557  17.958  0.00  0.00    +0.000 C 
ATOM      9  C   UNL     1       3.116   6.793  18.860  0.00  0.00    +0.000 C 
ATOM     10  N   UNL     1       0.692   8.028  21.395  0.00  0.00    +0.000 NA
ATOM     11  O   UNL     1       0.099   9.270  21.205  0.00  0.00    +0.000 OA
ENDROOT
BRANCH   1  20
ATOM     12  C   UNL     1       0.168  16.874  18.609  0.00  0.00    +0.000 C 
ATOM     13  C   UNL     1       0.529  15.442  18.897  0.00  0.00    +0.000 C 
ATOM     14  O   UNL     1       1.615  15.168  19.394  0.00  0.00    +0.000 OA
ATOM     15  N   UNL     1      -0.465  14.562  18.532  0.00  0.00    +0.000 N 
ATOM     16  C   UNL     1      -0.415  13.199  18.702  0.00  0.00    +0.000 A 
ATOM     17  N   UNL     1      -1.205  12.391  18.042  0.00  0.00    +0.000 NA
ATOM     18  C   UNL     1      -0.908  11.073  18.371  0.00  0.00    +0.000 A 
ATOM     19  C   UNL     1      -1.627   9.985  17.653  0.00  0.00    +0.000 C 
ATOM     20  C   UNL     1       0.048  10.926  19.369  0.00  0.00    +0.000 A 
ATOM     21  S   UNL     1       0.614  12.469  19.840  0.00  0.00    +0.000 S 
ATOM     22  H   UNL     1      -1.212  14.867  17.920  0.00  0.00    +0.000 HD
ENDBRANCH   1  20
BRANCH   8  23
ATOM     23  O   UNL     1       3.978   5.492  16.978  0.00  0.00    +0.000 OA
ATOM     24  H   UNL     1       4.691   4.931  17.327  0.00  0.00    +0.000 HD
ENDBRANCH   8  23
TORSDOF 2
ENDMDL
