MODEL 1
REMARK VINA RESULT:      -9.6      0.000      0.000
REMARK  Name = 
REMARK  7 active torsions:
REMARK  status: ('A' for Active; 'I' for Inactive)
REMARK    1  A    between atoms: C_1  and  C_2
REMARK    2  A    between atoms: C_5  and  C_6
REMARK    3  A    between atoms: C_9  and  N_10
REMARK    4  A    between atoms: N_10  and  C_11
REMARK    5  A    between atoms: C_24  and  S_25
REMARK    6  A    between atoms: S_25  and  N_28
REMARK    7  A    between atoms: N_31  and  C_32
REMARK                            x       y       z     vdW  Elec       q    Type
REMARK                         _______ _______ _______ _____ _____    ______ ____
ROOT
ATOM      1  C   UNL     1       1.555   8.054  19.639  0.00  0.00    +0.000 A 
ATOM      2  N   UNL     1       1.841   8.391  18.359  0.00  0.00    +0.000 NA
ATOM      3  N   UNL     1       1.623   9.658  17.893  0.00  0.00    +0.000 NA
ATOM      4  C   UNL     1       1.000  10.576  18.656  0.00  0.00    +0.000 A 
ATOM      5  C   UNL     1       0.559  10.252  19.958  0.00  0.00    +0.000 A 
ATOM      6  C   UNL     1      -0.181  11.153  20.771  0.00  0.00    +0.000 A 
ATOM      7  C   UNL     1      -0.484  10.872  22.103  0.00  0.00    +0.000 A 
ATOM      8  C   UNL     1       0.011   9.720  22.681  0.00  0.00    +0.000 A 
ATOM      9  C   UNL     1       0.722   8.809  21.898  0.00  0.00    +0.000 A 
ATOM     10  C   UNL     1       0.935   8.998  20.504  0.00  0.00    +0.000 A 
ENDROOT
BRANCH   1  15
ATOM     11  C   UNL     1       2.050   2.575  19.767  0.00  0.00    +0.000 C 
ATOM     12  C   UNL     1       2.448   3.964  20.162  0.00  0.00    +0.000 A 
ATOM     13  C   UNL     1       1.604   4.612  21.069  0.00  0.00    +0.000 A 
ATOM     14  C   UNL     1       1.445   5.988  21.006  0.00  0.00    +0.000 A 
ATOM     15  C   UNL     1       2.140   6.745  20.053  0.00  0.00    +0.000 A 
ATOM     16  C   UNL     1       3.253   6.130  19.445  0.00  0.00    +0.000 A 
ATOM     17  C   UNL     1       3.412   4.726  19.484  0.00  0.00    +0.000 A 
BRANCH  17  18
ATOM     18  S   UNL     1       4.645   3.977  18.392  0.00  0.00    +0.000 S 
ATOM     19  O   UNL     1       5.564   3.243  19.241  0.00  0.00    +0.000 OA
ATOM     20  O   UNL     1       3.881   3.273  17.376  0.00  0.00    +0.000 OA
BRANCH  18  21
ATOM     21  N   UNL     1       5.471   5.199  17.613  0.00  0.00    +0.000 NA
ATOM     22  C   UNL     1       4.854   6.086  16.616  0.00  0.00    +0.000 C 
ATOM     23  C   UNL     1       5.434   5.882  15.193  0.00  0.00    +0.000 C 
ATOM     24  N   UNL     1       6.862   5.530  15.054  0.00  0.00    +0.000 NA
ATOM     25  C   UNL     1       7.070   4.751  13.825  0.00  0.00    +0.000 C 
ATOM     26  C   UNL     1       7.431   4.794  16.199  0.00  0.00    +0.000 C 
ATOM     27  C   UNL     1       6.935   5.258  17.570  0.00  0.00    +0.000 C 
ENDBRANCH  18  21
ENDBRANCH  17  18
ENDBRANCH   1  15
BRANCH   4  28
ATOM     28  N   UNL     1       0.869  11.892  18.168  0.00  0.00    +0.000 N 
ATOM     29  H   UNL     1       0.402  11.935  17.270  0.00  0.00    +0.000 HD
BRANCH  28  30
ATOM     30  C   UNL     1       1.642  13.023  18.487  0.00  0.00    +0.000 A 
ATOM     31  C   UNL     1       2.997  13.069  18.130  0.00  0.00    +0.000 A 
ATOM     32  C   UNL     1       3.764  14.215  18.363  0.00  0.00    +0.000 A 
ATOM     33  C   UNL     1       3.185  15.333  18.956  0.00  0.00    +0.000 A 
ATOM     34  C   UNL     1       1.852  15.287  19.360  0.00  0.00    +0.000 A 
ATOM     35  C   UNL     1       1.094  14.135  19.143  0.00  0.00    +0.000 A 
ENDBRANCH  28  30
ENDBRANCH   4  28
TORSDOF 5
ENDMDL
MODEL 2
REMARK VINA RESULT:      -9.3      5.442     10.374
REMARK  Name = 
REMARK  7 active torsions:
REMARK  status: ('A' for Active; 'I' for Inactive)
REMARK    1  A    between atoms: C_1  and  C_2
REMARK    2  A    between atoms: C_5  and  C_6
REMARK    3  A    between atoms: C_9  and  N_10
REMARK    4  A    between atoms: N_10  and  C_11
REMARK    5  A    between atoms: C_24  and  S_25
REMARK    6  A    between atoms: S_25  and  N_28
REMARK    7  A    between atoms: N_31  and  C_32
REMARK                            x       y       z     vdW  Elec       q    Type
REMARK                         _______ _______ _______ _____ _____    ______ ____
ROOT
ATOM      1  C   UNL     1      -0.543  10.464  19.185  0.00  0.00    +0.000 A 
ATOM      2  N   UNL     1       0.144   9.969  18.128  0.00  0.00    +0.000 NA
ATOM      3  N   UNL     1       1.101   9.006  18.290  0.00  0.00    +0.000 NA
ATOM      4  C   UNL     1       1.478   8.608  19.520  0.00  0.00    +0.000 A 
ATOM      5  C   UNL     1       0.892   9.177  20.673  0.00  0.00    +0.000 A 
ATOM      6  C   UNL     1       1.315   8.861  21.992  0.00  0.00    +0.000 A 
ATOM      7  C   UNL     1       0.632   9.319  23.120  0.00  0.00    +0.000 A 
ATOM      8  C   UNL     1      -0.533  10.040  22.958  0.00  0.00    +0.000 A 
ATOM      9  C   UNL     1      -0.958  10.382  21.673  0.00  0.00    +0.000 A 
ATOM     10  C   UNL     1      -0.216  10.047  20.505  0.00  0.00    +0.000 A 
ENDROOT
BRANCH   1  15
ATOM     11  C   UNL     1      -5.895  11.420  18.336  0.00  0.00    +0.000 C 
ATOM     12  C   UNL     1      -4.449  11.814  18.342  0.00  0.00    +0.000 A 
ATOM     13  C   UNL     1      -3.662  11.282  17.316  0.00  0.00    +0.000 A 
ATOM     14  C   UNL     1      -2.324  10.999  17.545  0.00  0.00    +0.000 A 
ATOM     15  C   UNL     1      -1.742  11.260  18.794  0.00  0.00    +0.000 A 
ATOM     16  C   UNL     1      -2.437  12.143  19.644  0.00  0.00    +0.000 A 
ATOM     17  C   UNL     1      -3.806  12.421  19.432  0.00  0.00    +0.000 A 
BRANCH  17  18
ATOM     18  S   UNL     1      -4.720  13.262  20.749  0.00  0.00    +0.000 S 
ATOM     19  O   UNL     1      -5.516  14.293  20.111  0.00  0.00    +0.000 OA
ATOM     20  O   UNL     1      -5.375  12.203  21.498  0.00  0.00    +0.000 OA
BRANCH  18  21
ATOM     21  N   UNL     1      -3.621  13.974  21.781  0.00  0.00    +0.000 NA
ATOM     22  C   UNL     1      -3.353  13.485  23.142  0.00  0.00    +0.000 C 
ATOM     23  C   UNL     1      -3.810  14.482  24.237  0.00  0.00    +0.000 C 
ATOM     24  N   UNL     1      -3.710  15.930  23.963  0.00  0.00    +0.000 NA
ATOM     25  C   UNL     1      -4.736  16.658  24.724  0.00  0.00    +0.000 C 
ATOM     26  C   UNL     1      -3.811  16.297  22.537  0.00  0.00    +0.000 C 
ATOM     27  C   UNL     1      -3.112  15.334  21.575  0.00  0.00    +0.000 C 
ENDBRANCH  18  21
ENDBRANCH  17  18
ENDBRANCH   1  15
BRANCH   4  28
ATOM     28  N   UNL     1       2.408   7.556  19.642  0.00  0.00    +0.000 N 
ATOM     29  H   UNL     1       3.364   7.854  19.485  0.00  0.00    +0.000 HD
BRANCH  28  30
ATOM     30  C   UNL     1       2.189   6.175  19.492  0.00  0.00    +0.000 A 
ATOM     31  C   UNL     1       1.768   5.410  20.589  0.00  0.00    +0.000 A 
ATOM     32  C   UNL     1       1.465   4.052  20.445  0.00  0.00    +0.000 A 
ATOM     33  C   UNL     1       1.578   3.440  19.200  0.00  0.00    +0.000 A 
ATOM     34  C   UNL     1       2.041   4.175  18.110  0.00  0.00    +0.000 A 
ATOM     35  C   UNL     1       2.361   5.526  18.262  0.00  0.00    +0.000 A 
ENDBRANCH  28  30
ENDBRANCH   4  28
TORSDOF 5
ENDMDL
MODEL 3
REMARK VINA RESULT:      -9.2      0.736      1.165
REMARK  Name = 
REMARK  7 active torsions:
REMARK  status: ('A' for Active; 'I' for Inactive)
REMARK    1  A    between atoms: C_1  and  C_2
REMARK    2  A    between atoms: C_5  and  C_6
REMARK    3  A    between atoms: C_9  and  N_10
REMARK    4  A    between atoms: N_10  and  C_11
REMARK    5  A    between atoms: C_24  and  S_25
REMARK    6  A    between atoms: S_25  and  N_28
REMARK    7  A    between atoms: N_31  and  C_32
REMARK                            x       y       z     vdW  Elec       q    Type
REMARK                         _______ _______ _______ _____ _____    ______ ____
ROOT
ATOM      1  C   UNL     1       1.576   8.054  19.629  0.00  0.00    +0.000 A 
ATOM      2  N   UNL     1       1.758   8.424  18.339  0.00  0.00    +0.000 NA
ATOM      3  N   UNL     1       1.437   9.682  17.909  0.00  0.00    +0.000 NA
ATOM      4  C   UNL     1       0.814  10.552  18.727  0.00  0.00    +0.000 A 
ATOM      5  C   UNL     1       0.478  10.185  20.049  0.00  0.00    +0.000 A 
ATOM      6  C   UNL     1      -0.258  11.030  20.923  0.00  0.00    +0.000 A 
ATOM      7  C   UNL     1      -0.455  10.714  22.268  0.00  0.00    +0.000 A 
ATOM      8  C   UNL     1       0.142   9.586  22.792  0.00  0.00    +0.000 A 
ATOM      9  C   UNL     1       0.852   8.728  21.950  0.00  0.00    +0.000 A 
ATOM     10  C   UNL     1       0.962   8.948  20.548  0.00  0.00    +0.000 A 
ENDROOT
BRANCH   1  15
ATOM     11  C   UNL     1       3.200   2.845  18.909  0.00  0.00    +0.000 C 
ATOM     12  C   UNL     1       3.123   4.129  19.678  0.00  0.00    +0.000 A 
ATOM     13  C   UNL     1       1.901   4.402  20.299  0.00  0.00    +0.000 A 
ATOM     14  C   UNL     1       1.471   5.712  20.439  0.00  0.00    +0.000 A 
ATOM     15  C   UNL     1       2.262   6.776  19.981  0.00  0.00    +0.000 A 
ATOM     16  C   UNL     1       3.621   6.496  19.738  0.00  0.00    +0.000 A 
ATOM     17  C   UNL     1       4.065   5.164  19.573  0.00  0.00    +0.000 A 
BRANCH  17  18
ATOM     18  S   UNL     1       5.728   4.896  18.911  0.00  0.00    +0.000 S 
ATOM     19  O   UNL     1       6.658   5.390  19.909  0.00  0.00    +0.000 OA
ATOM     20  O   UNL     1       5.764   3.497  18.519  0.00  0.00    +0.000 OA
BRANCH  18  21
ATOM     21  N   UNL     1       5.891   5.792  17.514  0.00  0.00    +0.000 NA
ATOM     22  C   UNL     1       4.788   6.029  16.571  0.00  0.00    +0.000 C 
ATOM     23  C   UNL     1       5.015   5.344  15.200  0.00  0.00    +0.000 C 
ATOM     24  N   UNL     1       6.394   5.239  14.679  0.00  0.00    +0.000 NA
ATOM     25  C   UNL     1       6.515   4.060  13.811  0.00  0.00    +0.000 C 
ATOM     26  C   UNL     1       7.443   5.190  15.716  0.00  0.00    +0.000 C 
ATOM     27  C   UNL     1       7.197   6.099  16.922  0.00  0.00    +0.000 C 
ENDBRANCH  18  21
ENDBRANCH  17  18
ENDBRANCH   1  15
BRANCH   4  28
ATOM     28  N   UNL     1       0.575  11.864  18.271  0.00  0.00    +0.000 N 
ATOM     29  H   UNL     1      -0.030  11.896  17.459  0.00  0.00    +0.000 HD
BRANCH  28  30
ATOM     30  C   UNL     1       1.362  13.013  18.466  0.00  0.00    +0.000 A 
ATOM     31  C   UNL     1       0.780  14.185  18.967  0.00  0.00    +0.000 A 
ATOM     32  C   UNL     1       1.558  15.314  19.246  0.00  0.00    +0.000 A 
ATOM     33  C   UNL     1       2.932  15.285  19.027  0.00  0.00    +0.000 A 
ATOM     34  C   UNL     1       3.520  14.144  18.484  0.00  0.00    +0.000 A 
ATOM     35  C   UNL     1       2.737  13.026  18.189  0.00  0.00    +0.000 A 
ENDBRANCH  28  30
ENDBRANCH   4  28
TORSDOF 5
ENDMDL
MODEL 4
REMARK VINA RESULT:      -9.1      1.085      1.503
REMARK  Name = 
REMARK  7 active torsions:
REMARK  status: ('A' for Active; 'I' for Inactive)
REMARK    1  A    between atoms: C_1  and  C_2
REMARK    2  A    between atoms: C_5  and  C_6
REMARK    3  A    between atoms: C_9  and  N_10
REMARK    4  A    between atoms: N_10  and  C_11
REMARK    5  A    between atoms: C_24  and  S_25
REMARK    6  A    between atoms: S_25  and  N_28
REMARK    7  A    between atoms: N_31  and  C_32
REMARK                            x       y       z     vdW  Elec       q    Type
REMARK                         _______ _______ _______ _____ _____    ______ ____
ROOT
ATOM      1  C   UNL     1       1.716   8.060  19.373  0.00  0.00    +0.000 A 
ATOM      2  N   UNL     1       1.917   8.494  18.106  0.00  0.00    +0.000 NA
ATOM      3  N   UNL     1       1.623   9.779  17.741  0.00  0.00    +0.000 NA
ATOM      4  C   UNL     1       1.009  10.617  18.598  0.00  0.00    +0.000 A 
ATOM      5  C   UNL     1       0.655  10.187  19.896  0.00  0.00    +0.000 A 
ATOM      6  C   UNL     1      -0.074  10.998  20.808  0.00  0.00    +0.000 A 
ATOM      7  C   UNL     1      -0.290  10.616  22.132  0.00  0.00    +0.000 A 
ATOM      8  C   UNL     1       0.281   9.450  22.601  0.00  0.00    +0.000 A 
ATOM      9  C   UNL     1       0.982   8.625  21.720  0.00  0.00    +0.000 A 
ATOM     10  C   UNL     1       1.110   8.916  20.333  0.00  0.00    +0.000 A 
ENDROOT
BRANCH   1  15
ATOM     11  C   UNL     1       2.166   2.578  19.546  0.00  0.00    +0.000 C 
ATOM     12  C   UNL     1       2.669   3.970  19.779  0.00  0.00    +0.000 A 
ATOM     13  C   UNL     1       2.097   4.660  20.852  0.00  0.00    +0.000 A 
ATOM     14  C   UNL     1       1.942   6.036  20.788  0.00  0.00    +0.000 A 
ATOM     15  C   UNL     1       2.374   6.752  19.663  0.00  0.00    +0.000 A 
ATOM     16  C   UNL     1       3.283   6.099  18.807  0.00  0.00    +0.000 A 
ATOM     17  C   UNL     1       3.432   4.694  18.850  0.00  0.00    +0.000 A 
BRANCH  17  18
ATOM     18  S   UNL     1       4.330   3.891  17.499  0.00  0.00    +0.000 S 
ATOM     19  O   UNL     1       4.070   2.468  17.614  0.00  0.00    +0.000 OA
ATOM     20  O   UNL     1       3.935   4.604  16.297  0.00  0.00    +0.000 OA
BRANCH  18  21
ATOM     21  N   UNL     1       5.961   4.171  17.711  0.00  0.00    +0.000 NA
ATOM     22  C   UNL     1       6.549   4.602  18.988  0.00  0.00    +0.000 C 
ATOM     23  C   UNL     1       7.132   6.036  18.925  0.00  0.00    +0.000 C 
ATOM     24  N   UNL     1       7.742   6.499  17.662  0.00  0.00    +0.000 NA
ATOM     25  C   UNL     1       7.614   7.959  17.546  0.00  0.00    +0.000 C 
ATOM     26  C   UNL     1       7.199   5.865  16.445  0.00  0.00    +0.000 C 
ATOM     27  C   UNL     1       6.878   4.375  16.586  0.00  0.00    +0.000 C 
ENDBRANCH  18  21
ENDBRANCH  17  18
ENDBRANCH   1  15
BRANCH   4  28
ATOM     28  N   UNL     1       0.800  11.955  18.211  0.00  0.00    +0.000 N 
ATOM     29  H   UNL     1       0.241  12.040  17.370  0.00  0.00    +0.000 HD
BRANCH  28  30
ATOM     30  C   UNL     1       1.577  13.086  18.519  0.00  0.00    +0.000 A 
ATOM     31  C   UNL     1       2.922  13.139  18.129  0.00  0.00    +0.000 A 
ATOM     32  C   UNL     1       3.691  14.286  18.352  0.00  0.00    +0.000 A 
ATOM     33  C   UNL     1       3.125  15.397  18.968  0.00  0.00    +0.000 A 
ATOM     34  C   UNL     1       1.803  15.344  19.405  0.00  0.00    +0.000 A 
ATOM     35  C   UNL     1       1.043  14.191  19.198  0.00  0.00    +0.000 A 
ENDBRANCH  28  30
ENDBRANCH   4  28
TORSDOF 5
ENDMDL
MODEL 5
REMARK VINA RESULT:      -9.1      3.324      8.949
REMARK  Name = 
REMARK  7 active torsions:
REMARK  status: ('A' for Active; 'I' for Inactive)
REMARK    1  A    between atoms: C_1  and  C_2
REMARK    2  A    between atoms: C_5  and  C_6
REMARK    3  A    between atoms: C_9  and  N_10
REMARK    4  A    between atoms: N_10  and  C_11
REMARK    5  A    between atoms: C_24  and  S_25
REMARK    6  A    between atoms: S_25  and  N_28
REMARK    7  A    between atoms: N_31  and  C_32
REMARK                            x       y       z     vdW  Elec       q    Type
REMARK                         _______ _______ _______ _____ _____    ______ ____
ROOT
ATOM      1  C   UNL     1       3.412   6.888  18.014  0.00  0.00    +0.000 A 
ATOM      2  N   UNL     1       4.644   7.227  17.565  0.00  0.00    +0.000 NA
ATOM      3  N   UNL     1       5.435   6.323  16.912  0.00  0.00    +0.000 NA
ATOM      4  C   UNL     1       5.065   5.033  16.804  0.00  0.00    +0.000 A 
ATOM      5  C   UNL     1       3.848   4.583  17.364  0.00  0.00    +0.000 A 
ATOM      6  C   UNL     1       3.452   3.218  17.359  0.00  0.00    +0.000 A 
ATOM      7  C   UNL     1       2.187   2.812  17.785  0.00  0.00    +0.000 A 
ATOM      8  C   UNL     1       1.259   3.765  18.154  0.00  0.00    +0.000 A 
ATOM      9  C   UNL     1       1.631   5.110  18.188  0.00  0.00    +0.000 A 
ATOM     10  C   UNL     1       2.951   5.549  17.889  0.00  0.00    +0.000 A 
ENDROOT
BRANCH   1  15
ATOM     11  C   UNL     1      -1.232   9.682  18.969  0.00  0.00    +0.000 C 
ATOM     12  C   UNL     1       0.260   9.541  18.920  0.00  0.00    +0.000 A 
ATOM     13  C   UNL     1       0.838   9.559  17.648  0.00  0.00    +0.000 A 
ATOM     14  C   UNL     1       1.983   8.818  17.396  0.00  0.00    +0.000 A 
ATOM     15  C   UNL     1       2.583   8.062  18.413  0.00  0.00    +0.000 A 
ATOM     16  C   UNL     1       2.219   8.381  19.738  0.00  0.00    +0.000 A 
ATOM     17  C   UNL     1       1.043   9.117  20.005  0.00  0.00    +0.000 A 
BRANCH  17  18
ATOM     18  S   UNL     1       0.446   9.179  21.712  0.00  0.00    +0.000 S 
ATOM     19  O   UNL     1      -0.796   8.430  21.747  0.00  0.00    +0.000 OA
ATOM     20  O   UNL     1       1.570   8.753  22.528  0.00  0.00    +0.000 OA
BRANCH  18  21
ATOM     21  N   UNL     1       0.140  10.771  22.106  0.00  0.00    +0.000 NA
ATOM     22  C   UNL     1      -0.963  11.191  22.983  0.00  0.00    +0.000 C 
ATOM     23  C   UNL     1      -2.045  12.009  22.234  0.00  0.00    +0.000 C 
ATOM     24  N   UNL     1      -1.625  12.901  21.134  0.00  0.00    +0.000 NA
ATOM     25  C   UNL     1      -2.715  13.043  20.158  0.00  0.00    +0.000 C 
ATOM     26  C   UNL     1      -0.396  12.480  20.433  0.00  0.00    +0.000 C 
ATOM     27  C   UNL     1       0.690  11.892  21.338  0.00  0.00    +0.000 C 
ENDBRANCH  18  21
ENDBRANCH  17  18
ENDBRANCH   1  15
BRANCH   4  28
ATOM     28  N   UNL     1       5.869   4.153  16.053  0.00  0.00    +0.000 N 
ATOM     29  H   UNL     1       6.520   3.627  16.625  0.00  0.00    +0.000 HD
BRANCH  28  30
ATOM     30  C   UNL     1       6.208   4.227  14.690  0.00  0.00    +0.000 A 
ATOM     31  C   UNL     1       7.306   4.996  14.282  0.00  0.00    +0.000 A 
ATOM     32  C   UNL     1       7.712   5.019  12.944  0.00  0.00    +0.000 A 
ATOM     33  C   UNL     1       7.023   4.272  11.993  0.00  0.00    +0.000 A 
ATOM     34  C   UNL     1       5.900   3.540  12.373  0.00  0.00    +0.000 A 
ATOM     35  C   UNL     1       5.487   3.534  13.707  0.00  0.00    +0.000 A 
ENDBRANCH  28  30
ENDBRANCH   4  28
TORSDOF 5
ENDMDL
MODEL 6
REMARK VINA RESULT:      -9.1      5.004      9.626
REMARK  Name = 
REMARK  7 active torsions:
REMARK  status: ('A' for Active; 'I' for Inactive)
REMARK    1  A    between atoms: C_1  and  C_2
REMARK    2  A    between atoms: C_5  and  C_6
REMARK    3  A    between atoms: C_9  and  N_10
REMARK    4  A    between atoms: N_10  and  C_11
REMARK    5  A    between atoms: C_24  and  S_25
REMARK    6  A    between atoms: S_25  and  N_28
REMARK    7  A    between atoms: N_31  and  C_32
REMARK                            x       y       z     vdW  Elec       q    Type
REMARK                         _______ _______ _______ _____ _____    ______ ____
ROOT
ATOM      1  C   UNL     1      -0.534  10.506  19.252  0.00  0.00    +0.000 A 
ATOM      2  N   UNL     1       0.117  10.042  18.158  0.00  0.00    +0.000 NA
ATOM      3  N   UNL     1       1.079   9.076  18.262  0.00  0.00    +0.000 NA
ATOM      4  C   UNL     1       1.497   8.645  19.468  0.00  0.00    +0.000 A 
ATOM      5  C   UNL     1       0.950   9.181  20.655  0.00  0.00    +0.000 A 
ATOM      6  C   UNL     1       1.417   8.829  21.950  0.00  0.00    +0.000 A 
ATOM      7  C   UNL     1       0.772   9.256  23.111  0.00  0.00    +0.000 A 
ATOM      8  C   UNL     1      -0.398   9.980  23.009  0.00  0.00    +0.000 A 
ATOM      9  C   UNL     1      -0.865  10.357  21.749  0.00  0.00    +0.000 A 
ATOM     10  C   UNL     1      -0.163  10.054  20.548  0.00  0.00    +0.000 A 
ENDROOT
BRANCH   1  15
ATOM     11  C   UNL     1      -5.914  11.492  18.649  0.00  0.00    +0.000 C 
ATOM     12  C   UNL     1      -4.468  11.882  18.596  0.00  0.00    +0.000 A 
ATOM     13  C   UNL     1      -3.729  11.359  17.531  0.00  0.00    +0.000 A 
ATOM     14  C   UNL     1      -2.383  11.068  17.698  0.00  0.00    +0.000 A 
ATOM     15  C   UNL     1      -1.746  11.312  18.923  0.00  0.00    +0.000 A 
ATOM     16  C   UNL     1      -2.399  12.187  19.813  0.00  0.00    +0.000 A 
ATOM     17  C   UNL     1      -3.776  12.473  19.664  0.00  0.00    +0.000 A 
BRANCH  17  18
ATOM     18  S   UNL     1      -4.627  13.301  21.030  0.00  0.00    +0.000 S 
ATOM     19  O   UNL     1      -5.727  14.045  20.445  0.00  0.00    +0.000 OA
ATOM     20  O   UNL     1      -4.898  12.256  22.003  0.00  0.00    +0.000 OA
BRANCH  18  21
ATOM     21  N   UNL     1      -3.562  14.364  21.748  0.00  0.00    +0.000 NA
ATOM     22  C   UNL     1      -2.879  15.442  21.019  0.00  0.00    +0.000 C 
ATOM     23  C   UNL     1      -1.347  15.227  20.928  0.00  0.00    +0.000 C 
ATOM     24  N   UNL     1      -0.654  14.576  22.058  0.00  0.00    +0.000 NA
ATOM     25  C   UNL     1       0.541  13.869  21.576  0.00  0.00    +0.000 C 
ATOM     26  C   UNL     1      -1.489  13.642  22.839  0.00  0.00    +0.000 C 
ATOM     27  C   UNL     1      -2.936  14.095  23.047  0.00  0.00    +0.000 C 
ENDBRANCH  18  21
ENDBRANCH  17  18
ENDBRANCH   1  15
BRANCH   4  28
ATOM     28  N   UNL     1       2.430   7.591  19.529  0.00  0.00    +0.000 N 
ATOM     29  H   UNL     1       3.373   7.885  19.302  0.00  0.00    +0.000 HD
BRANCH  28  30
ATOM     30  C   UNL     1       2.197   6.209  19.406  0.00  0.00    +0.000 A 
ATOM     31  C   UNL     1       1.833   5.457  20.531  0.00  0.00    +0.000 A 
ATOM     32  C   UNL     1       1.517   4.099  20.418  0.00  0.00    +0.000 A 
ATOM     33  C   UNL     1       1.560   3.474  19.175  0.00  0.00    +0.000 A 
ATOM     34  C   UNL     1       1.966   4.196  18.054  0.00  0.00    +0.000 A 
ATOM     35  C   UNL     1       2.300   5.547  18.174  0.00  0.00    +0.000 A 
ENDBRANCH  28  30
ENDBRANCH   4  28
TORSDOF 5
ENDMDL
MODEL 7
REMARK VINA RESULT:      -8.8      5.388     10.176
REMARK  Name = 
REMARK  7 active torsions:
REMARK  status: ('A' for Active; 'I' for Inactive)
REMARK    1  A    between atoms: C_1  and  C_2
REMARK    2  A    between atoms: C_5  and  C_6
REMARK    3  A    between atoms: C_9  and  N_10
REMARK    4  A    between atoms: N_10  and  C_11
REMARK    5  A    between atoms: C_24  and  S_25
REMARK    6  A    between atoms: S_25  and  N_28
REMARK    7  A    between atoms: N_31  and  C_32
REMARK                            x       y       z     vdW  Elec       q    Type
REMARK                         _______ _______ _______ _____ _____    ______ ____
ROOT
ATOM      1  C   UNL     1      -0.497  10.306  19.050  0.00  0.00    +0.000 A 
ATOM      2  N   UNL     1       0.226   9.804  18.021  0.00  0.00    +0.000 NA
ATOM      3  N   UNL     1       1.214   8.882  18.230  0.00  0.00    +0.000 NA
ATOM      4  C   UNL     1       1.583   8.537  19.479  0.00  0.00    +0.000 A 
ATOM      5  C   UNL     1       0.956   9.120  20.603  0.00  0.00    +0.000 A 
ATOM      6  C   UNL     1       1.367   8.862  21.938  0.00  0.00    +0.000 A 
ATOM      7  C   UNL     1       0.648   9.330  23.039  0.00  0.00    +0.000 A 
ATOM      8  C   UNL     1      -0.539  10.003  22.835  0.00  0.00    +0.000 A 
ATOM      9  C   UNL     1      -0.953  10.289  21.532  0.00  0.00    +0.000 A 
ATOM     10  C   UNL     1      -0.179   9.944  20.389  0.00  0.00    +0.000 A 
ENDROOT
BRANCH   1  15
ATOM     11  C   UNL     1      -5.875  11.081  18.182  0.00  0.00    +0.000 C 
ATOM     12  C   UNL     1      -4.438  11.507  18.147  0.00  0.00    +0.000 A 
ATOM     13  C   UNL     1      -3.647  10.920  17.155  0.00  0.00    +0.000 A 
ATOM     14  C   UNL     1      -2.301  10.683  17.392  0.00  0.00    +0.000 A 
ATOM     15  C   UNL     1      -1.717  11.046  18.614  0.00  0.00    +0.000 A 
ATOM     16  C   UNL     1      -2.425  11.972  19.405  0.00  0.00    +0.000 A 
ATOM     17  C   UNL     1      -3.802  12.204  19.185  0.00  0.00    +0.000 A 
BRANCH  17  18
ATOM     18  S   UNL     1      -4.725  13.116  20.446  0.00  0.00    +0.000 S 
ATOM     19  O   UNL     1      -5.575  14.058  19.742  0.00  0.00    +0.000 OA
ATOM     20  O   UNL     1      -5.322  12.099  21.296  0.00  0.00    +0.000 OA
BRANCH  18  21
ATOM     21  N   UNL     1      -3.637  13.956  21.391  0.00  0.00    +0.000 NA
ATOM     22  C   UNL     1      -3.177  13.487  22.706  0.00  0.00    +0.000 C 
ATOM     23  C   UNL     1      -3.655  14.395  23.867  0.00  0.00    +0.000 C 
ATOM     24  N   UNL     1      -3.779  15.847  23.627  0.00  0.00    +0.000 NA
ATOM     25  C   UNL     1      -4.815  16.415  24.502  0.00  0.00    +0.000 C 
ATOM     26  C   UNL     1      -4.065  16.219  22.228  0.00  0.00    +0.000 C 
ATOM     27  C   UNL     1      -3.339  15.375  21.178  0.00  0.00    +0.000 C 
ENDBRANCH  18  21
ENDBRANCH  17  18
ENDBRANCH   1  15
BRANCH   4  28
ATOM     28  N   UNL     1       2.547   7.523  19.650  0.00  0.00    +0.000 N 
ATOM     29  H   UNL     1       3.330   7.817  20.221  0.00  0.00    +0.000 HD
BRANCH  28  30
ATOM     30  C   UNL     1       2.799   6.410  18.828  0.00  0.00    +0.000 A 
ATOM     31  C   UNL     1       3.909   6.409  17.972  0.00  0.00    +0.000 A 
ATOM     32  C   UNL     1       4.227   5.281  17.207  0.00  0.00    +0.000 A 
ATOM     33  C   UNL     1       3.437   4.138  17.288  0.00  0.00    +0.000 A 
ATOM     34  C   UNL     1       2.303   4.140  18.097  0.00  0.00    +0.000 A 
ATOM     35  C   UNL     1       1.978   5.274  18.845  0.00  0.00    +0.000 A 
ENDBRANCH  28  30
ENDBRANCH   4  28
TORSDOF 5
ENDMDL
MODEL 8
REMARK VINA RESULT:      -8.8      1.109      1.605
REMARK  Name = 
REMARK  7 active torsions:
REMARK  status: ('A' for Active; 'I' for Inactive)
REMARK    1  A    between atoms: C_1  and  C_2
REMARK    2  A    between atoms: C_5  and  C_6
REMARK    3  A    between atoms: C_9  and  N_10
REMARK    4  A    between atoms: N_10  and  C_11
REMARK    5  A    between atoms: C_24  and  S_25
REMARK    6  A    between atoms: S_25  and  N_28
REMARK    7  A    between atoms: N_31  and  C_32
REMARK                            x       y       z     vdW  Elec       q    Type
REMARK                         _______ _______ _______ _____ _____    ______ ____
ROOT
ATOM      1  C   UNL     1       1.690   8.124  19.425  0.00  0.00    +0.000 A 
ATOM      2  N   UNL     1       2.106   8.643  18.245  0.00  0.00    +0.000 NA
ATOM      3  N   UNL     1       1.975   9.976  17.970  0.00  0.00    +0.000 NA
ATOM      4  C   UNL     1       1.316  10.793  18.814  0.00  0.00    +0.000 A 
ATOM      5  C   UNL     1       0.744  10.290  20.004  0.00  0.00    +0.000 A 
ATOM      6  C   UNL     1      -0.038  11.088  20.883  0.00  0.00    +0.000 A 
ATOM      7  C   UNL     1      -0.473  10.616  22.122  0.00  0.00    +0.000 A 
ATOM      8  C   UNL     1      -0.074   9.366  22.549  0.00  0.00    +0.000 A 
ATOM      9  C   UNL     1       0.676   8.555  21.695  0.00  0.00    +0.000 A 
ATOM     10  C   UNL     1       1.025   8.950  20.372  0.00  0.00    +0.000 A 
ENDROOT
BRANCH   1  15
ATOM     11  C   UNL     1       1.389   2.635  19.695  0.00  0.00    +0.000 C 
ATOM     12  C   UNL     1       2.105   3.945  19.830  0.00  0.00    +0.000 A 
ATOM     13  C   UNL     1       1.766   4.720  20.943  0.00  0.00    +0.000 A 
ATOM     14  C   UNL     1       1.798   6.104  20.860  0.00  0.00    +0.000 A 
ATOM     15  C   UNL     1       2.189   6.739  19.672  0.00  0.00    +0.000 A 
ATOM     16  C   UNL     1       2.891   5.955  18.735  0.00  0.00    +0.000 A 
ATOM     17  C   UNL     1       2.846   4.544  18.799  0.00  0.00    +0.000 A 
BRANCH  17  18
ATOM     18  S   UNL     1       3.457   3.606  17.377  0.00  0.00    +0.000 S 
ATOM     19  O   UNL     1       4.042   2.387  17.901  0.00  0.00    +0.000 OA
ATOM     20  O   UNL     1       2.336   3.532  16.455  0.00  0.00    +0.000 OA
BRANCH  18  21
ATOM     21  N   UNL     1       4.642   4.506  16.622  0.00  0.00    +0.000 NA
ATOM     22  C   UNL     1       5.939   3.951  16.208  0.00  0.00    +0.000 C 
ATOM     23  C   UNL     1       7.127   4.544  17.007  0.00  0.00    +0.000 C 
ATOM     24  N   UNL     1       7.056   5.955  17.441  0.00  0.00    +0.000 NA
ATOM     25  C   UNL     1       7.842   6.144  18.668  0.00  0.00    +0.000 C 
ATOM     26  C   UNL     1       5.688   6.467  17.655  0.00  0.00    +0.000 C 
ATOM     27  C   UNL     1       4.652   5.972  16.644  0.00  0.00    +0.000 C 
ENDBRANCH  18  21
ENDBRANCH  17  18
ENDBRANCH   1  15
BRANCH   4  28
ATOM     28  N   UNL     1       1.275  12.173  18.534  0.00  0.00    +0.000 N 
ATOM     29  H   UNL     1       0.675  12.400  17.750  0.00  0.00    +0.000 HD
BRANCH  28  30
ATOM     30  C   UNL     1       2.230  13.157  18.849  0.00  0.00    +0.000 A 
ATOM     31  C   UNL     1       2.888  13.850  17.823  0.00  0.00    +0.000 A 
ATOM     32  C   UNL     1       3.779  14.888  18.113  0.00  0.00    +0.000 A 
ATOM     33  C   UNL     1       4.025  15.249  19.434  0.00  0.00    +0.000 A 
ATOM     34  C   UNL     1       3.416  14.539  20.467  0.00  0.00    +0.000 A 
ATOM     35  C   UNL     1       2.541  13.491  20.175  0.00  0.00    +0.000 A 
ENDBRANCH  28  30
ENDBRANCH   4  28
TORSDOF 5
ENDMDL
MODEL 9
REMARK VINA RESULT:      -8.7      5.947     10.606
REMARK  Name = 
REMARK  7 active torsions:
REMARK  status: ('A' for Active; 'I' for Inactive)
REMARK    1  A    between atoms: C_1  and  C_2
REMARK    2  A    between atoms: C_5  and  C_6
REMARK    3  A    between atoms: C_9  and  N_10
REMARK    4  A    between atoms: N_10  and  C_11
REMARK    5  A    between atoms: C_24  and  S_25
REMARK    6  A    between atoms: S_25  and  N_28
REMARK    7  A    between atoms: N_31  and  C_32
REMARK                            x       y       z     vdW  Elec       q    Type
REMARK                         _______ _______ _______ _____ _____    ______ ____
ROOT
ATOM      1  C   UNL     1      -0.576  11.343  21.453  0.00  0.00    +0.000 A 
ATOM      2  N   UNL     1       0.450  10.673  22.031  0.00  0.00    +0.000 NA
ATOM      3  N   UNL     1       1.241   9.825  21.306  0.00  0.00    +0.000 NA
ATOM      4  C   UNL     1       0.949   9.535  20.024  0.00  0.00    +0.000 A 
ATOM      5  C   UNL     1      -0.183  10.101  19.397  0.00  0.00    +0.000 A 
ATOM      6  C   UNL     1      -0.589   9.760  18.078  0.00  0.00    +0.000 A 
ATOM      7  C   UNL     1      -1.621  10.433  17.423  0.00  0.00    +0.000 A 
ATOM      8  C   UNL     1      -2.222  11.512  18.037  0.00  0.00    +0.000 A 
ATOM      9  C   UNL     1      -1.857  11.853  19.340  0.00  0.00    +0.000 A 
ATOM     10  C   UNL     1      -0.904  11.108  20.090  0.00  0.00    +0.000 A 
ENDROOT
BRANCH   1  15
ATOM     11  C   UNL     1      -3.059  16.140  22.506  0.00  0.00    +0.000 C 
ATOM     12  C   UNL     1      -2.377  14.868  22.911  0.00  0.00    +0.000 A 
ATOM     13  C   UNL     1      -0.993  14.824  22.720  0.00  0.00    +0.000 A 
ATOM     14  C   UNL     1      -0.374  13.622  22.409  0.00  0.00    +0.000 A 
ATOM     15  C   UNL     1      -1.121  12.440  22.305  0.00  0.00    +0.000 A 
ATOM     16  C   UNL     1      -2.405  12.449  22.885  0.00  0.00    +0.000 A 
ATOM     17  C   UNL     1      -3.053  13.669  23.185  0.00  0.00    +0.000 A 
BRANCH  17  18
ATOM     18  S   UNL     1      -4.818  13.622  23.583  0.00  0.00    +0.000 S 
ATOM     19  O   UNL     1      -5.078  12.321  24.171  0.00  0.00    +0.000 OA
ATOM     20  O   UNL     1      -5.070  14.828  24.354  0.00  0.00    +0.000 OA
BRANCH  18  21
ATOM     21  N   UNL     1      -5.682  13.768  22.164  0.00  0.00    +0.000 NA
ATOM     22  C   UNL     1      -7.149  13.851  22.115  0.00  0.00    +0.000 C 
ATOM     23  C   UNL     1      -7.796  12.616  21.438  0.00  0.00    +0.000 C 
ATOM     24  N   UNL     1      -7.077  11.958  20.328  0.00  0.00    +0.000 NA
ATOM     25  C   UNL     1      -7.433  10.533  20.273  0.00  0.00    +0.000 C 
ATOM     26  C   UNL     1      -5.609  12.092  20.378  0.00  0.00    +0.000 C 
ATOM     27  C   UNL     1      -5.104  13.456  20.854  0.00  0.00    +0.000 C 
ENDBRANCH  18  21
ENDBRANCH  17  18
ENDBRANCH   1  15
BRANCH   4  28
ATOM     28  N   UNL     1       1.836   8.722  19.289  0.00  0.00    +0.000 N 
ATOM     29  H   UNL     1       2.124   9.143  18.414  0.00  0.00    +0.000 HD
BRANCH  28  30
ATOM     30  C   UNL     1       2.000   7.327  19.355  0.00  0.00    +0.000 A 
ATOM     31  C   UNL     1       2.457   6.622  18.234  0.00  0.00    +0.000 A 
ATOM     32  C   UNL     1       2.706   5.247  18.301  0.00  0.00    +0.000 A 
ATOM     33  C   UNL     1       2.501   4.557  19.492  0.00  0.00    +0.000 A 
ATOM     34  C   UNL     1       2.001   5.235  20.602  0.00  0.00    +0.000 A 
ATOM     35  C   UNL     1       1.735   6.604  20.527  0.00  0.00    +0.000 A 
ENDBRANCH  28  30
ENDBRANCH   4  28
TORSDOF 5
ENDMDL
