MODEL 1
REMARK VINA RESULT:      -9.0      0.000      0.000
REMARK  Name = 
REMARK  5 active torsions:
REMARK  status: ('A' for Active; 'I' for Inactive)
REMARK    1  A    between atoms: C_1  and  C_2
REMARK    2  A    between atoms: C_16  and  C_17
REMARK    3  A    between atoms: C_21  and  C_22
REMARK    4  A    between atoms: C_25  and  C_26
REMARK    5  A    between atoms: C_26  and  N_27
REMARK                            x       y       z     vdW  Elec       q    Type
REMARK                         _______ _______ _______ _____ _____    ______ ____
ROOT
ATOM      1  C   UNL     1       2.265  14.099  17.945  0.00  0.00    +0.000 C 
ATOM      2  C   UNL     1       2.498  15.153  19.027  0.00  0.00    +0.000 C 
ATOM      3  C   UNL     1       2.428  16.549  18.335  0.00  0.00    +0.000 C 
ATOM      4  O   UNL     1       2.619  17.634  19.259  0.00  0.00    +0.000 OA
ATOM      5  C   UNL     1       1.608  17.595  20.276  0.00  0.00    +0.000 C 
ATOM      6  C   UNL     1       1.672  16.275  21.050  0.00  0.00    +0.000 C 
ATOM      7  N   UNL     1       1.494  15.153  20.112  0.00  0.00    +0.000 N 
ATOM      8  C   UNL     1       0.984  14.005  20.687  0.00  0.00    +0.000 A 
ATOM      9  N   UNL     1      -0.082  14.150  21.481  0.00  0.00    +0.000 NA
ATOM     10  C   UNL     1      -0.713  13.086  22.007  0.00  0.00    +0.000 A 
ATOM     11  N   UNL     1      -1.856  13.409  22.733  0.00  0.00    +0.000 N 
ATOM     12  C   UNL     1      -2.992  12.476  22.828  0.00  0.00    +0.000 C 
ATOM     13  C   UNL     1      -4.291  13.209  23.171  0.00  0.00    +0.000 C 
ATOM     14  O   UNL     1      -4.149  13.930  24.401  0.00  0.00    +0.000 OA
ATOM     15  C   UNL     1      -3.116  14.915  24.260  0.00  0.00    +0.000 C 
ATOM     16  C   UNL     1      -1.734  14.286  23.939  0.00  0.00    +0.000 C 
ATOM     17  C   UNL     1      -0.736  15.435  23.847  0.00  0.00    +0.000 C 
ATOM     18  C   UNL     1      -0.234  11.791  21.714  0.00  0.00    +0.000 A 
ATOM     19  C   UNL     1      -0.742  10.550  22.178  0.00  0.00    +0.000 A 
ATOM     20  C   UNL     1      -0.196   9.349  21.765  0.00  0.00    +0.000 A 
ATOM     21  C   UNL     1       0.883   9.399  20.913  0.00  0.00    +0.000 A 
ATOM     22  N   UNL     1       1.428  10.568  20.500  0.00  0.00    +0.000 NA
ATOM     23  C   UNL     1       0.885  11.732  20.879  0.00  0.00    +0.000 A 
ATOM     24  N   UNL     1       1.479  12.812  20.396  0.00  0.00    +0.000 NA
ENDROOT
BRANCH  21  25
ATOM     25  C   UNL     1       1.492   8.191  20.377  0.00  0.00    +0.000 A 
ATOM     26  C   UNL     1       2.161   7.892  19.209  0.00  0.00    +0.000 A 
ATOM     27  C   UNL     1       2.452   6.505  19.247  0.00  0.00    +0.000 A 
ATOM     28  C   UNL     1       1.946   6.034  20.440  0.00  0.00    +0.000 A 
ATOM     29  O   UNL     1       1.379   7.059  21.139  0.00  0.00    +0.000 OA
BRANCH  28  30
ATOM     30  C   UNL     1       1.853   4.673  21.049  0.00  0.00    +0.000 C 
BRANCH  30  31
ATOM     31  N   UNL     1       1.226   3.704  20.170  0.00  0.00    +0.000 N 
ATOM     32  C   UNL     1       1.915   2.915  19.328  0.00  0.00    +0.000 A 
ATOM     33  C   UNL     1       3.247   2.474  19.485  0.00  0.00    +0.000 A 
ATOM     34  C   UNL     1       3.489   1.670  18.395  0.00  0.00    +0.000 A 
ATOM     35  N   UNL     1       2.333   1.674  17.674  0.00  0.00    +0.000 N 
ATOM     36  N   UNL     1       1.367   2.427  18.217  0.00  0.00    +0.000 NA
ATOM     37  H   UNL     1       0.315   3.989  19.826  0.00  0.00    +0.000 HD
ATOM     38  H   UNL     1       2.129   1.185  16.810  0.00  0.00    +0.000 HD
ENDBRANCH  30  31
ENDBRANCH  28  30
ENDBRANCH  21  25
TORSDOF 3
ENDMDL
MODEL 2
REMARK VINA RESULT:      -8.8      1.492      4.803
REMARK  Name = 
REMARK  5 active torsions:
REMARK  status: ('A' for Active; 'I' for Inactive)
REMARK    1  A    between atoms: C_1  and  C_2
REMARK    2  A    between atoms: C_16  and  C_17
REMARK    3  A    between atoms: C_21  and  C_22
REMARK    4  A    between atoms: C_25  and  C_26
REMARK    5  A    between atoms: C_26  and  N_27
REMARK                            x       y       z     vdW  Elec       q    Type
REMARK                         _______ _______ _______ _____ _____    ______ ____
ROOT
ATOM      1  C   UNL     1      -1.544  11.232  23.113  0.00  0.00    +0.000 C 
ATOM      2  C   UNL     1      -2.523  12.272  22.572  0.00  0.00    +0.000 C 
ATOM      3  C   UNL     1      -3.171  12.982  23.800  0.00  0.00    +0.000 C 
ATOM      4  O   UNL     1      -4.110  14.002  23.419  0.00  0.00    +0.000 OA
ATOM      5  C   UNL     1      -3.452  15.002  22.629  0.00  0.00    +0.000 C 
ATOM      6  C   UNL     1      -2.858  14.383  21.360  0.00  0.00    +0.000 C 
ATOM      7  N   UNL     1      -1.905  13.325  21.736  0.00  0.00    +0.000 N 
ATOM      8  C   UNL     1      -0.923  13.081  20.796  0.00  0.00    +0.000 A 
ATOM      9  N   UNL     1      -0.293  14.146  20.292  0.00  0.00    +0.000 NA
ATOM     10  C   UNL     1       0.744  14.012  19.448  0.00  0.00    +0.000 A 
ATOM     11  N   UNL     1       1.343  15.216  19.090  0.00  0.00    +0.000 N 
ATOM     12  C   UNL     1       2.775  15.290  18.754  0.00  0.00    +0.000 C 
ATOM     13  C   UNL     1       3.321  16.708  18.937  0.00  0.00    +0.000 C 
ATOM     14  O   UNL     1       2.583  17.635  18.132  0.00  0.00    +0.000 OA
ATOM     15  C   UNL     1       1.210  17.640  18.546  0.00  0.00    +0.000 C 
ATOM     16  C   UNL     1       0.533  16.253  18.377  0.00  0.00    +0.000 C 
ATOM     17  C   UNL     1      -0.916  16.411  18.822  0.00  0.00    +0.000 C 
ATOM     18  C   UNL     1       1.170  12.715  19.086  0.00  0.00    +0.000 A 
ATOM     19  C   UNL     1       2.223  12.360  18.204  0.00  0.00    +0.000 A 
ATOM     20  C   UNL     1       2.561  11.037  17.983  0.00  0.00    +0.000 A 
ATOM     21  C   UNL     1       1.815  10.074  18.621  0.00  0.00    +0.000 A 
ATOM     22  N   UNL     1       0.767  10.379  19.421  0.00  0.00    +0.000 NA
ATOM     23  C   UNL     1       0.453  11.659  19.658  0.00  0.00    +0.000 A 
ATOM     24  N   UNL     1      -0.570  11.846  20.475  0.00  0.00    +0.000 NA
ENDROOT
BRANCH  21  25
ATOM     25  C   UNL     1       2.127   8.658  18.497  0.00  0.00    +0.000 A 
ATOM     26  C   UNL     1       2.568   7.859  17.463  0.00  0.00    +0.000 A 
ATOM     27  C   UNL     1       2.619   6.534  17.961  0.00  0.00    +0.000 A 
ATOM     28  C   UNL     1       2.209   6.596  19.276  0.00  0.00    +0.000 A 
ATOM     29  O   UNL     1       1.928   7.888  19.612  0.00  0.00    +0.000 OA
BRANCH  28  30
ATOM     30  C   UNL     1       1.968   5.560  20.326  0.00  0.00    +0.000 C 
BRANCH  30  31
ATOM     31  N   UNL     1       1.287   4.387  19.813  0.00  0.00    +0.000 N 
ATOM     32  C   UNL     1       1.912   3.400  19.149  0.00  0.00    +0.000 A 
ATOM     33  C   UNL     1       3.266   3.022  19.279  0.00  0.00    +0.000 A 
ATOM     34  C   UNL     1       3.423   1.952  18.428  0.00  0.00    +0.000 A 
ATOM     35  N   UNL     1       2.200   1.755  17.859  0.00  0.00    +0.000 N 
ATOM     36  N   UNL     1       1.270   2.626  18.277  0.00  0.00    +0.000 NA
ATOM     37  H   UNL     1       0.337   4.565  19.503  0.00  0.00    +0.000 HD
ATOM     38  H   UNL     1       1.925   1.048  17.187  0.00  0.00    +0.000 HD
ENDBRANCH  30  31
ENDBRANCH  28  30
ENDBRANCH  21  25
TORSDOF 3
ENDMDL
MODEL 3
REMARK VINA RESULT:      -8.7      2.152      2.410
REMARK  Name = 
REMARK  5 active torsions:
REMARK  status: ('A' for Active; 'I' for Inactive)
REMARK    1  A    between atoms: C_1  and  C_2
REMARK    2  A    between atoms: C_16  and  C_17
REMARK    3  A    between atoms: C_21  and  C_22
REMARK    4  A    between atoms: C_25  and  C_26
REMARK    5  A    between atoms: C_26  and  N_27
REMARK                            x       y       z     vdW  Elec       q    Type
REMARK                         _______ _______ _______ _____ _____    ______ ____
ROOT
ATOM      1  C   UNL     1       2.352  13.602  17.868  0.00  0.00    +0.000 C 
ATOM      2  C   UNL     1       2.614  14.684  18.914  0.00  0.00    +0.000 C 
ATOM      3  C   UNL     1       2.570  16.059  18.179  0.00  0.00    +0.000 C 
ATOM      4  O   UNL     1       2.790  17.169  19.065  0.00  0.00    +0.000 OA
ATOM      5  C   UNL     1       1.784  17.184  20.089  0.00  0.00    +0.000 C 
ATOM      6  C   UNL     1       1.826  15.888  20.905  0.00  0.00    +0.000 C 
ATOM      7  N   UNL     1       1.617  14.741  20.005  0.00  0.00    +0.000 N 
ATOM      8  C   UNL     1       1.087  13.623  20.619  0.00  0.00    +0.000 A 
ATOM      9  N   UNL     1       0.029  13.817  21.414  0.00  0.00    +0.000 NA
ATOM     10  C   UNL     1      -0.622  12.784  21.977  0.00  0.00    +0.000 A 
ATOM     11  N   UNL     1      -1.753  13.154  22.699  0.00  0.00    +0.000 N 
ATOM     12  C   UNL     1      -2.907  12.250  22.830  0.00  0.00    +0.000 C 
ATOM     13  C   UNL     1      -4.188  13.021  23.156  0.00  0.00    +0.000 C 
ATOM     14  O   UNL     1      -4.023  13.778  24.362  0.00  0.00    +0.000 OA
ATOM     15  C   UNL     1      -2.970  14.736  24.183  0.00  0.00    +0.000 C 
ATOM     16  C   UNL     1      -1.604  14.067  23.875  0.00  0.00    +0.000 C 
ATOM     17  C   UNL     1      -0.583  15.191  23.741  0.00  0.00    +0.000 C 
ATOM     18  C   UNL     1      -0.172  11.470  21.723  0.00  0.00    +0.000 A 
ATOM     19  C   UNL     1      -0.703  10.256  22.230  0.00  0.00    +0.000 A 
ATOM     20  C   UNL     1      -0.186   9.030  21.852  0.00  0.00    +0.000 A 
ATOM     21  C   UNL     1       0.889   9.031  20.993  0.00  0.00    +0.000 A 
ATOM     22  N   UNL     1       1.456  10.173  20.540  0.00  0.00    +0.000 NA
ATOM     23  C   UNL     1       0.941  11.361  20.884  0.00  0.00    +0.000 A 
ATOM     24  N   UNL     1       1.554  12.412  20.364  0.00  0.00    +0.000 NA
ENDROOT
BRANCH  21  25
ATOM     25  C   UNL     1       1.468   7.793  20.493  0.00  0.00    +0.000 A 
ATOM     26  C   UNL     1       1.490   6.491  20.948  0.00  0.00    +0.000 A 
ATOM     27  C   UNL     1       2.284   5.752  20.036  0.00  0.00    +0.000 A 
ATOM     28  C   UNL     1       2.702   6.644  19.072  0.00  0.00    +0.000 A 
ATOM     29  O   UNL     1       2.193   7.882  19.334  0.00  0.00    +0.000 OA
BRANCH  28  30
ATOM     30  C   UNL     1       3.612   6.527  17.891  0.00  0.00    +0.000 C 
BRANCH  30  31
ATOM     31  N   UNL     1       4.974   6.192  18.261  0.00  0.00    +0.000 N 
ATOM     32  C   UNL     1       5.818   5.531  17.451  0.00  0.00    +0.000 A 
ATOM     33  C   UNL     1       5.797   5.518  16.039  0.00  0.00    +0.000 A 
ATOM     34  C   UNL     1       6.868   4.736  15.672  0.00  0.00    +0.000 A 
ATOM     35  N   UNL     1       7.449   4.341  16.840  0.00  0.00    +0.000 N 
ATOM     36  N   UNL     1       6.826   4.805  17.931  0.00  0.00    +0.000 NA
ATOM     37  H   UNL     1       5.095   5.991  19.248  0.00  0.00    +0.000 HD
ATOM     38  H   UNL     1       8.272   3.762  16.969  0.00  0.00    +0.000 HD
ENDBRANCH  30  31
ENDBRANCH  28  30
ENDBRANCH  21  25
TORSDOF 3
ENDMDL
MODEL 4
REMARK VINA RESULT:      -8.7      1.345      1.594
REMARK  Name = 
REMARK  5 active torsions:
REMARK  status: ('A' for Active; 'I' for Inactive)
REMARK    1  A    between atoms: C_1  and  C_2
REMARK    2  A    between atoms: C_16  and  C_17
REMARK    3  A    between atoms: C_21  and  C_22
REMARK    4  A    between atoms: C_25  and  C_26
REMARK    5  A    between atoms: C_26  and  N_27
REMARK                            x       y       z     vdW  Elec       q    Type
REMARK                         _______ _______ _______ _____ _____    ______ ____
ROOT
ATOM      1  C   UNL     1       2.174  13.823  18.103  0.00  0.00    +0.000 C 
ATOM      2  C   UNL     1       2.481  14.908  19.134  0.00  0.00    +0.000 C 
ATOM      3  C   UNL     1       2.448  16.278  18.389  0.00  0.00    +0.000 C 
ATOM      4  O   UNL     1       2.710  17.389  19.262  0.00  0.00    +0.000 OA
ATOM      5  C   UNL     1       1.728  17.432  20.307  0.00  0.00    +0.000 C 
ATOM      6  C   UNL     1       1.762  16.143  21.132  0.00  0.00    +0.000 C 
ATOM      7  N   UNL     1       1.510  14.993  20.246  0.00  0.00    +0.000 N 
ATOM      8  C   UNL     1       0.971  13.891  20.882  0.00  0.00    +0.000 A 
ATOM      9  N   UNL     1      -0.064  14.111  21.698  0.00  0.00    +0.000 NA
ATOM     10  C   UNL     1      -0.722  13.097  22.284  0.00  0.00    +0.000 A 
ATOM     11  N   UNL     1      -1.829  13.495  23.028  0.00  0.00    +0.000 N 
ATOM     12  C   UNL     1      -2.998  12.615  23.192  0.00  0.00    +0.000 C 
ATOM     13  C   UNL     1      -4.256  13.414  23.540  0.00  0.00    +0.000 C 
ATOM     14  O   UNL     1      -4.049  14.176  24.736  0.00  0.00    +0.000 OA
ATOM     15  C   UNL     1      -2.981  15.112  24.526  0.00  0.00    +0.000 C 
ATOM     16  C   UNL     1      -1.636  14.413  24.193  0.00  0.00    +0.000 C 
ATOM     17  C   UNL     1      -0.596  15.515  24.027  0.00  0.00    +0.000 C 
ATOM     18  C   UNL     1      -0.305  11.772  22.031  0.00  0.00    +0.000 A 
ATOM     19  C   UNL     1      -0.849  10.573  22.559  0.00  0.00    +0.000 A 
ATOM     20  C   UNL     1      -0.364   9.334  22.179  0.00  0.00    +0.000 A 
ATOM     21  C   UNL     1       0.691   9.306  21.297  0.00  0.00    +0.000 A 
ATOM     22  N   UNL     1       1.270  10.433  20.822  0.00  0.00    +0.000 NA
ATOM     23  C   UNL     1       0.786  11.634  21.167  0.00  0.00    +0.000 A 
ATOM     24  N   UNL     1       1.408  12.668  20.625  0.00  0.00    +0.000 NA
ENDROOT
BRANCH  21  25
ATOM     25  C   UNL     1       1.233   8.053  20.793  0.00  0.00    +0.000 A 
ATOM     26  C   UNL     1       1.216   6.750  21.245  0.00  0.00    +0.000 A 
ATOM     27  C   UNL     1       1.990   5.990  20.332  0.00  0.00    +0.000 A 
ATOM     28  C   UNL     1       2.435   6.872  19.370  0.00  0.00    +0.000 A 
ATOM     29  O   UNL     1       1.962   8.124  19.635  0.00  0.00    +0.000 OA
BRANCH  28  30
ATOM     30  C   UNL     1       3.341   6.732  18.191  0.00  0.00    +0.000 C 
BRANCH  30  31
ATOM     31  N   UNL     1       4.486   5.882  18.458  0.00  0.00    +0.000 N 
ATOM     32  C   UNL     1       4.404   4.545  18.565  0.00  0.00    +0.000 A 
ATOM     33  C   UNL     1       3.447   3.706  17.953  0.00  0.00    +0.000 A 
ATOM     34  C   UNL     1       3.796   2.430  18.330  0.00  0.00    +0.000 A 
ATOM     35  N   UNL     1       4.901   2.569  19.115  0.00  0.00    +0.000 N 
ATOM     36  N   UNL     1       5.284   3.843  19.277  0.00  0.00    +0.000 NA
ATOM     37  H   UNL     1       5.185   6.308  19.056  0.00  0.00    +0.000 HD
ATOM     38  H   UNL     1       5.447   1.845  19.568  0.00  0.00    +0.000 HD
ENDBRANCH  30  31
ENDBRANCH  28  30
ENDBRANCH  21  25
TORSDOF 3
ENDMDL
MODEL 5
REMARK VINA RESULT:      -8.6      3.153      4.846
REMARK  Name = 
REMARK  5 active torsions:
REMARK  status: ('A' for Active; 'I' for Inactive)
REMARK    1  A    between atoms: C_1  and  C_2
REMARK    2  A    between atoms: C_16  and  C_17
REMARK    3  A    between atoms: C_21  and  C_22
REMARK    4  A    between atoms: C_25  and  C_26
REMARK    5  A    between atoms: C_26  and  N_27
REMARK                            x       y       z     vdW  Elec       q    Type
REMARK                         _______ _______ _______ _____ _____    ______ ____
ROOT
ATOM      1  C   UNL     1      -5.199  10.130  18.657  0.00  0.00    +0.000 C 
ATOM      2  C   UNL     1      -5.680  11.551  18.366  0.00  0.00    +0.000 C 
ATOM      3  C   UNL     1      -7.231  11.556  18.528  0.00  0.00    +0.000 C 
ATOM      4  O   UNL     1      -7.808  12.852  18.293  0.00  0.00    +0.000 OA
ATOM      5  C   UNL     1      -7.265  13.804  19.217  0.00  0.00    +0.000 C 
ATOM      6  C   UNL     1      -5.745  13.907  19.056  0.00  0.00    +0.000 C 
ATOM      7  N   UNL     1      -5.142  12.582  19.279  0.00  0.00    +0.000 N 
ATOM      8  C   UNL     1      -3.830  12.617  19.711  0.00  0.00    +0.000 A 
ATOM      9  N   UNL     1      -3.548  13.456  20.713  0.00  0.00    +0.000 NA
ATOM     10  C   UNL     1      -2.326  13.492  21.272  0.00  0.00    +0.000 A 
ATOM     11  N   UNL     1      -2.227  14.353  22.361  0.00  0.00    +0.000 N 
ATOM     12  C   UNL     1      -1.283  14.093  23.460  0.00  0.00    +0.000 C 
ATOM     13  C   UNL     1      -1.711  14.802  24.747  0.00  0.00    +0.000 C 
ATOM     14  O   UNL     1      -1.823  16.213  24.525  0.00  0.00    +0.000 OA
ATOM     15  C   UNL     1      -2.830  16.462  23.534  0.00  0.00    +0.000 C 
ATOM     16  C   UNL     1      -2.489  15.813  22.165  0.00  0.00    +0.000 C 
ATOM     17  C   UNL     1      -3.618  16.181  21.209  0.00  0.00    +0.000 C 
ATOM     18  C   UNL     1      -1.323  12.626  20.783  0.00  0.00    +0.000 A 
ATOM     19  C   UNL     1       0.023  12.522  21.219  0.00  0.00    +0.000 A 
ATOM     20  C   UNL     1       0.885  11.586  20.676  0.00  0.00    +0.000 A 
ATOM     21  C   UNL     1       0.401  10.782  19.671  0.00  0.00    +0.000 A 
ATOM     22  N   UNL     1      -0.860  10.898  19.192  0.00  0.00    +0.000 NA
ATOM     23  C   UNL     1      -1.705  11.786  19.733  0.00  0.00    +0.000 A 
ATOM     24  N   UNL     1      -2.920  11.798  19.210  0.00  0.00    +0.000 NA
ENDROOT
BRANCH  21  25
ATOM     25  C   UNL     1       1.210   9.730  19.076  0.00  0.00    +0.000 A 
ATOM     26  C   UNL     1       1.799   9.555  17.841  0.00  0.00    +0.000 A 
ATOM     27  C   UNL     1       2.406   8.275  17.854  0.00  0.00    +0.000 A 
ATOM     28  C   UNL     1       2.158   7.738  19.099  0.00  0.00    +0.000 A 
ATOM     29  O   UNL     1       1.448   8.627  19.852  0.00  0.00    +0.000 OA
BRANCH  28  30
ATOM     30  C   UNL     1       2.450   6.412  19.723  0.00  0.00    +0.000 C 
BRANCH  30  31
ATOM     31  N   UNL     1       3.729   5.866  19.310  0.00  0.00    +0.000 N 
ATOM     32  C   UNL     1       3.994   4.549  19.275  0.00  0.00    +0.000 A 
ATOM     33  C   UNL     1       3.061   3.505  19.088  0.00  0.00    +0.000 A 
ATOM     34  C   UNL     1       3.810   2.351  19.094  0.00  0.00    +0.000 A 
ATOM     35  N   UNL     1       5.099   2.752  19.275  0.00  0.00    +0.000 N 
ATOM     36  N   UNL     1       5.234   4.080  19.394  0.00  0.00    +0.000 NA
ATOM     37  H   UNL     1       4.524   6.447  19.555  0.00  0.00    +0.000 HD
ATOM     38  H   UNL     1       5.936   2.180  19.323  0.00  0.00    +0.000 HD
ENDBRANCH  30  31
ENDBRANCH  28  30
ENDBRANCH  21  25
TORSDOF 3
ENDMDL
MODEL 6
REMARK VINA RESULT:      -8.6      3.061      4.544
REMARK  Name = 
REMARK  5 active torsions:
REMARK  status: ('A' for Active; 'I' for Inactive)
REMARK    1  A    between atoms: C_1  and  C_2
REMARK    2  A    between atoms: C_16  and  C_17
REMARK    3  A    between atoms: C_21  and  C_22
REMARK    4  A    between atoms: C_25  and  C_26
REMARK    5  A    between atoms: C_26  and  N_27
REMARK                            x       y       z     vdW  Elec       q    Type
REMARK                         _______ _______ _______ _____ _____    ______ ____
ROOT
ATOM      1  C   UNL     1       0.089  14.543  22.363  0.00  0.00    +0.000 C 
ATOM      2  C   UNL     1      -1.126  14.391  23.276  0.00  0.00    +0.000 C 
ATOM      3  C   UNL     1      -1.350  15.763  23.983  0.00  0.00    +0.000 C 
ATOM      4  O   UNL     1      -2.484  15.753  24.866  0.00  0.00    +0.000 OA
ATOM      5  C   UNL     1      -3.674  15.437  24.131  0.00  0.00    +0.000 C 
ATOM      6  C   UNL     1      -3.552  14.059  23.473  0.00  0.00    +0.000 C 
ATOM      7  N   UNL     1      -2.384  14.051  22.576  0.00  0.00    +0.000 N 
ATOM      8  C   UNL     1      -2.465  13.138  21.543  0.00  0.00    +0.000 A 
ATOM      9  N   UNL     1      -3.609  13.109  20.852  0.00  0.00    +0.000 NA
ATOM     10  C   UNL     1      -3.752  12.330  19.766  0.00  0.00    +0.000 A 
ATOM     11  N   UNL     1      -4.970  12.488  19.112  0.00  0.00    +0.000 N 
ATOM     12  C   UNL     1      -5.093  12.277  17.660  0.00  0.00    +0.000 C 
ATOM     13  C   UNL     1      -6.307  13.013  17.088  0.00  0.00    +0.000 C 
ATOM     14  O   UNL     1      -7.506  12.586  17.745  0.00  0.00    +0.000 OA
ATOM     15  C   UNL     1      -7.423  12.902  19.142  0.00  0.00    +0.000 C 
ATOM     16  C   UNL     1      -6.239  12.184  19.845  0.00  0.00    +0.000 C 
ATOM     17  C   UNL     1      -6.290  12.584  21.314  0.00  0.00    +0.000 C 
ATOM     18  C   UNL     1      -2.669  11.524  19.354  0.00  0.00    +0.000 A 
ATOM     19  C   UNL     1      -2.621  10.626  18.256  0.00  0.00    +0.000 A 
ATOM     20  C   UNL     1      -1.465   9.934  17.941  0.00  0.00    +0.000 A 
ATOM     21  C   UNL     1      -0.371  10.120  18.754  0.00  0.00    +0.000 A 
ATOM     22  N   UNL     1      -0.403  10.923  19.843  0.00  0.00    +0.000 NA
ATOM     23  C   UNL     1      -1.513  11.614  20.135  0.00  0.00    +0.000 A 
ATOM     24  N   UNL     1      -1.427  12.389  21.204  0.00  0.00    +0.000 NA
ENDROOT
BRANCH  21  25
ATOM     25  C   UNL     1       0.907   9.482  18.473  0.00  0.00    +0.000 A 
ATOM     26  C   UNL     1       1.983   9.802  17.672  0.00  0.00    +0.000 A 
ATOM     27  C   UNL     1       2.906   8.732  17.780  0.00  0.00    +0.000 A 
ATOM     28  C   UNL     1       2.343   7.818  18.645  0.00  0.00    +0.000 A 
ATOM     29  O   UNL     1       1.137   8.278  19.084  0.00  0.00    +0.000 OA
BRANCH  28  30
ATOM     30  C   UNL     1       2.757   6.462  19.116  0.00  0.00    +0.000 C 
BRANCH  30  31
ATOM     31  N   UNL     1       2.764   5.474  18.054  0.00  0.00    +0.000 N 
ATOM     32  C   UNL     1       2.317   4.216  18.211  0.00  0.00    +0.000 A 
ATOM     33  C   UNL     1       1.335   3.778  19.127  0.00  0.00    +0.000 A 
ATOM     34  C   UNL     1       1.198   2.430  18.887  0.00  0.00    +0.000 A 
ATOM     35  N   UNL     1       2.070   2.147  17.879  0.00  0.00    +0.000 N 
ATOM     36  N   UNL     1       2.764   3.214  17.458  0.00  0.00    +0.000 NA
ATOM     37  H   UNL     1       3.544   5.564  17.412  0.00  0.00    +0.000 HD
ATOM     38  H   UNL     1       2.242   1.256  17.426  0.00  0.00    +0.000 HD
ENDBRANCH  30  31
ENDBRANCH  28  30
ENDBRANCH  21  25
TORSDOF 3
ENDMDL
MODEL 7
REMARK VINA RESULT:      -8.4      1.761      1.874
REMARK  Name = 
REMARK  5 active torsions:
REMARK  status: ('A' for Active; 'I' for Inactive)
REMARK    1  A    between atoms: C_1  and  C_2
REMARK    2  A    between atoms: C_16  and  C_17
REMARK    3  A    between atoms: C_21  and  C_22
REMARK    4  A    between atoms: C_25  and  C_26
REMARK    5  A    between atoms: C_26  and  N_27
REMARK                            x       y       z     vdW  Elec       q    Type
REMARK                         _______ _______ _______ _____ _____    ______ ____
ROOT
ATOM      1  C   UNL     1       2.505  15.053  18.133  0.00  0.00    +0.000 C 
ATOM      2  C   UNL     1       2.639  15.860  19.423  0.00  0.00    +0.000 C 
ATOM      3  C   UNL     1       2.608  17.369  19.031  0.00  0.00    +0.000 C 
ATOM      4  O   UNL     1       2.712  18.240  20.170  0.00  0.00    +0.000 OA
ATOM      5  C   UNL     1       1.623  17.997  21.072  0.00  0.00    +0.000 C 
ATOM      6  C   UNL     1       1.641  16.545  21.561  0.00  0.00    +0.000 C 
ATOM      7  N   UNL     1       1.551  15.642  20.401  0.00  0.00    +0.000 N 
ATOM      8  C   UNL     1       1.010  14.402  20.684  0.00  0.00    +0.000 A 
ATOM      9  N   UNL     1      -0.117  14.387  21.402  0.00  0.00    +0.000 NA
ATOM     10  C   UNL     1      -0.777  13.241  21.645  0.00  0.00    +0.000 A 
ATOM     11  N   UNL     1      -1.978  13.413  22.328  0.00  0.00    +0.000 N 
ATOM     12  C   UNL     1      -3.107  12.487  22.136  0.00  0.00    +0.000 C 
ATOM     13  C   UNL     1      -4.438  13.140  22.517  0.00  0.00    +0.000 C 
ATOM     14  O   UNL     1      -4.403  13.591  23.876  0.00  0.00    +0.000 OA
ATOM     15  C   UNL     1      -3.373  14.579  24.025  0.00  0.00    +0.000 C 
ATOM     16  C   UNL     1      -1.962  14.022  23.694  0.00  0.00    +0.000 C 
ATOM     17  C   UNL     1      -0.974  15.160  23.921  0.00  0.00    +0.000 C 
ATOM     18  C   UNL     1      -0.261  12.031  21.132  0.00  0.00    +0.000 A 
ATOM     19  C   UNL     1      -0.790  10.724  21.288  0.00  0.00    +0.000 A 
ATOM     20  C   UNL     1      -0.199   9.630  20.681  0.00  0.00    +0.000 A 
ATOM     21  C   UNL     1       0.944   9.850  19.949  0.00  0.00    +0.000 A 
ATOM     22  N   UNL     1       1.507  11.075  19.830  0.00  0.00    +0.000 NA
ATOM     23  C   UNL     1       0.922  12.140  20.395  0.00  0.00    +0.000 A 
ATOM     24  N   UNL     1       1.540  13.293  20.195  0.00  0.00    +0.000 NA
ENDROOT
BRANCH  21  25
ATOM     25  C   UNL     1       1.607   8.775  19.226  0.00  0.00    +0.000 A 
ATOM     26  C   UNL     1       1.873   8.536  17.894  0.00  0.00    +0.000 A 
ATOM     27  C   UNL     1       2.498   7.266  17.822  0.00  0.00    +0.000 A 
ATOM     28  C   UNL     1       2.583   6.800  19.117  0.00  0.00    +0.000 A 
ATOM     29  O   UNL     1       2.061   7.722  19.976  0.00  0.00    +0.000 OA
BRANCH  28  30
ATOM     30  C   UNL     1       3.058   5.516  19.716  0.00  0.00    +0.000 C 
BRANCH  30  31
ATOM     31  N   UNL     1       3.534   4.573  18.723  0.00  0.00    +0.000 N 
ATOM     32  C   UNL     1       4.796   4.561  18.260  0.00  0.00    +0.000 A 
ATOM     33  C   UNL     1       5.950   5.001  18.944  0.00  0.00    +0.000 A 
ATOM     34  C   UNL     1       6.993   4.757  18.081  0.00  0.00    +0.000 A 
ATOM     35  N   UNL     1       6.428   4.204  16.971  0.00  0.00    +0.000 N 
ATOM     36  N   UNL     1       5.096   4.081  17.055  0.00  0.00    +0.000 NA
ATOM     37  H   UNL     1       2.834   4.307  18.038  0.00  0.00    +0.000 HD
ATOM     38  H   UNL     1       6.885   3.882  16.126  0.00  0.00    +0.000 HD
ENDBRANCH  30  31
ENDBRANCH  28  30
ENDBRANCH  21  25
TORSDOF 3
ENDMDL
MODEL 8
REMARK VINA RESULT:      -8.4      1.141      1.287
REMARK  Name = 
REMARK  5 active torsions:
REMARK  status: ('A' for Active; 'I' for Inactive)
REMARK    1  A    between atoms: C_1  and  C_2
REMARK    2  A    between atoms: C_16  and  C_17
REMARK    3  A    between atoms: C_21  and  C_22
REMARK    4  A    between atoms: C_25  and  C_26
REMARK    5  A    between atoms: C_26  and  N_27
REMARK                            x       y       z     vdW  Elec       q    Type
REMARK                         _______ _______ _______ _____ _____    ______ ____
ROOT
ATOM      1  C   UNL     1       2.848  14.986  18.100  0.00  0.00    +0.000 C 
ATOM      2  C   UNL     1       2.924  15.803  19.389  0.00  0.00    +0.000 C 
ATOM      3  C   UNL     1       2.981  17.307  18.982  0.00  0.00    +0.000 C 
ATOM      4  O   UNL     1       3.040  18.187  20.117  0.00  0.00    +0.000 OA
ATOM      5  C   UNL     1       1.884  17.998  20.944  0.00  0.00    +0.000 C 
ATOM      6  C   UNL     1       1.809  16.553  21.446  0.00  0.00    +0.000 C 
ATOM      7  N   UNL     1       1.764  15.639  20.292  0.00  0.00    +0.000 N 
ATOM      8  C   UNL     1       1.155  14.426  20.548  0.00  0.00    +0.000 A 
ATOM      9  N   UNL     1      -0.018  14.463  21.186  0.00  0.00    +0.000 NA
ATOM     10  C   UNL     1      -0.738  13.347  21.394  0.00  0.00    +0.000 A 
ATOM     11  N   UNL     1      -1.975  13.573  21.989  0.00  0.00    +0.000 N 
ATOM     12  C   UNL     1      -3.124  12.690  21.729  0.00  0.00    +0.000 C 
ATOM     13  C   UNL     1      -4.451  13.399  22.010  0.00  0.00    +0.000 C 
ATOM     14  O   UNL     1      -4.492  13.865  23.364  0.00  0.00    +0.000 OA
ATOM     15  C   UNL     1      -3.437  14.814  23.575  0.00  0.00    +0.000 C 
ATOM     16  C   UNL     1      -2.030  14.198  23.348  0.00  0.00    +0.000 C 
ATOM     17  C   UNL     1      -1.015  15.299  23.633  0.00  0.00    +0.000 C 
ATOM     18  C   UNL     1      -0.237  12.111  20.928  0.00  0.00    +0.000 A 
ATOM     19  C   UNL     1      -0.827  10.828  21.060  0.00  0.00    +0.000 A 
ATOM     20  C   UNL     1      -0.239   9.705  20.506  0.00  0.00    +0.000 A 
ATOM     21  C   UNL     1       0.959   9.871  19.852  0.00  0.00    +0.000 A 
ATOM     22  N   UNL     1       1.577  11.072  19.761  0.00  0.00    +0.000 NA
ATOM     23  C   UNL     1       0.998  12.165  20.274  0.00  0.00    +0.000 A 
ATOM     24  N   UNL     1       1.673  13.291  20.107  0.00  0.00    +0.000 NA
ENDROOT
BRANCH  21  25
ATOM     25  C   UNL     1       1.627   8.762  19.187  0.00  0.00    +0.000 A 
ATOM     26  C   UNL     1       1.823   8.413  17.867  0.00  0.00    +0.000 A 
ATOM     27  C   UNL     1       2.502   7.169  17.869  0.00  0.00    +0.000 A 
ATOM     28  C   UNL     1       2.686   6.827  19.192  0.00  0.00    +0.000 A 
ATOM     29  O   UNL     1       2.173   7.802  19.997  0.00  0.00    +0.000 OA
BRANCH  28  30
ATOM     30  C   UNL     1       3.255   5.624  19.872  0.00  0.00    +0.000 C 
BRANCH  30  31
ATOM     31  N   UNL     1       3.482   4.518  18.962  0.00  0.00    +0.000 N 
ATOM     32  C   UNL     1       2.628   3.490  18.820  0.00  0.00    +0.000 A 
ATOM     33  C   UNL     1       1.234   3.514  19.041  0.00  0.00    +0.000 A 
ATOM     34  C   UNL     1       0.800   2.245  18.734  0.00  0.00    +0.000 A 
ATOM     35  N   UNL     1       1.916   1.559  18.358  0.00  0.00    +0.000 N 
ATOM     36  N   UNL     1       3.037   2.291  18.408  0.00  0.00    +0.000 NA
ATOM     37  H   UNL     1       4.460   4.270  18.851  0.00  0.00    +0.000 HD
ATOM     38  H   UNL     1       1.988   0.595  18.051  0.00  0.00    +0.000 HD
ENDBRANCH  30  31
ENDBRANCH  28  30
ENDBRANCH  21  25
TORSDOF 3
ENDMDL
MODEL 9
REMARK VINA RESULT:      -8.3      1.473      1.585
REMARK  Name = 
REMARK  5 active torsions:
REMARK  status: ('A' for Active; 'I' for Inactive)
REMARK    1  A    between atoms: C_1  and  C_2
REMARK    2  A    between atoms: C_16  and  C_17
REMARK    3  A    between atoms: C_21  and  C_22
REMARK    4  A    between atoms: C_25  and  C_26
REMARK    5  A    between atoms: C_26  and  N_27
REMARK                            x       y       z     vdW  Elec       q    Type
REMARK                         _______ _______ _______ _____ _____    ______ ____
ROOT
ATOM      1  C   UNL     1       2.532  15.348  17.883  0.00  0.00    +0.000 C 
ATOM      2  C   UNL     1       2.354  16.191  19.145  0.00  0.00    +0.000 C 
ATOM      3  C   UNL     1       2.370  17.688  18.708  0.00  0.00    +0.000 C 
ATOM      4  O   UNL     1       2.195  18.590  19.813  0.00  0.00    +0.000 OA
ATOM      5  C   UNL     1       0.940  18.333  20.461  0.00  0.00    +0.000 C 
ATOM      6  C   UNL     1       0.889  16.896  20.987  0.00  0.00    +0.000 C 
ATOM      7  N   UNL     1       1.083  15.961  19.865  0.00  0.00    +0.000 N 
ATOM      8  C   UNL     1       0.527  14.711  20.061  0.00  0.00    +0.000 A 
ATOM      9  N   UNL     1      -0.731  14.676  20.513  0.00  0.00    +0.000 NA
ATOM     10  C   UNL     1      -1.396  13.515  20.641  0.00  0.00    +0.000 A 
ATOM     11  N   UNL     1      -2.722  13.662  21.035  0.00  0.00    +0.000 N 
ATOM     12  C   UNL     1      -3.755  12.694  20.629  0.00  0.00    +0.000 C 
ATOM     13  C   UNL     1      -5.154  13.312  20.686  0.00  0.00    +0.000 C 
ATOM     14  O   UNL     1      -5.434  13.797  22.004  0.00  0.00    +0.000 OA
ATOM     15  C   UNL     1      -4.490  14.823  22.345  0.00  0.00    +0.000 C 
ATOM     16  C   UNL     1      -3.027  14.306  22.352  0.00  0.00    +0.000 C 
ATOM     17  C   UNL     1      -2.145  15.482  22.755  0.00  0.00    +0.000 C 
ATOM     18  C   UNL     1      -0.746  12.311  20.292  0.00  0.00    +0.000 A 
ATOM     19  C   UNL     1      -1.261  10.991  20.369  0.00  0.00    +0.000 A 
ATOM     20  C   UNL     1      -0.520   9.903  19.943  0.00  0.00    +0.000 A 
ATOM     21  C   UNL     1       0.751  10.143  19.474  0.00  0.00    +0.000 A 
ATOM     22  N   UNL     1       1.292  11.383  19.444  0.00  0.00    +0.000 NA
ATOM     23  C   UNL     1       0.568  12.441  19.832  0.00  0.00    +0.000 A 
ATOM     24  N   UNL     1       1.182  13.609  19.736  0.00  0.00    +0.000 NA
ENDROOT
BRANCH  21  25
ATOM     25  C   UNL     1       1.587   9.073  18.950  0.00  0.00    +0.000 A 
ATOM     26  C   UNL     1       2.212   8.849  17.741  0.00  0.00    +0.000 A 
ATOM     27  C   UNL     1       2.830   7.577  17.829  0.00  0.00    +0.000 A 
ATOM     28  C   UNL     1       2.551   7.095  19.091  0.00  0.00    +0.000 A 
ATOM     29  O   UNL     1       1.813   8.009  19.783  0.00  0.00    +0.000 OA
BRANCH  28  30
ATOM     30  C   UNL     1       2.839   5.801  19.782  0.00  0.00    +0.000 C 
BRANCH  30  31
ATOM     31  N   UNL     1       1.910   4.749  19.414  0.00  0.00    +0.000 N 
ATOM     32  C   UNL     1       2.296   3.574  18.886  0.00  0.00    +0.000 A 
ATOM     33  C   UNL     1       3.538   2.931  19.076  0.00  0.00    +0.000 A 
ATOM     34  C   UNL     1       3.444   1.755  18.369  0.00  0.00    +0.000 A 
ATOM     35  N   UNL     1       2.198   1.758  17.817  0.00  0.00    +0.000 N 
ATOM     36  N   UNL     1       1.486   2.854  18.112  0.00  0.00    +0.000 NA
ATOM     37  H   UNL     1       1.016   5.088  19.075  0.00  0.00    +0.000 HD
ATOM     38  H   UNL     1       1.765   1.049  17.236  0.00  0.00    +0.000 HD
ENDBRANCH  30  31
ENDBRANCH  28  30
ENDBRANCH  21  25
TORSDOF 3
ENDMDL
