MODEL 1
REMARK VINA RESULT:      -7.4      0.000      0.000
REMARK  Name = 
REMARK  14 active torsions:
REMARK  status: ('A' for Active; 'I' for Inactive)
REMARK    1  A    between atoms: CG1_1  and  CB_2
REMARK    2  A    between atoms: CB_2  and  CG2_3
REMARK    3  A    between atoms: CB_2  and  CA_4
REMARK    4  A    between atoms: CA_4  and  N_5
REMARK    5  A    between atoms: CA_4  and  C_23
REMARK    6  A    between atoms: C_6  and  CA_8
REMARK    7  A    between atoms: CA_8  and  N_9
REMARK    8  A    between atoms: CA_8  and  CB_20
REMARK    9  A    between atoms: C_10  and  O_12
REMARK   10  A    between atoms: O_12  and  C_13
REMARK   11  A    between atoms: C_13  and  C_14
REMARK   12  A    between atoms: CB_20  and  CG1_21
REMARK   13  A    between atoms: CB_20  and  CG2_22
REMARK   14  A    between atoms: C_23  and  OXT_25
REMARK                            x       y       z     vdW  Elec       q    Type
REMARK                         _______ _______ _______ _____ _____    ______ ____
ROOT
ATOM      1  CA  VAL A   1       3.097   5.963  19.129  0.00  0.00    +0.000 C 
ENDROOT
BRANCH   1   3
ATOM      2  N   VAL A   1       5.302   5.569  18.131  0.00  0.00    +0.000 N 
ATOM      3  C   VAL A   1       4.400   5.142  19.080  0.00  0.00    +0.000 C 
ATOM      4  O   VAL A   1       4.604   4.128  19.743  0.00  0.00    +0.000 OA
ATOM      5  H   VAL A   1       4.949   6.177  17.403  0.00  0.00    +0.000 HD
BRANCH   2   6
ATOM      6  CA  VAL A   1       6.565   4.871  17.857  0.00  0.00    +0.000 C 
BRANCH   6   8
ATOM      7  CG1 VAL A   1       7.659   7.217  17.826  0.00  0.00    +0.000 C 
ATOM      8  CB  VAL A   1       7.787   5.743  18.233  0.00  0.00    +0.000 C 
ATOM      9  CG2 VAL A   1       8.073   5.657  19.738  0.00  0.00    +0.000 C 
ENDBRANCH   6   8
BRANCH   6  10
ATOM     10  C   VAL A   1       6.615   4.355  16.398  0.00  0.00    +0.000 C 
ATOM     11  O   VAL A   1       7.357   4.788  15.526  0.00  0.00    +0.000 OA
BRANCH  10  12
ATOM     12  OXT VAL A   1       5.812   3.287  16.171  0.00  0.00    +0.000 OA
ATOM     13  HXT VAL A   1       6.163   2.678  15.477  0.00  0.00    +0.000 HD
ENDBRANCH  10  12
ENDBRANCH   6  10
ENDBRANCH   2   6
ENDBRANCH   1   3
BRANCH   1  14
ATOM     14  N   VAL A   1       3.251   7.104  18.246  0.00  0.00    +0.000 N 
ATOM     15  C   UNK A   0       2.343   8.120  18.160  0.00  0.00    +0.000 C 
ATOM     16  O   UNK A   0       2.104   8.685  17.105  0.00  0.00    +0.000 OA
ATOM     17  H   VAL A   1       4.171   7.362  17.922  0.00  0.00    +0.000 HD
BRANCH  15  18
ATOM     18  O   UNK A   0       1.797   8.410  19.366  0.00  0.00    +0.000 OA
BRANCH  18  19
ATOM     19  C   UNK A   0       1.071   9.649  19.437  0.00  0.00    +0.000 C 
BRANCH  19  20
ATOM     20  C   UNK A   0       0.406   9.918  20.767  0.00  0.00    +0.000 A 
ATOM     21  C   UNK A   0       0.623   9.032  21.839  0.00  0.00    +0.000 A 
ATOM     22  C   UNK A   0      -0.001   9.238  23.075  0.00  0.00    +0.000 A 
ATOM     23  C   UNK A   0      -0.842  10.332  23.248  0.00  0.00    +0.000 A 
ATOM     24  C   UNK A   0      -1.053  11.219  22.200  0.00  0.00    +0.000 A 
ATOM     25  C   UNK A   0      -0.431  11.017  20.965  0.00  0.00    +0.000 A 
ENDBRANCH  19  20
ENDBRANCH  18  19
ENDBRANCH  15  18
ENDBRANCH   1  14
BRANCH   1  26
ATOM     26  CB  VAL A   1       1.858   5.124  18.741  0.00  0.00    +0.000 C 
ATOM     27  CG1 VAL A   1       2.157   4.192  17.563  0.00  0.00    +0.000 C 
ATOM     28  CG2 VAL A   1       1.371   4.273  19.924  0.00  0.00    +0.000 C 
ENDBRANCH   1  26
TORSDOF 10
ENDMDL
MODEL 2
REMARK VINA RESULT:      -7.2      0.632      1.179
REMARK  Name = 
REMARK  14 active torsions:
REMARK  status: ('A' for Active; 'I' for Inactive)
REMARK    1  A    between atoms: CG1_1  and  CB_2
REMARK    2  A    between atoms: CB_2  and  CG2_3
REMARK    3  A    between atoms: CB_2  and  CA_4
REMARK    4  A    between atoms: CA_4  and  N_5
REMARK    5  A    between atoms: CA_4  and  C_23
REMARK    6  A    between atoms: C_6  and  CA_8
REMARK    7  A    between atoms: CA_8  and  N_9
REMARK    8  A    between atoms: CA_8  and  CB_20
REMARK    9  A    between atoms: C_10  and  O_12
REMARK   10  A    between atoms: O_12  and  C_13
REMARK   11  A    between atoms: C_13  and  C_14
REMARK   12  A    between atoms: CB_20  and  CG1_21
REMARK   13  A    between atoms: CB_20  and  CG2_22
REMARK   14  A    between atoms: C_23  and  OXT_25
REMARK                            x       y       z     vdW  Elec       q    Type
REMARK                         _______ _______ _______ _____ _____    ______ ____
ROOT
ATOM      1  CA  VAL A   1       3.009   5.492  19.167  0.00  0.00    +0.000 C 
ENDROOT
BRANCH   1   3
ATOM      2  N   VAL A   1       5.169   5.433  18.007  0.00  0.00    +0.000 N 
ATOM      3  C   VAL A   1       4.377   4.818  18.951  0.00  0.00    +0.000 C 
ATOM      4  O   VAL A   1       4.721   3.764  19.482  0.00  0.00    +0.000 OA
ATOM      5  H   VAL A   1       4.711   6.077  17.373  0.00  0.00    +0.000 HD
BRANCH   2   6
ATOM      6  CA  VAL A   1       6.470   4.900  17.584  0.00  0.00    +0.000 C 
BRANCH   6   8
ATOM      7  CG1 VAL A   1       7.410   7.313  17.611  0.00  0.00    +0.000 C 
ATOM      8  CB  VAL A   1       7.627   5.843  17.994  0.00  0.00    +0.000 C 
ATOM      9  CG2 VAL A   1       7.897   5.748  19.501  0.00  0.00    +0.000 C 
ENDBRANCH   6   8
BRANCH   6  10
ATOM     10  C   VAL A   1       6.473   4.559  16.074  0.00  0.00    +0.000 C 
ATOM     11  O   VAL A   1       7.437   4.678  15.329  0.00  0.00    +0.000 OA
BRANCH  10  12
ATOM     12  OXT VAL A   1       5.311   4.013  15.637  0.00  0.00    +0.000 OA
ATOM     13  HXT VAL A   1       4.680   4.682  15.279  0.00  0.00    +0.000 HD
ENDBRANCH  10  12
ENDBRANCH   6  10
ENDBRANCH   2   6
ENDBRANCH   1   3
BRANCH   1  14
ATOM     14  N   VAL A   1       3.014   6.758  18.457  0.00  0.00    +0.000 N 
ATOM     15  C   UNK A   0       2.240   7.825  18.811  0.00  0.00    +0.000 C 
ATOM     16  O   UNK A   0       1.759   8.578  17.981  0.00  0.00    +0.000 OA
ATOM     17  H   VAL A   1       3.817   7.013  17.901  0.00  0.00    +0.000 HD
BRANCH  15  18
ATOM     18  O   UNK A   0       2.119   7.934  20.157  0.00  0.00    +0.000 OA
BRANCH  18  19
ATOM     19  C   UNK A   0       0.790   7.757  20.677  0.00  0.00    +0.000 C 
BRANCH  19  20
ATOM     20  C   UNK A   0       0.187   8.990  21.308  0.00  0.00    +0.000 A 
ATOM     21  C   UNK A   0       0.004  10.146  20.526  0.00  0.00    +0.000 A 
ATOM     22  C   UNK A   0      -0.527  11.313  21.089  0.00  0.00    +0.000 A 
ATOM     23  C   UNK A   0      -0.880  11.331  22.433  0.00  0.00    +0.000 A 
ATOM     24  C   UNK A   0      -0.714  10.192  23.211  0.00  0.00    +0.000 A 
ATOM     25  C   UNK A   0      -0.186   9.024  22.653  0.00  0.00    +0.000 A 
ENDBRANCH  19  20
ENDBRANCH  18  19
ENDBRANCH  15  18
ENDBRANCH   1  14
BRANCH   1  26
ATOM     26  CB  VAL A   1       1.834   4.601  18.702  0.00  0.00    +0.000 C 
ATOM     27  CG1 VAL A   1       2.239   3.703  17.530  0.00  0.00    +0.000 C 
ATOM     28  CG2 VAL A   1       1.327   3.710  19.848  0.00  0.00    +0.000 C 
ENDBRANCH   1  26
TORSDOF 10
ENDMDL
MODEL 3
REMARK VINA RESULT:      -7.2      2.841      7.232
REMARK  Name = 
REMARK  14 active torsions:
REMARK  status: ('A' for Active; 'I' for Inactive)
REMARK    1  A    between atoms: CG1_1  and  CB_2
REMARK    2  A    between atoms: CB_2  and  CG2_3
REMARK    3  A    between atoms: CB_2  and  CA_4
REMARK    4  A    between atoms: CA_4  and  N_5
REMARK    5  A    between atoms: CA_4  and  C_23
REMARK    6  A    between atoms: C_6  and  CA_8
REMARK    7  A    between atoms: CA_8  and  N_9
REMARK    8  A    between atoms: CA_8  and  CB_20
REMARK    9  A    between atoms: C_10  and  O_12
REMARK   10  A    between atoms: O_12  and  C_13
REMARK   11  A    between atoms: C_13  and  C_14
REMARK   12  A    between atoms: CB_20  and  CG1_21
REMARK   13  A    between atoms: CB_20  and  CG2_22
REMARK   14  A    between atoms: C_23  and  OXT_25
REMARK                            x       y       z     vdW  Elec       q    Type
REMARK                         _______ _______ _______ _____ _____    ______ ____
ROOT
ATOM      1  CA  VAL A   1       3.538   6.344  18.436  0.00  0.00    +0.000 C 
ENDROOT
BRANCH   1   3
ATOM      2  N   VAL A   1       3.300   4.029  19.209  0.00  0.00    +0.000 N 
ATOM      3  C   VAL A   1       3.103   4.894  18.155  0.00  0.00    +0.000 C 
ATOM      4  O   VAL A   1       2.707   4.488  17.065  0.00  0.00    +0.000 OA
ATOM      5  H   VAL A   1       3.928   4.336  19.942  0.00  0.00    +0.000 HD
BRANCH   2   6
ATOM      6  CA  VAL A   1       3.039   2.587  19.121  0.00  0.00    +0.000 C 
BRANCH   6   8
ATOM      7  CG1 VAL A   1       1.697   2.803  21.325  0.00  0.00    +0.000 C 
ATOM      8  CB  VAL A   1       1.773   2.192  19.920  0.00  0.00    +0.000 C 
ATOM      9  CG2 VAL A   1       0.502   2.556  19.140  0.00  0.00    +0.000 C 
ENDBRANCH   6   8
BRANCH   6  10
ATOM     10  C   VAL A   1       4.288   1.764  19.520  0.00  0.00    +0.000 C 
ATOM     11  O   VAL A   1       5.015   2.011  20.473  0.00  0.00    +0.000 OA
BRANCH  10  12
ATOM     12  OXT VAL A   1       4.474   0.656  18.762  0.00  0.00    +0.000 OA
ATOM     13  HXT VAL A   1       5.231   0.740  18.133  0.00  0.00    +0.000 HD
ENDBRANCH  10  12
ENDBRANCH   6  10
ENDBRANCH   2   6
ENDBRANCH   1   3
BRANCH   1  14
ATOM     14  N   VAL A   1       4.425   6.763  17.366  0.00  0.00    +0.000 N 
ATOM     15  C   UNK A   0       5.786   6.772  17.474  0.00  0.00    +0.000 C 
ATOM     16  O   UNK A   0       6.471   7.627  16.937  0.00  0.00    +0.000 OA
ATOM     17  H   VAL A   1       4.100   6.737  16.411  0.00  0.00    +0.000 HD
BRANCH  15  18
ATOM     18  O   UNK A   0       6.240   5.724  18.204  0.00  0.00    +0.000 OA
BRANCH  18  19
ATOM     19  C   UNK A   0       7.171   4.857  17.535  0.00  0.00    +0.000 C 
BRANCH  19  20
ATOM     20  C   UNK A   0       6.823   4.539  16.100  0.00  0.00    +0.000 A 
ATOM     21  C   UNK A   0       7.601   5.088  15.062  0.00  0.00    +0.000 A 
ATOM     22  C   UNK A   0       7.286   4.834  13.722  0.00  0.00    +0.000 A 
ATOM     23  C   UNK A   0       6.197   4.029  13.410  0.00  0.00    +0.000 A 
ATOM     24  C   UNK A   0       5.430   3.473  14.427  0.00  0.00    +0.000 A 
ATOM     25  C   UNK A   0       5.741   3.723  15.766  0.00  0.00    +0.000 A 
ENDBRANCH  19  20
ENDBRANCH  18  19
ENDBRANCH  15  18
ENDBRANCH   1  14
BRANCH   1  26
ATOM     26  CB  VAL A   1       2.335   7.305  18.567  0.00  0.00    +0.000 C 
ATOM     27  CG1 VAL A   1       2.033   7.632  20.032  0.00  0.00    +0.000 C 
ATOM     28  CG2 VAL A   1       2.591   8.621  17.816  0.00  0.00    +0.000 C 
ENDBRANCH   1  26
TORSDOF 10
ENDMDL
MODEL 4
REMARK VINA RESULT:      -7.2      1.850      2.876
REMARK  Name = 
REMARK  14 active torsions:
REMARK  status: ('A' for Active; 'I' for Inactive)
REMARK    1  A    between atoms: CG1_1  and  CB_2
REMARK    2  A    between atoms: CB_2  and  CG2_3
REMARK    3  A    between atoms: CB_2  and  CA_4
REMARK    4  A    between atoms: CA_4  and  N_5
REMARK    5  A    between atoms: CA_4  and  C_23
REMARK    6  A    between atoms: C_6  and  CA_8
REMARK    7  A    between atoms: CA_8  and  N_9
REMARK    8  A    between atoms: CA_8  and  CB_20
REMARK    9  A    between atoms: C_10  and  O_12
REMARK   10  A    between atoms: O_12  and  C_13
REMARK   11  A    between atoms: C_13  and  C_14
REMARK   12  A    between atoms: CB_20  and  CG1_21
REMARK   13  A    between atoms: CB_20  and  CG2_22
REMARK   14  A    between atoms: C_23  and  OXT_25
REMARK                            x       y       z     vdW  Elec       q    Type
REMARK                         _______ _______ _______ _____ _____    ______ ____
ROOT
ATOM      1  CA  VAL A   1       3.861   3.979  19.140  0.00  0.00    +0.000 C 
ENDROOT
BRANCH   1   3
ATOM      2  N   VAL A   1       5.517   4.802  17.530  0.00  0.00    +0.000 N 
ATOM      3  C   VAL A   1       5.327   4.309  18.802  0.00  0.00    +0.000 C 
ATOM      4  O   VAL A   1       6.279   4.069  19.541  0.00  0.00    +0.000 OA
ATOM      5  H   VAL A   1       4.766   4.660  16.866  0.00  0.00    +0.000 HD
BRANCH   2   6
ATOM      6  CA  VAL A   1       6.846   5.093  16.975  0.00  0.00    +0.000 C 
BRANCH   6   8
ATOM      7  CG1 VAL A   1       6.008   7.543  17.053  0.00  0.00    +0.000 C 
ATOM      8  CB  VAL A   1       7.208   6.590  17.133  0.00  0.00    +0.000 C 
ATOM      9  CG2 VAL A   1       7.959   6.831  18.450  0.00  0.00    +0.000 C 
ENDBRANCH   6   8
BRANCH   6  10
ATOM     10  C   VAL A   1       6.967   4.592  15.515  0.00  0.00    +0.000 C 
ATOM     11  O   VAL A   1       7.543   5.187  14.615  0.00  0.00    +0.000 OA
BRANCH  10  12
ATOM     12  OXT VAL A   1       6.446   3.356  15.320  0.00  0.00    +0.000 OA
ATOM     13  HXT VAL A   1       6.982   2.640  15.739  0.00  0.00    +0.000 HD
ENDBRANCH  10  12
ENDBRANCH   6  10
ENDBRANCH   2   6
ENDBRANCH   1   3
BRANCH   1  14
ATOM     14  N   VAL A   1       3.078   4.115  17.926  0.00  0.00    +0.000 N 
ATOM     15  C   UNK A   0       1.862   4.735  17.878  0.00  0.00    +0.000 C 
ATOM     16  O   UNK A   0       0.969   4.348  17.143  0.00  0.00    +0.000 OA
ATOM     17  H   VAL A   1       3.537   4.066  17.029  0.00  0.00    +0.000 HD
BRANCH  15  18
ATOM     18  O   UNK A   0       1.811   5.807  18.705  0.00  0.00    +0.000 OA
BRANCH  18  19
ATOM     19  C   UNK A   0       2.468   6.993  18.226  0.00  0.00    +0.000 C 
BRANCH  19  20
ATOM     20  C   UNK A   0       1.908   8.289  18.764  0.00  0.00    +0.000 A 
ATOM     21  C   UNK A   0       1.862   9.420  17.927  0.00  0.00    +0.000 A 
ATOM     22  C   UNK A   0       1.374  10.643  18.405  0.00  0.00    +0.000 A 
ATOM     23  C   UNK A   0       0.928  10.741  19.717  0.00  0.00    +0.000 A 
ATOM     24  C   UNK A   0       0.959   9.627  20.547  0.00  0.00    +0.000 A 
ATOM     25  C   UNK A   0       1.443   8.405  20.074  0.00  0.00    +0.000 A 
ENDBRANCH  19  20
ENDBRANCH  18  19
ENDBRANCH  15  18
ENDBRANCH   1  14
BRANCH   1  26
ATOM     26  CB  VAL A   1       3.702   2.566  19.747  0.00  0.00    +0.000 C 
ATOM     27  CG1 VAL A   1       2.519   2.502  20.718  0.00  0.00    +0.000 C 
ATOM     28  CG2 VAL A   1       3.490   1.511  18.650  0.00  0.00    +0.000 C 
ENDBRANCH   1  26
TORSDOF 10
ENDMDL
MODEL 5
REMARK VINA RESULT:      -7.0      3.117      7.555
REMARK  Name = 
REMARK  14 active torsions:
REMARK  status: ('A' for Active; 'I' for Inactive)
REMARK    1  A    between atoms: CG1_1  and  CB_2
REMARK    2  A    between atoms: CB_2  and  CG2_3
REMARK    3  A    between atoms: CB_2  and  CA_4
REMARK    4  A    between atoms: CA_4  and  N_5
REMARK    5  A    between atoms: CA_4  and  C_23
REMARK    6  A    between atoms: C_6  and  CA_8
REMARK    7  A    between atoms: CA_8  and  N_9
REMARK    8  A    between atoms: CA_8  and  CB_20
REMARK    9  A    between atoms: C_10  and  O_12
REMARK   10  A    between atoms: O_12  and  C_13
REMARK   11  A    between atoms: C_13  and  C_14
REMARK   12  A    between atoms: CB_20  and  CG1_21
REMARK   13  A    between atoms: CB_20  and  CG2_22
REMARK   14  A    between atoms: C_23  and  OXT_25
REMARK                            x       y       z     vdW  Elec       q    Type
REMARK                         _______ _______ _______ _____ _____    ______ ____
ROOT
ATOM      1  CA  VAL A   1       3.564   6.366  18.331  0.00  0.00    +0.000 C 
ENDROOT
BRANCH   1   3
ATOM      2  N   VAL A   1       3.452   4.094  19.247  0.00  0.00    +0.000 N 
ATOM      3  C   VAL A   1       2.858   4.999  18.395  0.00  0.00    +0.000 C 
ATOM      4  O   VAL A   1       1.908   4.676  17.685  0.00  0.00    +0.000 OA
ATOM      5  H   VAL A   1       4.401   4.293  19.537  0.00  0.00    +0.000 HD
BRANCH   2   6
ATOM      6  CA  VAL A   1       2.993   2.706  19.386  0.00  0.00    +0.000 C 
BRANCH   6   8
ATOM      7  CG1 VAL A   1       2.231   3.467  21.741  0.00  0.00    +0.000 C 
ATOM      8  CB  VAL A   1       1.961   2.563  20.531  0.00  0.00    +0.000 C 
ATOM      9  CG2 VAL A   1       0.539   2.820  20.015  0.00  0.00    +0.000 C 
ENDBRANCH   6   8
BRANCH   6  10
ATOM     10  C   VAL A   1       4.188   1.731  19.523  0.00  0.00    +0.000 C 
ATOM     11  O   VAL A   1       5.029   1.773  20.411  0.00  0.00    +0.000 OA
BRANCH  10  12
ATOM     12  OXT VAL A   1       4.185   0.734  18.605  0.00  0.00    +0.000 OA
ATOM     13  HXT VAL A   1       3.282   0.526  18.262  0.00  0.00    +0.000 HD
ENDBRANCH  10  12
ENDBRANCH   6  10
ENDBRANCH   2   6
ENDBRANCH   1   3
BRANCH   1  14
ATOM     14  N   VAL A   1       3.760   6.707  16.934  0.00  0.00    +0.000 N 
ATOM     15  C   UNK A   0       4.933   6.506  16.265  0.00  0.00    +0.000 C 
ATOM     16  O   UNK A   0       5.327   7.277  15.407  0.00  0.00    +0.000 OA
ATOM     17  H   VAL A   1       2.960   6.785  16.324  0.00  0.00    +0.000 HD
BRANCH  15  18
ATOM     18  O   UNK A   0       5.545   5.362  16.657  0.00  0.00    +0.000 OA
BRANCH  18  19
ATOM     19  C   UNK A   0       5.272   4.203  15.851  0.00  0.00    +0.000 C 
BRANCH  19  20
ATOM     20  C   UNK A   0       5.951   4.195  14.502  0.00  0.00    +0.000 A 
ATOM     21  C   UNK A   0       7.164   4.890  14.336  0.00  0.00    +0.000 A 
ATOM     22  C   UNK A   0       7.803   4.924  13.091  0.00  0.00    +0.000 A 
ATOM     23  C   UNK A   0       7.238   4.263  12.007  0.00  0.00    +0.000 A 
ATOM     24  C   UNK A   0       6.046   3.565  12.163  0.00  0.00    +0.000 A 
ATOM     25  C   UNK A   0       5.406   3.527  13.404  0.00  0.00    +0.000 A 
ENDBRANCH  19  20
ENDBRANCH  18  19
ENDBRANCH  15  18
ENDBRANCH   1  14
BRANCH   1  26
ATOM     26  CB  VAL A   1       2.772   7.471  19.066  0.00  0.00    +0.000 C 
ATOM     27  CG1 VAL A   1       1.886   8.265  18.102  0.00  0.00    +0.000 C 
ATOM     28  CG2 VAL A   1       1.882   6.877  20.169  0.00  0.00    +0.000 C 
ENDBRANCH   1  26
TORSDOF 10
ENDMDL
MODEL 6
REMARK VINA RESULT:      -7.0      2.532      5.199
REMARK  Name = 
REMARK  14 active torsions:
REMARK  status: ('A' for Active; 'I' for Inactive)
REMARK    1  A    between atoms: CG1_1  and  CB_2
REMARK    2  A    between atoms: CB_2  and  CG2_3
REMARK    3  A    between atoms: CB_2  and  CA_4
REMARK    4  A    between atoms: CA_4  and  N_5
REMARK    5  A    between atoms: CA_4  and  C_23
REMARK    6  A    between atoms: C_6  and  CA_8
REMARK    7  A    between atoms: CA_8  and  N_9
REMARK    8  A    between atoms: CA_8  and  CB_20
REMARK    9  A    between atoms: C_10  and  O_12
REMARK   10  A    between atoms: O_12  and  C_13
REMARK   11  A    between atoms: C_13  and  C_14
REMARK   12  A    between atoms: CB_20  and  CG1_21
REMARK   13  A    between atoms: CB_20  and  CG2_22
REMARK   14  A    between atoms: C_23  and  OXT_25
REMARK                            x       y       z     vdW  Elec       q    Type
REMARK                         _______ _______ _______ _____ _____    ______ ____
ROOT
ATOM      1  CA  VAL A   1       6.132   5.806  17.298  0.00  0.00    +0.000 C 
ENDROOT
BRANCH   1   3
ATOM      2  N   VAL A   1       6.705   5.094  15.022  0.00  0.00    +0.000 N 
ATOM      3  C   VAL A   1       5.878   5.893  15.782  0.00  0.00    +0.000 C 
ATOM      4  O   VAL A   1       5.087   6.672  15.255  0.00  0.00    +0.000 OA
ATOM      5  H   VAL A   1       7.542   4.744  15.471  0.00  0.00    +0.000 HD
BRANCH   2   6
ATOM      6  CA  VAL A   1       6.692   5.097  13.554  0.00  0.00    +0.000 C 
BRANCH   6   8
ATOM      7  CG1 VAL A   1       4.912   3.487  12.581  0.00  0.00    +0.000 C 
ATOM      8  CB  VAL A   1       6.377   3.690  12.989  0.00  0.00    +0.000 C 
ATOM      9  CG2 VAL A   1       7.285   3.369  11.794  0.00  0.00    +0.000 C 
ENDBRANCH   6   8
BRANCH   6  10
ATOM     10  C   VAL A   1       7.998   5.701  12.982  0.00  0.00    +0.000 C 
ATOM     11  O   VAL A   1       9.104   5.591  13.493  0.00  0.00    +0.000 OA
BRANCH  10  12
ATOM     12  OXT VAL A   1       7.836   6.307  11.780  0.00  0.00    +0.000 OA
ATOM     13  HXT VAL A   1       8.556   6.949  11.570  0.00  0.00    +0.000 HD
ENDBRANCH  10  12
ENDBRANCH   6  10
ENDBRANCH   2   6
ENDBRANCH   1   3
BRANCH   1  14
ATOM     14  N   VAL A   1       5.930   4.429  17.710  0.00  0.00    +0.000 N 
ATOM     15  C   UNK A   0       4.967   4.039  18.595  0.00  0.00    +0.000 C 
ATOM     16  O   UNK A   0       5.149   3.132  19.390  0.00  0.00    +0.000 OA
ATOM     17  H   VAL A   1       6.257   3.680  17.118  0.00  0.00    +0.000 HD
BRANCH  15  18
ATOM     18  O   UNK A   0       3.825   4.754  18.443  0.00  0.00    +0.000 OA
BRANCH  18  19
ATOM     19  C   UNK A   0       3.385   5.476  19.605  0.00  0.00    +0.000 C 
BRANCH  19  20
ATOM     20  C   UNK A   0       2.695   6.788  19.313  0.00  0.00    +0.000 A 
ATOM     21  C   UNK A   0       2.836   7.373  18.041  0.00  0.00    +0.000 A 
ATOM     22  C   UNK A   0       2.232   8.602  17.749  0.00  0.00    +0.000 A 
ATOM     23  C   UNK A   0       1.482   9.250  18.723  0.00  0.00    +0.000 A 
ATOM     24  C   UNK A   0       1.328   8.675  19.978  0.00  0.00    +0.000 A 
ATOM     25  C   UNK A   0       1.927   7.448  20.274  0.00  0.00    +0.000 A 
ENDBRANCH  19  20
ENDBRANCH  18  19
ENDBRANCH  15  18
ENDBRANCH   1  14
BRANCH   1  26
ATOM     26  CB  VAL A   1       7.544   6.300  17.688  0.00  0.00    +0.000 C 
ATOM     27  CG1 VAL A   1       7.660   7.822  17.565  0.00  0.00    +0.000 C 
ATOM     28  CG2 VAL A   1       7.894   5.899  19.129  0.00  0.00    +0.000 C 
ENDBRANCH   1  26
TORSDOF 10
ENDMDL
MODEL 7
REMARK VINA RESULT:      -6.9      2.035      8.132
REMARK  Name = 
REMARK  14 active torsions:
REMARK  status: ('A' for Active; 'I' for Inactive)
REMARK    1  A    between atoms: CG1_1  and  CB_2
REMARK    2  A    between atoms: CB_2  and  CG2_3
REMARK    3  A    between atoms: CB_2  and  CA_4
REMARK    4  A    between atoms: CA_4  and  N_5
REMARK    5  A    between atoms: CA_4  and  C_23
REMARK    6  A    between atoms: C_6  and  CA_8
REMARK    7  A    between atoms: CA_8  and  N_9
REMARK    8  A    between atoms: CA_8  and  CB_20
REMARK    9  A    between atoms: C_10  and  O_12
REMARK   10  A    between atoms: O_12  and  C_13
REMARK   11  A    between atoms: C_13  and  C_14
REMARK   12  A    between atoms: CB_20  and  CG1_21
REMARK   13  A    between atoms: CB_20  and  CG2_22
REMARK   14  A    between atoms: C_23  and  OXT_25
REMARK                            x       y       z     vdW  Elec       q    Type
REMARK                         _______ _______ _______ _____ _____    ______ ____
ROOT
ATOM      1  CA  VAL A   1       3.070   5.757  18.330  0.00  0.00    +0.000 C 
ENDROOT
BRANCH   1   3
ATOM      2  N   VAL A   1       1.923   7.708  19.274  0.00  0.00    +0.000 N 
ATOM      3  C   VAL A   1       2.898   7.286  18.397  0.00  0.00    +0.000 C 
ATOM      4  O   VAL A   1       3.490   8.081  17.671  0.00  0.00    +0.000 OA
ATOM      5  H   VAL A   1       1.251   7.015  19.581  0.00  0.00    +0.000 HD
BRANCH   2   6
ATOM      6  CA  VAL A   1       1.535   9.117  19.421  0.00  0.00    +0.000 C 
BRANCH   6   8
ATOM      7  CG1 VAL A   1       1.075   8.681  21.932  0.00  0.00    +0.000 C 
ATOM      8  CB  VAL A   1       0.584   9.318  20.626  0.00  0.00    +0.000 C 
ATOM      9  CG2 VAL A   1       0.314  10.811  20.861  0.00  0.00    +0.000 C 
ENDBRANCH   6   8
BRANCH   6  10
ATOM     10  C   VAL A   1       0.965   9.684  18.098  0.00  0.00    +0.000 C 
ATOM     11  O   VAL A   1      -0.189   9.549  17.717  0.00  0.00    +0.000 OA
BRANCH  10  12
ATOM     12  OXT VAL A   1       1.849  10.447  17.408  0.00  0.00    +0.000 OA
ATOM     13  HXT VAL A   1       2.568   9.919  16.985  0.00  0.00    +0.000 HD
ENDBRANCH  10  12
ENDBRANCH   6  10
ENDBRANCH   2   6
ENDBRANCH   1   3
BRANCH   1  14
ATOM     14  N   VAL A   1       4.386   5.429  18.846  0.00  0.00    +0.000 N 
ATOM     15  C   UNK A   0       5.334   4.762  18.126  0.00  0.00    +0.000 C 
ATOM     16  O   UNK A   0       6.102   3.970  18.646  0.00  0.00    +0.000 OA
ATOM     17  H   VAL A   1       4.768   5.964  19.612  0.00  0.00    +0.000 HD
BRANCH  15  18
ATOM     18  O   UNK A   0       5.314   5.117  16.818  0.00  0.00    +0.000 OA
BRANCH  18  19
ATOM     19  C   UNK A   0       5.153   4.037  15.883  0.00  0.00    +0.000 C 
BRANCH  19  20
ATOM     20  C   UNK A   0       5.914   4.201  14.588  0.00  0.00    +0.000 A 
ATOM     21  C   UNK A   0       5.486   3.504  13.443  0.00  0.00    +0.000 A 
ATOM     22  C   UNK A   0       6.186   3.613  12.236  0.00  0.00    +0.000 A 
ATOM     23  C   UNK A   0       7.315   4.421  12.164  0.00  0.00    +0.000 A 
ATOM     24  C   UNK A   0       7.739   5.123  13.286  0.00  0.00    +0.000 A 
ATOM     25  C   UNK A   0       7.042   5.018  14.492  0.00  0.00    +0.000 A 
ENDBRANCH  19  20
ENDBRANCH  18  19
ENDBRANCH  15  18
ENDBRANCH   1  14
BRANCH   1  26
ATOM     26  CB  VAL A   1       1.965   5.006  19.109  0.00  0.00    +0.000 C 
ATOM     27  CG1 VAL A   1       1.414   3.825  18.305  0.00  0.00    +0.000 C 
ATOM     28  CG2 VAL A   1       2.495   4.478  20.452  0.00  0.00    +0.000 C 
ENDBRANCH   1  26
TORSDOF 10
ENDMDL
MODEL 8
REMARK VINA RESULT:      -6.9      4.372      8.368
REMARK  Name = 
REMARK  14 active torsions:
REMARK  status: ('A' for Active; 'I' for Inactive)
REMARK    1  A    between atoms: CG1_1  and  CB_2
REMARK    2  A    between atoms: CB_2  and  CG2_3
REMARK    3  A    between atoms: CB_2  and  CA_4
REMARK    4  A    between atoms: CA_4  and  N_5
REMARK    5  A    between atoms: CA_4  and  C_23
REMARK    6  A    between atoms: C_6  and  CA_8
REMARK    7  A    between atoms: CA_8  and  N_9
REMARK    8  A    between atoms: CA_8  and  CB_20
REMARK    9  A    between atoms: C_10  and  O_12
REMARK   10  A    between atoms: O_12  and  C_13
REMARK   11  A    between atoms: C_13  and  C_14
REMARK   12  A    between atoms: CB_20  and  CG1_21
REMARK   13  A    between atoms: CB_20  and  CG2_22
REMARK   14  A    between atoms: C_23  and  OXT_25
REMARK                            x       y       z     vdW  Elec       q    Type
REMARK                         _______ _______ _______ _____ _____    ______ ____
ROOT
ATOM      1  CA  VAL A   1       6.089   5.304  17.829  0.00  0.00    +0.000 C 
ENDROOT
BRANCH   1   3
ATOM      2  N   VAL A   1       4.622   3.384  18.245  0.00  0.00    +0.000 N 
ATOM      3  C   VAL A   1       5.157   4.534  18.783  0.00  0.00    +0.000 C 
ATOM      4  O   VAL A   1       4.817   4.935  19.893  0.00  0.00    +0.000 OA
ATOM      5  H   VAL A   1       4.663   3.286  17.238  0.00  0.00    +0.000 HD
BRANCH   2   6
ATOM      6  CA  VAL A   1       3.638   2.553  18.951  0.00  0.00    +0.000 C 
BRANCH   6   8
ATOM      7  CG1 VAL A   1       2.013   4.217  17.814  0.00  0.00    +0.000 C 
ATOM      8  CB  VAL A   1       2.238   3.212  18.951  0.00  0.00    +0.000 C 
ATOM      9  CG2 VAL A   1       1.135   2.144  18.907  0.00  0.00    +0.000 C 
ENDBRANCH   6   8
BRANCH   6  10
ATOM     10  C   VAL A   1       4.132   2.182  20.371  0.00  0.00    +0.000 C 
ATOM     11  O   VAL A   1       5.176   1.594  20.619  0.00  0.00    +0.000 OA
BRANCH  10  12
ATOM     12  OXT VAL A   1       3.338   2.654  21.363  0.00  0.00    +0.000 OA
ATOM     13  HXT VAL A   1       2.741   1.964  21.742  0.00  0.00    +0.000 HD
ENDBRANCH  10  12
ENDBRANCH   6  10
ENDBRANCH   2   6
ENDBRANCH   1   3
BRANCH   1  14
ATOM     14  N   VAL A   1       5.267   5.966  16.833  0.00  0.00    +0.000 N 
ATOM     15  C   UNK A   0       5.486   5.872  15.489  0.00  0.00    +0.000 C 
ATOM     16  O   UNK A   0       5.282   6.808  14.734  0.00  0.00    +0.000 OA
ATOM     17  H   VAL A   1       4.323   6.235  17.066  0.00  0.00    +0.000 HD
BRANCH  15  18
ATOM     18  O   UNK A   0       5.913   4.635  15.135  0.00  0.00    +0.000 OA
BRANCH  18  19
ATOM     19  C   UNK A   0       6.689   4.568  13.926  0.00  0.00    +0.000 C 
BRANCH  19  20
ATOM     20  C   UNK A   0       6.096   3.702  12.840  0.00  0.00    +0.000 A 
ATOM     21  C   UNK A   0       4.764   3.917  12.436  0.00  0.00    +0.000 A 
ATOM     22  C   UNK A   0       4.177   3.113  11.452  0.00  0.00    +0.000 A 
ATOM     23  C   UNK A   0       4.917   2.094  10.862  0.00  0.00    +0.000 A 
ATOM     24  C   UNK A   0       6.236   1.882  11.246  0.00  0.00    +0.000 A 
ATOM     25  C   UNK A   0       6.826   2.683  12.227  0.00  0.00    +0.000 A 
ENDBRANCH  19  20
ENDBRANCH  18  19
ENDBRANCH  15  18
ENDBRANCH   1  14
BRANCH   1  26
ATOM     26  CB  VAL A   1       6.984   6.320  18.575  0.00  0.00    +0.000 C 
ATOM     27  CG1 VAL A   1       8.114   5.621  19.335  0.00  0.00    +0.000 C 
ATOM     28  CG2 VAL A   1       7.605   7.333  17.600  0.00  0.00    +0.000 C 
ENDBRANCH   1  26
TORSDOF 10
ENDMDL
MODEL 9
REMARK VINA RESULT:      -6.8      2.392      4.533
REMARK  Name = 
REMARK  14 active torsions:
REMARK  status: ('A' for Active; 'I' for Inactive)
REMARK    1  A    between atoms: CG1_1  and  CB_2
REMARK    2  A    between atoms: CB_2  and  CG2_3
REMARK    3  A    between atoms: CB_2  and  CA_4
REMARK    4  A    between atoms: CA_4  and  N_5
REMARK    5  A    between atoms: CA_4  and  C_23
REMARK    6  A    between atoms: C_6  and  CA_8
REMARK    7  A    between atoms: CA_8  and  N_9
REMARK    8  A    between atoms: CA_8  and  CB_20
REMARK    9  A    between atoms: C_10  and  O_12
REMARK   10  A    between atoms: O_12  and  C_13
REMARK   11  A    between atoms: C_13  and  C_14
REMARK   12  A    between atoms: CB_20  and  CG1_21
REMARK   13  A    between atoms: CB_20  and  CG2_22
REMARK   14  A    between atoms: C_23  and  OXT_25
REMARK                            x       y       z     vdW  Elec       q    Type
REMARK                         _______ _______ _______ _____ _____    ______ ____
ROOT
ATOM      1  CA  VAL A   1       4.612   4.637  16.623  0.00  0.00    +0.000 C 
ENDROOT
BRANCH   1   3
ATOM      2  N   VAL A   1       4.163   3.605  18.802  0.00  0.00    +0.000 N 
ATOM      3  C   VAL A   1       3.805   3.637  17.472  0.00  0.00    +0.000 C 
ATOM      4  O   VAL A   1       2.979   2.849  17.016  0.00  0.00    +0.000 OA
ATOM      5  H   VAL A   1       5.056   4.015  19.046  0.00  0.00    +0.000 HD
BRANCH   2   6
ATOM      6  CA  VAL A   1       3.583   2.659  19.764  0.00  0.00    +0.000 C 
BRANCH   6   8
ATOM      7  CG1 VAL A   1       2.363   4.781  20.608  0.00  0.00    +0.000 C 
ATOM      8  CB  VAL A   1       2.925   3.396  20.955  0.00  0.00    +0.000 C 
ATOM      9  CG2 VAL A   1       1.813   2.540  21.577  0.00  0.00    +0.000 C 
ENDBRANCH   6   8
BRANCH   6  10
ATOM     10  C   VAL A   1       4.622   1.600  20.206  0.00  0.00    +0.000 C 
ATOM     11  O   VAL A   1       5.198   1.591  21.286  0.00  0.00    +0.000 OA
BRANCH  10  12
ATOM     12  OXT VAL A   1       4.788   0.594  19.313  0.00  0.00    +0.000 OA
ATOM     13  HXT VAL A   1       4.077  -0.089  19.363  0.00  0.00    +0.000 HD
ENDBRANCH  10  12
ENDBRANCH   6  10
ENDBRANCH   2   6
ENDBRANCH   1   3
BRANCH   1  14
ATOM     14  N   VAL A   1       5.234   5.591  17.522  0.00  0.00    +0.000 N 
ATOM     15  C   UNK A   0       5.026   6.939  17.453  0.00  0.00    +0.000 C 
ATOM     16  O   UNK A   0       5.910   7.742  17.701  0.00  0.00    +0.000 OA
ATOM     17  H   VAL A   1       5.564   5.283  18.424  0.00  0.00    +0.000 HD
BRANCH  15  18
ATOM     18  O   UNK A   0       3.747   7.234  17.115  0.00  0.00    +0.000 OA
BRANCH  18  19
ATOM     19  C   UNK A   0       2.764   7.000  18.137  0.00  0.00    +0.000 C 
BRANCH  19  20
ATOM     20  C   UNK A   0       2.092   8.245  18.666  0.00  0.00    +0.000 A 
ATOM     21  C   UNK A   0       2.038   9.397  17.859  0.00  0.00    +0.000 A 
ATOM     22  C   UNK A   0       1.446  10.574  18.331  0.00  0.00    +0.000 A 
ATOM     23  C   UNK A   0       0.902  10.608  19.609  0.00  0.00    +0.000 A 
ATOM     24  C   UNK A   0       0.939   9.473  20.410  0.00  0.00    +0.000 A 
ATOM     25  C   UNK A   0       1.528   8.295  19.942  0.00  0.00    +0.000 A 
ENDBRANCH  19  20
ENDBRANCH  18  19
ENDBRANCH  15  18
ENDBRANCH   1  14
BRANCH   1  26
ATOM     26  CB  VAL A   1       5.670   3.938  15.739  0.00  0.00    +0.000 C 
ATOM     27  CG1 VAL A   1       5.506   4.315  14.263  0.00  0.00    +0.000 C 
ATOM     28  CG2 VAL A   1       7.095   4.306  16.181  0.00  0.00    +0.000 C 
ENDBRANCH   1  26
TORSDOF 10
ENDMDL
