MODEL 1
REMARK VINA RESULT:      -5.7      0.000      0.000
REMARK  Name = 
REMARK  4 active torsions:
REMARK  status: ('A' for Active; 'I' for Inactive)
REMARK    1  A    between atoms: N_1  and  C_2
REMARK    2  A    between atoms: C_2  and  C_3
REMARK    3  A    between atoms: C_3  and  N_4
REMARK    4  A    between atoms: C_12  and  O_13
REMARK                            x       y       z     vdW  Elec       q    Type
REMARK                         _______ _______ _______ _____ _____    ______ ____
ROOT
ATOM      1  N   UNL     1       4.894   4.993  18.579  0.00  0.00    +0.000 N 
ATOM      2  C   UNL     1       3.944   5.848  18.036  0.00  0.00    +0.000 A 
ATOM      3  N   UNL     1       2.701   5.578  17.780  0.00  0.00    +0.000 NA
ATOM      4  C   UNL     1       2.318   4.309  18.092  0.00  0.00    +0.000 A 
ATOM      5  N   UNL     1       1.146   3.771  17.956  0.00  0.00    +0.000 NA
ATOM      6  C   UNL     1       1.352   2.475  18.418  0.00  0.00    +0.000 A 
ATOM      7  N   UNL     1       2.554   2.155  18.827  0.00  0.00    +0.000 NA
ATOM      8  C   UNL     1       3.237   3.321  18.643  0.00  0.00    +0.000 A 
ATOM      9  C   UNL     1       4.501   3.689  18.866  0.00  0.00    +0.000 A 
ENDROOT
BRANCH   9  10
ATOM     10  O   UNL     1       5.426   2.804  19.375  0.00  0.00    +0.000 OA
ATOM     11  H   UNL     1       4.977   1.934  19.387  0.00  0.00    +0.000 HD
ENDBRANCH   9  10
BRANCH   1  12
ATOM     12  C   UNL     1       6.263   5.464  18.818  0.00  0.00    +0.000 C 
BRANCH  12  13
ATOM     13  C   UNL     1       7.134   5.273  17.565  0.00  0.00    +0.000 C 
BRANCH  13  14
ATOM     14  N   UNL     1       8.034   4.122  17.685  0.00  0.00    +0.000 NA
ATOM     15  H   UNL     1       8.999   4.450  17.668  0.00  0.00    +0.000 HD
ATOM     16  H   UNL     1       7.932   3.526  16.862  0.00  0.00    +0.000 HD
ENDBRANCH  13  14
ENDBRANCH  12  13
ENDBRANCH   1  12
TORSDOF 4
ENDMDL
MODEL 2
REMARK VINA RESULT:      -5.6      1.793      1.810
REMARK  Name = 
REMARK  4 active torsions:
REMARK  status: ('A' for Active; 'I' for Inactive)
REMARK    1  A    between atoms: N_1  and  C_2
REMARK    2  A    between atoms: C_2  and  C_3
REMARK    3  A    between atoms: C_3  and  N_4
REMARK    4  A    between atoms: C_12  and  O_13
REMARK                            x       y       z     vdW  Elec       q    Type
REMARK                         _______ _______ _______ _____ _____    ______ ____
ROOT
ATOM      1  N   UNL     1       4.895   4.574  19.111  0.00  0.00    +0.000 N 
ATOM      2  C   UNL     1       4.116   5.723  19.130  0.00  0.00    +0.000 A 
ATOM      3  N   UNL     1       2.907   5.845  19.585  0.00  0.00    +0.000 NA
ATOM      4  C   UNL     1       2.373   4.700  20.095  0.00  0.00    +0.000 A 
ATOM      5  N   UNL     1       1.201   4.530  20.623  0.00  0.00    +0.000 NA
ATOM      6  C   UNL     1       1.208   3.177  20.947  0.00  0.00    +0.000 A 
ATOM      7  N   UNL     1       2.283   2.485  20.663  0.00  0.00    +0.000 NA
ATOM      8  C   UNL     1       3.091   3.432  20.104  0.00  0.00    +0.000 A 
ATOM      9  C   UNL     1       4.330   3.403  19.607  0.00  0.00    +0.000 A 
ENDROOT
BRANCH   9  10
ATOM     10  O   UNL     1       5.061   2.235  19.574  0.00  0.00    +0.000 OA
ATOM     11  H   UNL     1       4.793   1.781  18.750  0.00  0.00    +0.000 HD
ENDBRANCH   9  10
BRANCH   1  12
ATOM     12  C   UNL     1       6.257   4.611  18.568  0.00  0.00    +0.000 C 
BRANCH  12  13
ATOM     13  C   UNL     1       7.050   5.790  19.156  0.00  0.00    +0.000 C 
BRANCH  13  14
ATOM     14  N   UNL     1       7.915   5.377  20.266  0.00  0.00    +0.000 NA
ATOM     15  H   UNL     1       7.346   4.926  20.982  0.00  0.00    +0.000 HD
ATOM     16  H   UNL     1       8.311   6.205  20.711  0.00  0.00    +0.000 HD
ENDBRANCH  13  14
ENDBRANCH  12  13
ENDBRANCH   1  12
TORSDOF 4
ENDMDL
MODEL 3
REMARK VINA RESULT:      -5.5      1.695      2.062
REMARK  Name = 
REMARK  4 active torsions:
REMARK  status: ('A' for Active; 'I' for Inactive)
REMARK    1  A    between atoms: N_1  and  C_2
REMARK    2  A    between atoms: C_2  and  C_3
REMARK    3  A    between atoms: C_3  and  N_4
REMARK    4  A    between atoms: C_12  and  O_13
REMARK                            x       y       z     vdW  Elec       q    Type
REMARK                         _______ _______ _______ _____ _____    ______ ____
ROOT
ATOM      1  N   UNL     1       3.791   3.454  17.710  0.00  0.00    +0.000 N 
ATOM      2  C   UNL     1       2.494   3.710  17.287  0.00  0.00    +0.000 A 
ATOM      3  N   UNL     1       1.412   3.660  18.001  0.00  0.00    +0.000 NA
ATOM      4  C   UNL     1       1.605   3.317  19.305  0.00  0.00    +0.000 A 
ATOM      5  N   UNL     1       0.716   3.202  20.242  0.00  0.00    +0.000 NA
ATOM      6  C   UNL     1       1.481   2.823  21.341  0.00  0.00    +0.000 A 
ATOM      7  N   UNL     1       2.772   2.687  21.170  0.00  0.00    +0.000 NA
ATOM      8  C   UNL     1       2.919   3.004  19.851  0.00  0.00    +0.000 A 
ATOM      9  C   UNL     1       3.975   3.075  19.037  0.00  0.00    +0.000 A 
ENDROOT
BRANCH   9  10
ATOM     10  O   UNL     1       5.245   2.781  19.484  0.00  0.00    +0.000 OA
ATOM     11  H   UNL     1       5.853   3.179  18.827  0.00  0.00    +0.000 HD
ENDBRANCH   9  10
BRANCH   1  12
ATOM     12  C   UNL     1       4.912   3.567  16.771  0.00  0.00    +0.000 C 
BRANCH  12  13
ATOM     13  C   UNL     1       5.797   4.776  17.117  0.00  0.00    +0.000 C 
BRANCH  13  14
ATOM     14  N   UNL     1       7.132   4.374  17.573  0.00  0.00    +0.000 NA
ATOM     15  H   UNL     1       7.604   3.874  16.820  0.00  0.00    +0.000 HD
ATOM     16  H   UNL     1       7.040   3.701  18.334  0.00  0.00    +0.000 HD
ENDBRANCH  13  14
ENDBRANCH  12  13
ENDBRANCH   1  12
TORSDOF 4
ENDMDL
MODEL 4
REMARK VINA RESULT:      -5.5      1.632      4.282
REMARK  Name = 
REMARK  4 active torsions:
REMARK  status: ('A' for Active; 'I' for Inactive)
REMARK    1  A    between atoms: N_1  and  C_2
REMARK    2  A    between atoms: C_2  and  C_3
REMARK    3  A    between atoms: C_3  and  N_4
REMARK    4  A    between atoms: C_12  and  O_13
REMARK                            x       y       z     vdW  Elec       q    Type
REMARK                         _______ _______ _______ _____ _____    ______ ____
ROOT
ATOM      1  N   UNL     1       3.259   3.821  19.023  0.00  0.00    +0.000 N 
ATOM      2  C   UNL     1       2.873   4.995  18.390  0.00  0.00    +0.000 A 
ATOM      3  N   UNL     1       3.648   5.911  17.895  0.00  0.00    +0.000 NA
ATOM      4  C   UNL     1       4.981   5.660  18.025  0.00  0.00    +0.000 A 
ATOM      5  N   UNL     1       5.974   6.387  17.618  0.00  0.00    +0.000 NA
ATOM      6  C   UNL     1       7.079   5.650  18.033  0.00  0.00    +0.000 A 
ATOM      7  N   UNL     1       6.861   4.527  18.670  0.00  0.00    +0.000 NA
ATOM      8  C   UNL     1       5.498   4.473  18.693  0.00  0.00    +0.000 A 
ATOM      9  C   UNL     1       4.622   3.589  19.179  0.00  0.00    +0.000 A 
ENDROOT
BRANCH   9  10
ATOM     10  O   UNL     1       5.042   2.451  19.831  0.00  0.00    +0.000 OA
ATOM     11  H   UNL     1       4.994   1.734  19.166  0.00  0.00    +0.000 HD
ENDBRANCH   9  10
BRANCH   1  12
ATOM     12  C   UNL     1       2.248   2.881  19.519  0.00  0.00    +0.000 C 
BRANCH  12  13
ATOM     13  C   UNL     1       1.783   3.270  20.932  0.00  0.00    +0.000 C 
BRANCH  13  14
ATOM     14  N   UNL     1       2.586   2.626  21.977  0.00  0.00    +0.000 NA
ATOM     15  H   UNL     1       2.467   3.138  22.851  0.00  0.00    +0.000 HD
ATOM     16  H   UNL     1       3.575   2.710  21.742  0.00  0.00    +0.000 HD
ENDBRANCH  13  14
ENDBRANCH  12  13
ENDBRANCH   1  12
TORSDOF 4
ENDMDL
MODEL 5
REMARK VINA RESULT:      -5.3      1.276      4.184
REMARK  Name = 
REMARK  4 active torsions:
REMARK  status: ('A' for Active; 'I' for Inactive)
REMARK    1  A    between atoms: N_1  and  C_2
REMARK    2  A    between atoms: C_2  and  C_3
REMARK    3  A    between atoms: C_3  and  N_4
REMARK    4  A    between atoms: C_12  and  O_13
REMARK                            x       y       z     vdW  Elec       q    Type
REMARK                         _______ _______ _______ _____ _____    ______ ____
ROOT
ATOM      1  N   UNL     1       3.506   4.228  19.164  0.00  0.00    +0.000 N 
ATOM      2  C   UNL     1       3.194   5.473  18.635  0.00  0.00    +0.000 A 
ATOM      3  N   UNL     1       4.008   6.315  18.078  0.00  0.00    +0.000 NA
ATOM      4  C   UNL     1       5.304   5.900  18.019  0.00  0.00    +0.000 A 
ATOM      5  N   UNL     1       6.322   6.524  17.511  0.00  0.00    +0.000 NA
ATOM      6  C   UNL     1       7.369   5.638  17.746  0.00  0.00    +0.000 A 
ATOM      7  N   UNL     1       7.093   4.515  18.362  0.00  0.00    +0.000 NA
ATOM      8  C   UNL     1       5.748   4.624  18.565  0.00  0.00    +0.000 A 
ATOM      9  C   UNL     1       4.838   3.826  19.127  0.00  0.00    +0.000 A 
ENDROOT
BRANCH   9  10
ATOM     10  O   UNL     1       5.190   2.611  19.673  0.00  0.00    +0.000 OA
ATOM     11  H   UNL     1       6.048   2.761  20.119  0.00  0.00    +0.000 HD
ENDBRANCH   9  10
BRANCH   1  12
ATOM     12  C   UNL     1       2.456   3.390  19.753  0.00  0.00    +0.000 C 
BRANCH  12  13
ATOM     13  C   UNL     1       1.687   2.626  18.662  0.00  0.00    +0.000 C 
BRANCH  13  14
ATOM     14  N   UNL     1       2.537   1.660  17.958  0.00  0.00    +0.000 NA
ATOM     15  H   UNL     1       3.476   1.690  18.356  0.00  0.00    +0.000 HD
ATOM     16  H   UNL     1       2.642   1.948  16.985  0.00  0.00    +0.000 HD
ENDBRANCH  13  14
ENDBRANCH  12  13
ENDBRANCH   1  12
TORSDOF 4
ENDMDL
MODEL 6
REMARK VINA RESULT:      -5.3      1.330      1.484
REMARK  Name = 
REMARK  4 active torsions:
REMARK  status: ('A' for Active; 'I' for Inactive)
REMARK    1  A    between atoms: N_1  and  C_2
REMARK    2  A    between atoms: C_2  and  C_3
REMARK    3  A    between atoms: C_3  and  N_4
REMARK    4  A    between atoms: C_12  and  O_13
REMARK                            x       y       z     vdW  Elec       q    Type
REMARK                         _______ _______ _______ _____ _____    ______ ____
ROOT
ATOM      1  N   UNL     1       5.753   4.920  18.093  0.00  0.00    +0.000 N 
ATOM      2  C   UNL     1       5.157   5.987  17.435  0.00  0.00    +0.000 A 
ATOM      3  N   UNL     1       3.887   6.218  17.305  0.00  0.00    +0.000 NA
ATOM      4  C   UNL     1       3.077   5.294  17.892  0.00  0.00    +0.000 A 
ATOM      5  N   UNL     1       1.781   5.276  17.932  0.00  0.00    +0.000 NA
ATOM      6  C   UNL     1       1.515   4.109  18.641  0.00  0.00    +0.000 A 
ATOM      7  N   UNL     1       2.535   3.393  19.044  0.00  0.00    +0.000 NA
ATOM      8  C   UNL     1       3.594   4.122  18.587  0.00  0.00    +0.000 A 
ATOM      9  C   UNL     1       4.917   3.965  18.663  0.00  0.00    +0.000 A 
ENDROOT
BRANCH   9  10
ATOM     10  O   UNL     1       5.473   2.874  19.296  0.00  0.00    +0.000 OA
ATOM     11  H   UNL     1       5.280   2.996  20.248  0.00  0.00    +0.000 HD
ENDBRANCH   9  10
BRANCH   1  12
ATOM     12  C   UNL     1       7.215   4.813  18.158  0.00  0.00    +0.000 C 
BRANCH  12  13
ATOM     13  C   UNL     1       7.805   5.901  19.071  0.00  0.00    +0.000 C 
BRANCH  13  14
ATOM     14  N   UNL     1       8.038   5.413  20.434  0.00  0.00    +0.000 NA
ATOM     15  H   UNL     1       7.586   6.044  21.096  0.00  0.00    +0.000 HD
ATOM     16  H   UNL     1       9.036   5.464  20.645  0.00  0.00    +0.000 HD
ENDBRANCH  13  14
ENDBRANCH  12  13
ENDBRANCH   1  12
TORSDOF 4
ENDMDL
MODEL 7
REMARK VINA RESULT:      -5.3      1.436      1.437
REMARK  Name = 
REMARK  4 active torsions:
REMARK  status: ('A' for Active; 'I' for Inactive)
REMARK    1  A    between atoms: N_1  and  C_2
REMARK    2  A    between atoms: C_2  and  C_3
REMARK    3  A    between atoms: C_3  and  N_4
REMARK    4  A    between atoms: C_12  and  O_13
REMARK                            x       y       z     vdW  Elec       q    Type
REMARK                         _______ _______ _______ _____ _____    ______ ____
ROOT
ATOM      1  N   UNL     1       5.059   5.048  18.132  0.00  0.00    +0.000 N 
ATOM      2  C   UNL     1       4.344   5.570  19.202  0.00  0.00    +0.000 A 
ATOM      3  N   UNL     1       3.304   5.051  19.778  0.00  0.00    +0.000 NA
ATOM      4  C   UNL     1       2.896   3.862  19.254  0.00  0.00    +0.000 A 
ATOM      5  N   UNL     1       1.903   3.119  19.633  0.00  0.00    +0.000 NA
ATOM      6  C   UNL     1       1.960   2.056  18.737  0.00  0.00    +0.000 A 
ATOM      7  N   UNL     1       2.902   2.073  17.827  0.00  0.00    +0.000 NA
ATOM      8  C   UNL     1       3.556   3.235  18.115  0.00  0.00    +0.000 A 
ATOM      9  C   UNL     1       4.616   3.848  17.583  0.00  0.00    +0.000 A 
ENDROOT
BRANCH   9  10
ATOM     10  O   UNL     1       5.281   3.317  16.499  0.00  0.00    +0.000 OA
ATOM     11  H   UNL     1       4.954   3.813  15.721  0.00  0.00    +0.000 HD
ENDBRANCH   9  10
BRANCH   1  12
ATOM     12  C   UNL     1       6.227   5.761  17.603  0.00  0.00    +0.000 C 
BRANCH  12  13
ATOM     13  C   UNL     1       7.513   5.308  18.313  0.00  0.00    +0.000 C 
BRANCH  13  14
ATOM     14  N   UNL     1       8.117   4.136  17.673  0.00  0.00    +0.000 NA
ATOM     15  H   UNL     1       8.571   3.563  18.385  0.00  0.00    +0.000 HD
ATOM     16  H   UNL     1       8.865   4.440  17.048  0.00  0.00    +0.000 HD
ENDBRANCH  13  14
ENDBRANCH  12  13
ENDBRANCH   1  12
TORSDOF 4
ENDMDL
MODEL 8
REMARK VINA RESULT:      -5.2      1.811      1.903
REMARK  Name = 
REMARK  4 active torsions:
REMARK  status: ('A' for Active; 'I' for Inactive)
REMARK    1  A    between atoms: N_1  and  C_2
REMARK    2  A    between atoms: C_2  and  C_3
REMARK    3  A    between atoms: C_3  and  N_4
REMARK    4  A    between atoms: C_12  and  O_13
REMARK                            x       y       z     vdW  Elec       q    Type
REMARK                         _______ _______ _______ _____ _____    ______ ____
ROOT
ATOM      1  N   UNL     1       4.600   4.236  17.919  0.00  0.00    +0.000 N 
ATOM      2  C   UNL     1       4.394   5.483  18.493  0.00  0.00    +0.000 A 
ATOM      3  N   UNL     1       3.651   5.761  19.520  0.00  0.00    +0.000 NA
ATOM      4  C   UNL     1       3.020   4.689  20.074  0.00  0.00    +0.000 A 
ATOM      5  N   UNL     1       2.234   4.668  21.104  0.00  0.00    +0.000 NA
ATOM      6  C   UNL     1       1.885   3.323  21.193  0.00  0.00    +0.000 A 
ATOM      7  N   UNL     1       2.384   2.503  20.303  0.00  0.00    +0.000 NA
ATOM      8  C   UNL     1       3.145   3.339  19.539  0.00  0.00    +0.000 A 
ATOM      9  C   UNL     1       3.927   3.151  18.473  0.00  0.00    +0.000 A 
ENDROOT
BRANCH   9  10
ATOM     10  O   UNL     1       4.082   1.903  17.910  0.00  0.00    +0.000 OA
ATOM     11  H   UNL     1       4.611   1.388  18.552  0.00  0.00    +0.000 HD
ENDBRANCH   9  10
BRANCH   1  12
ATOM     12  C   UNL     1       5.487   4.092  16.759  0.00  0.00    +0.000 C 
BRANCH  12  13
ATOM     13  C   UNL     1       6.734   4.979  16.909  0.00  0.00    +0.000 C 
BRANCH  13  14
ATOM     14  N   UNL     1       7.929   4.201  17.253  0.00  0.00    +0.000 NA
ATOM     15  H   UNL     1       7.643   3.337  17.714  0.00  0.00    +0.000 HD
ATOM     16  H   UNL     1       8.477   4.713  17.945  0.00  0.00    +0.000 HD
ENDBRANCH  13  14
ENDBRANCH  12  13
ENDBRANCH   1  12
TORSDOF 4
ENDMDL
MODEL 9
REMARK VINA RESULT:      -5.2      1.651      4.632
REMARK  Name = 
REMARK  4 active torsions:
REMARK  status: ('A' for Active; 'I' for Inactive)
REMARK    1  A    between atoms: N_1  and  C_2
REMARK    2  A    between atoms: C_2  and  C_3
REMARK    3  A    between atoms: C_3  and  N_4
REMARK    4  A    between atoms: C_12  and  O_13
REMARK                            x       y       z     vdW  Elec       q    Type
REMARK                         _______ _______ _______ _____ _____    ______ ____
ROOT
ATOM      1  N   UNL     1       3.737   4.436  17.816  0.00  0.00    +0.000 N 
ATOM      2  C   UNL     1       4.432   4.078  16.669  0.00  0.00    +0.000 A 
ATOM      3  N   UNL     1       5.713   4.142  16.475  0.00  0.00    +0.000 NA
ATOM      4  C   UNL     1       6.426   4.616  17.535  0.00  0.00    +0.000 A 
ATOM      5  N   UNL     1       7.710   4.776  17.628  0.00  0.00    +0.000 NA
ATOM      6  C   UNL     1       7.858   5.295  18.911  0.00  0.00    +0.000 A 
ATOM      7  N   UNL     1       6.776   5.477  19.626  0.00  0.00    +0.000 NA
ATOM      8  C   UNL     1       5.798   5.045  18.779  0.00  0.00    +0.000 A 
ATOM      9  C   UNL     1       4.471   4.948  18.882  0.00  0.00    +0.000 A 
ENDROOT
BRANCH   9  10
ATOM     10  O   UNL     1       3.811   5.345  20.025  0.00  0.00    +0.000 OA
ATOM     11  H   UNL     1       4.238   4.857  20.758  0.00  0.00    +0.000 HD
ENDBRANCH   9  10
BRANCH   1  12
ATOM     12  C   UNL     1       2.279   4.289  17.875  0.00  0.00    +0.000 C 
BRANCH  12  13
ATOM     13  C   UNL     1       1.888   2.871  18.321  0.00  0.00    +0.000 C 
BRANCH  13  14
ATOM     14  N   UNL     1       1.860   2.736  19.781  0.00  0.00    +0.000 NA
ATOM     15  H   UNL     1       0.892   2.640  20.088  0.00  0.00    +0.000 HD
ATOM     16  H   UNL     1       2.197   3.601  20.206  0.00  0.00    +0.000 HD
ENDBRANCH  13  14
ENDBRANCH  12  13
ENDBRANCH   1  12
TORSDOF 4
ENDMDL
