MODEL 1
REMARK VINA RESULT:      -7.7      0.000      0.000
REMARK  Name = 
REMARK  9 active torsions:
REMARK  status: ('A' for Active; 'I' for Inactive)
REMARK    1  A    between atoms: N_1  and  N_2
REMARK    2  A    between atoms: C_3  and  S_4
REMARK    3  A    between atoms: S_4  and  C_5
REMARK    4  A    between atoms: C_5  and  C_6
REMARK    5  A    between atoms: N_11  and  C_12
REMARK    6  A    between atoms: C_12  and  C_13
REMARK    7  A    between atoms: C_20  and  C_21
REMARK    8  A    between atoms: C_24  and  O_25
REMARK    9  A    between atoms: O_25  and  C_26
REMARK                            x       y       z     vdW  Elec       q    Type
REMARK                         _______ _______ _______ _____ _____    ______ ____
ROOT
ATOM      1  N   UNL     1       1.877   8.186  19.470  0.00  0.00    +0.000 N 
ATOM      2  C   UNL     1       1.121   9.335  19.422  0.00  0.00    +0.000 A 
ATOM      3  N   UNL     1       1.204   9.873  18.230  0.00  0.00    +0.000 NA
ATOM      4  N   UNL     1       2.022   9.062  17.467  0.00  0.00    +0.000 NA
ATOM      5  C   UNL     1       2.403   8.022  18.199  0.00  0.00    +0.000 A 
ENDROOT
BRANCH   5   6
ATOM      6  C   UNL     1       3.273   6.924  17.751  0.00  0.00    +0.000 A 
ATOM      7  C   UNL     1       4.538   7.205  17.214  0.00  0.00    +0.000 A 
ATOM      8  C   UNL     1       5.388   6.172  16.798  0.00  0.00    +0.000 A 
ATOM      9  C   UNL     1       4.998   4.838  16.919  0.00  0.00    +0.000 A 
ATOM     10  C   UNL     1       3.727   4.544  17.408  0.00  0.00    +0.000 A 
ATOM     11  C   UNL     1       2.874   5.580  17.814  0.00  0.00    +0.000 A 
BRANCH   9  12
ATOM     12  O   UNL     1       5.915   3.918  16.494  0.00  0.00    +0.000 OA
BRANCH  12  13
ATOM     13  C   UNL     1       6.044   3.785  15.087  0.00  0.00    +0.000 C 
ATOM     14  F   UNL     1       4.957   4.332  14.489  0.00  0.00    +0.000 F 
ATOM     15  F   UNL     1       7.114   4.529  14.706  0.00  0.00    +0.000 F 
ENDBRANCH  12  13
ENDBRANCH   9  12
ENDBRANCH   5   6
BRANCH   1  16
ATOM     16  N   UNL     1       2.119   7.364  20.634  0.00  0.00    +0.000 N 
ATOM     17  H   UNL     1       1.324   6.745  20.797  0.00  0.00    +0.000 HD
ATOM     18  H   UNL     1       2.192   7.936  21.474  0.00  0.00    +0.000 HD
ENDBRANCH   1  16
BRANCH   2  19
ATOM     19  S   UNL     1       0.278   9.965  20.801  0.00  0.00    +0.000 S 
BRANCH  19  20
ATOM     20  C   UNL     1       0.052  11.705  20.319  0.00  0.00    +0.000 C 
BRANCH  20  21
ATOM     21  C   UNL     1      -1.419  11.979  20.040  0.00  0.00    +0.000 C 
ATOM     22  O   UNL     1      -2.111  12.651  20.807  0.00  0.00    +0.000 OA
ATOM     23  N   UNL     1      -1.923  11.345  18.913  0.00  0.00    +0.000 N 
ATOM     24  C   UNL     1      -3.161  11.477  18.330  0.00  0.00    +0.000 C 
ATOM     25  O   UNL     1      -3.384  10.934  17.249  0.00  0.00    +0.000 OA
ATOM     26  N   UNL     1      -4.067  12.237  18.994  0.00  0.00    +0.000 N 
ATOM     27  H   UNL     1      -1.284  10.813  18.339  0.00  0.00    +0.000 HD
ATOM     28  H   UNL     1      -3.838  12.526  19.940  0.00  0.00    +0.000 HD
BRANCH  26  29
ATOM     29  C   UNL     1      -5.425  12.384  18.524  0.00  0.00    +0.000 C 
BRANCH  29  30
ATOM     30  C   UNL     1      -6.307  11.431  19.239  0.00  0.00    +0.000 A 
ATOM     31  C   UNL     1      -6.643  10.107  19.036  0.00  0.00    +0.000 A 
ATOM     32  C   UNL     1      -7.519   9.750  20.091  0.00  0.00    +0.000 A 
ATOM     33  C   UNL     1      -7.669  10.876  20.864  0.00  0.00    +0.000 A 
ATOM     34  O   UNL     1      -6.940  11.902  20.354  0.00  0.00    +0.000 OA
ENDBRANCH  29  30
ENDBRANCH  26  29
ENDBRANCH  20  21
ENDBRANCH  19  20
ENDBRANCH   2  19
TORSDOF 9
ENDMDL
MODEL 2
REMARK VINA RESULT:      -7.6      1.650      2.331
REMARK  Name = 
REMARK  9 active torsions:
REMARK  status: ('A' for Active; 'I' for Inactive)
REMARK    1  A    between atoms: N_1  and  N_2
REMARK    2  A    between atoms: C_3  and  S_4
REMARK    3  A    between atoms: S_4  and  C_5
REMARK    4  A    between atoms: C_5  and  C_6
REMARK    5  A    between atoms: N_11  and  C_12
REMARK    6  A    between atoms: C_12  and  C_13
REMARK    7  A    between atoms: C_20  and  C_21
REMARK    8  A    between atoms: C_24  and  O_25
REMARK    9  A    between atoms: O_25  and  C_26
REMARK                            x       y       z     vdW  Elec       q    Type
REMARK                         _______ _______ _______ _____ _____    ______ ____
ROOT
ATOM      1  N   UNL     1       1.765   7.804  19.960  0.00  0.00    +0.000 N 
ATOM      2  C   UNL     1       1.025   8.948  20.158  0.00  0.00    +0.000 A 
ATOM      3  N   UNL     1       1.096   9.713  19.095  0.00  0.00    +0.000 NA
ATOM      4  N   UNL     1       1.889   9.062  18.170  0.00  0.00    +0.000 NA
ATOM      5  C   UNL     1       2.266   7.892  18.671  0.00  0.00    +0.000 A 
ENDROOT
BRANCH   5   6
ATOM      6  C   UNL     1       3.111   6.896  17.996  0.00  0.00    +0.000 A 
ATOM      7  C   UNL     1       2.745   5.542  18.005  0.00  0.00    +0.000 A 
ATOM      8  C   UNL     1       3.528   4.581  17.352  0.00  0.00    +0.000 A 
ATOM      9  C   UNL     1       4.687   4.952  16.668  0.00  0.00    +0.000 A 
ATOM     10  C   UNL     1       5.088   6.286  16.688  0.00  0.00    +0.000 A 
ATOM     11  C   UNL     1       4.308   7.245  17.351  0.00  0.00    +0.000 A 
BRANCH   9  12
ATOM     12  O   UNL     1       5.360   3.931  16.059  0.00  0.00    +0.000 OA
BRANCH  12  13
ATOM     13  C   UNL     1       6.198   4.308  14.978  0.00  0.00    +0.000 C 
ATOM     14  F   UNL     1       7.487   4.317  15.399  0.00  0.00    +0.000 F 
ATOM     15  F   UNL     1       6.103   3.338  14.033  0.00  0.00    +0.000 F 
ENDBRANCH  12  13
ENDBRANCH   9  12
ENDBRANCH   5   6
BRANCH   1  16
ATOM     16  N   UNL     1       2.014   6.762  20.931  0.00  0.00    +0.000 N 
ATOM     17  H   UNL     1       3.015   6.694  21.122  0.00  0.00    +0.000 HD
ATOM     18  H   UNL     1       1.748   5.851  20.562  0.00  0.00    +0.000 HD
ENDBRANCH   1  16
BRANCH   2  19
ATOM     19  S   UNL     1       0.217   9.299  21.651  0.00  0.00    +0.000 S 
BRANCH  19  20
ATOM     20  C   UNL     1       0.304  11.116  21.688  0.00  0.00    +0.000 C 
BRANCH  20  21
ATOM     21  C   UNL     1      -1.093  11.705  21.556  0.00  0.00    +0.000 C 
ATOM     22  O   UNL     1      -1.513  12.145  20.484  0.00  0.00    +0.000 OA
ATOM     23  N   UNL     1      -1.805  11.781  22.744  0.00  0.00    +0.000 N 
ATOM     24  C   UNL     1      -3.115  12.149  22.944  0.00  0.00    +0.000 C 
ATOM     25  O   UNL     1      -3.617  12.024  24.059  0.00  0.00    +0.000 OA
ATOM     26  N   UNL     1      -3.786  12.613  21.860  0.00  0.00    +0.000 N 
ATOM     27  H   UNL     1      -1.384  11.395  23.578  0.00  0.00    +0.000 HD
ATOM     28  H   UNL     1      -3.251  12.810  21.021  0.00  0.00    +0.000 HD
BRANCH  26  29
ATOM     29  C   UNL     1      -5.141  13.106  21.961  0.00  0.00    +0.000 C 
BRANCH  29  30
ATOM     30  C   UNL     1      -6.032  12.297  21.095  0.00  0.00    +0.000 A 
ATOM     31  C   UNL     1      -6.119  12.108  19.730  0.00  0.00    +0.000 A 
ATOM     32  C   UNL     1      -7.173  11.183  19.520  0.00  0.00    +0.000 A 
ATOM     33  C   UNL     1      -7.665  10.873  20.765  0.00  0.00    +0.000 A 
ATOM     34  O   UNL     1      -6.982  11.546  21.727  0.00  0.00    +0.000 OA
ENDBRANCH  29  30
ENDBRANCH  26  29
ENDBRANCH  20  21
ENDBRANCH  19  20
ENDBRANCH   2  19
TORSDOF 9
ENDMDL
MODEL 3
REMARK VINA RESULT:      -7.5      1.933      2.387
REMARK  Name = 
REMARK  9 active torsions:
REMARK  status: ('A' for Active; 'I' for Inactive)
REMARK    1  A    between atoms: N_1  and  N_2
REMARK    2  A    between atoms: C_3  and  S_4
REMARK    3  A    between atoms: S_4  and  C_5
REMARK    4  A    between atoms: C_5  and  C_6
REMARK    5  A    between atoms: N_11  and  C_12
REMARK    6  A    between atoms: C_12  and  C_13
REMARK    7  A    between atoms: C_20  and  C_21
REMARK    8  A    between atoms: C_24  and  O_25
REMARK    9  A    between atoms: O_25  and  C_26
REMARK                            x       y       z     vdW  Elec       q    Type
REMARK                         _______ _______ _______ _____ _____    ______ ____
ROOT
ATOM      1  N   UNL     1       1.377   8.722  20.137  0.00  0.00    +0.000 N 
ATOM      2  C   UNL     1       0.834   9.889  19.650  0.00  0.00    +0.000 A 
ATOM      3  N   UNL     1       1.008   9.954  18.352  0.00  0.00    +0.000 NA
ATOM      4  N   UNL     1       1.670   8.804  17.967  0.00  0.00    +0.000 NA
ATOM      5  C   UNL     1       1.864   8.038  19.034  0.00  0.00    +0.000 A 
ENDROOT
BRANCH   5   6
ATOM      6  C   UNL     1       2.526   6.725  19.046  0.00  0.00    +0.000 A 
ATOM      7  C   UNL     1       2.153   5.759  19.991  0.00  0.00    +0.000 A 
ATOM      8  C   UNL     1       2.761   4.497  20.007  0.00  0.00    +0.000 A 
ATOM      9  C   UNL     1       3.745   4.169  19.074  0.00  0.00    +0.000 A 
ATOM     10  C   UNL     1       4.159   5.134  18.158  0.00  0.00    +0.000 A 
ATOM     11  C   UNL     1       3.557   6.400  18.150  0.00  0.00    +0.000 A 
BRANCH   9  12
ATOM     12  O   UNL     1       4.255   2.905  19.178  0.00  0.00    +0.000 OA
BRANCH  12  13
ATOM     13  C   UNL     1       3.463   1.876  18.606  0.00  0.00    +0.000 C 
ATOM     14  F   UNL     1       3.441   2.030  17.259  0.00  0.00    +0.000 F 
ATOM     15  F   UNL     1       4.090   0.698  18.853  0.00  0.00    +0.000 F 
ENDBRANCH  12  13
ENDBRANCH   9  12
ENDBRANCH   5   6
BRANCH   1  16
ATOM     16  N   UNL     1       1.474   8.332  21.526  0.00  0.00    +0.000 N 
ATOM     17  H   UNL     1       2.075   8.984  22.032  0.00  0.00    +0.000 HD
ATOM     18  H   UNL     1       1.926   7.424  21.616  0.00  0.00    +0.000 HD
ENDBRANCH   1  16
BRANCH   2  19
ATOM     19  S   UNL     1       0.119  11.093  20.674  0.00  0.00    +0.000 S 
BRANCH  19  20
ATOM     20  C   UNL     1      -0.542  12.261  19.446  0.00  0.00    +0.000 C 
BRANCH  20  21
ATOM     21  C   UNL     1      -2.042  12.052  19.285  0.00  0.00    +0.000 C 
ATOM     22  O   UNL     1      -2.846  12.442  20.132  0.00  0.00    +0.000 OA
ATOM     23  N   UNL     1      -2.408  11.321  18.164  0.00  0.00    +0.000 N 
ATOM     24  C   UNL     1      -3.666  11.061  17.676  0.00  0.00    +0.000 C 
ATOM     25  O   UNL     1      -3.792  10.506  16.586  0.00  0.00    +0.000 OA
ATOM     26  N   UNL     1      -4.709  11.468  18.441  0.00  0.00    +0.000 N 
ATOM     27  H   UNL     1      -1.682  11.040  17.519  0.00  0.00    +0.000 HD
ATOM     28  H   UNL     1      -4.508  11.789  19.383  0.00  0.00    +0.000 HD
BRANCH  26  29
ATOM     29  C   UNL     1      -6.077  11.180  18.075  0.00  0.00    +0.000 C 
BRANCH  29  30
ATOM     30  C   UNL     1      -6.777  10.543  19.217  0.00  0.00    +0.000 A 
ATOM     31  C   UNL     1      -7.424  11.034  20.332  0.00  0.00    +0.000 A 
ATOM     32  C   UNL     1      -7.916   9.908  21.039  0.00  0.00    +0.000 A 
ATOM     33  C   UNL     1      -7.532   8.804  20.316  0.00  0.00    +0.000 A 
ATOM     34  O   UNL     1      -6.838   9.178  19.210  0.00  0.00    +0.000 OA
ENDBRANCH  29  30
ENDBRANCH  26  29
ENDBRANCH  20  21
ENDBRANCH  19  20
ENDBRANCH   2  19
TORSDOF 9
ENDMDL
MODEL 4
REMARK VINA RESULT:      -7.4      1.103      1.540
REMARK  Name = 
REMARK  9 active torsions:
REMARK  status: ('A' for Active; 'I' for Inactive)
REMARK    1  A    between atoms: N_1  and  N_2
REMARK    2  A    between atoms: C_3  and  S_4
REMARK    3  A    between atoms: S_4  and  C_5
REMARK    4  A    between atoms: C_5  and  C_6
REMARK    5  A    between atoms: N_11  and  C_12
REMARK    6  A    between atoms: C_12  and  C_13
REMARK    7  A    between atoms: C_20  and  C_21
REMARK    8  A    between atoms: C_24  and  O_25
REMARK    9  A    between atoms: O_25  and  C_26
REMARK                            x       y       z     vdW  Elec       q    Type
REMARK                         _______ _______ _______ _____ _____    ______ ____
ROOT
ATOM      1  N   UNL     1       1.926   7.510  19.910  0.00  0.00    +0.000 N 
ATOM      2  C   UNL     1       1.180   8.637  20.169  0.00  0.00    +0.000 A 
ATOM      3  N   UNL     1       1.241   9.456  19.147  0.00  0.00    +0.000 NA
ATOM      4  N   UNL     1       2.035   8.859  18.186  0.00  0.00    +0.000 NA
ATOM      5  C   UNL     1       2.422   7.668  18.626  0.00  0.00    +0.000 A 
ENDROOT
BRANCH   5   6
ATOM      6  C   UNL     1       3.271   6.714  17.897  0.00  0.00    +0.000 A 
ATOM      7  C   UNL     1       2.919   5.358  17.844  0.00  0.00    +0.000 A 
ATOM      8  C   UNL     1       3.706   4.436  17.140  0.00  0.00    +0.000 A 
ATOM      9  C   UNL     1       4.855   4.851  16.466  0.00  0.00    +0.000 A 
ATOM     10  C   UNL     1       5.243   6.187  16.547  0.00  0.00    +0.000 A 
ATOM     11  C   UNL     1       4.460   7.105  17.261  0.00  0.00    +0.000 A 
BRANCH   9  12
ATOM     12  O   UNL     1       5.533   3.868  15.803  0.00  0.00    +0.000 OA
BRANCH  12  13
ATOM     13  C   UNL     1       6.189   4.271  14.611  0.00  0.00    +0.000 C 
ATOM     14  F   UNL     1       7.503   4.475  14.875  0.00  0.00    +0.000 F 
ATOM     15  F   UNL     1       6.123   3.232  13.740  0.00  0.00    +0.000 F 
ENDBRANCH  12  13
ENDBRANCH   9  12
ENDBRANCH   5   6
BRANCH   1  16
ATOM     16  N   UNL     1       2.187   6.422  20.825  0.00  0.00    +0.000 N 
ATOM     17  H   UNL     1       3.047   6.599  21.344  0.00  0.00    +0.000 HD
ATOM     18  H   UNL     1       2.352   5.554  20.318  0.00  0.00    +0.000 HD
ENDBRANCH   1  16
BRANCH   2  19
ATOM     19  S   UNL     1       0.375   8.905  21.681  0.00  0.00    +0.000 S 
BRANCH  19  20
ATOM     20  C   UNL     1       0.438  10.719  21.805  0.00  0.00    +0.000 C 
BRANCH  20  21
ATOM     21  C   UNL     1      -0.936  11.307  21.514  0.00  0.00    +0.000 C 
ATOM     22  O   UNL     1      -1.721  11.602  22.417  0.00  0.00    +0.000 OA
ATOM     23  N   UNL     1      -1.253  11.400  20.166  0.00  0.00    +0.000 N 
ATOM     24  C   UNL     1      -2.348  11.983  19.575  0.00  0.00    +0.000 C 
ATOM     25  O   UNL     1      -2.393  12.089  18.351  0.00  0.00    +0.000 OA
ATOM     26  N   UNL     1      -3.318  12.435  20.409  0.00  0.00    +0.000 N 
ATOM     27  H   UNL     1      -0.548  11.136  19.491  0.00  0.00    +0.000 HD
ATOM     28  H   UNL     1      -3.257  12.179  21.389  0.00  0.00    +0.000 HD
BRANCH  26  29
ATOM     29  C   UNL     1      -4.552  12.993  19.905  0.00  0.00    +0.000 C 
BRANCH  29  30
ATOM     30  C   UNL     1      -5.532  11.907  19.669  0.00  0.00    +0.000 A 
ATOM     31  C   UNL     1      -5.827  11.109  18.581  0.00  0.00    +0.000 A 
ATOM     32  C   UNL     1      -6.857  10.229  18.997  0.00  0.00    +0.000 A 
ATOM     33  C   UNL     1      -7.130  10.549  20.305  0.00  0.00    +0.000 A 
ATOM     34  O   UNL     1      -6.334  11.567  20.721  0.00  0.00    +0.000 OA
ENDBRANCH  29  30
ENDBRANCH  26  29
ENDBRANCH  20  21
ENDBRANCH  19  20
ENDBRANCH   2  19
TORSDOF 9
ENDMDL
MODEL 5
REMARK VINA RESULT:      -7.4      2.192      2.657
REMARK  Name = 
REMARK  9 active torsions:
REMARK  status: ('A' for Active; 'I' for Inactive)
REMARK    1  A    between atoms: N_1  and  N_2
REMARK    2  A    between atoms: C_3  and  S_4
REMARK    3  A    between atoms: S_4  and  C_5
REMARK    4  A    between atoms: C_5  and  C_6
REMARK    5  A    between atoms: N_11  and  C_12
REMARK    6  A    between atoms: C_12  and  C_13
REMARK    7  A    between atoms: C_20  and  C_21
REMARK    8  A    between atoms: C_24  and  O_25
REMARK    9  A    between atoms: O_25  and  C_26
REMARK                            x       y       z     vdW  Elec       q    Type
REMARK                         _______ _______ _______ _____ _____    ______ ____
ROOT
ATOM      1  N   UNL     1       1.629   8.881  20.079  0.00  0.00    +0.000 N 
ATOM      2  C   UNL     1       1.324  10.096  19.510  0.00  0.00    +0.000 A 
ATOM      3  N   UNL     1       1.517  10.041  18.214  0.00  0.00    +0.000 NA
ATOM      4  N   UNL     1       1.947   8.763  17.914  0.00  0.00    +0.000 NA
ATOM      5  C   UNL     1       1.983   8.046  19.031  0.00  0.00    +0.000 A 
ENDROOT
BRANCH   5   6
ATOM      6  C   UNL     1       2.380   6.634  19.137  0.00  0.00    +0.000 A 
ATOM      7  C   UNL     1       2.051   5.897  20.283  0.00  0.00    +0.000 A 
ATOM      8  C   UNL     1       2.406   4.546  20.396  0.00  0.00    +0.000 A 
ATOM      9  C   UNL     1       3.087   3.901  19.364  0.00  0.00    +0.000 A 
ATOM     10  C   UNL     1       3.462   4.632  18.238  0.00  0.00    +0.000 A 
ATOM     11  C   UNL     1       3.115   5.986  18.132  0.00  0.00    +0.000 A 
BRANCH   9  12
ATOM     12  O   UNL     1       3.367   2.581  19.580  0.00  0.00    +0.000 OA
BRANCH  12  13
ATOM     13  C   UNL     1       2.568   1.658  18.857  0.00  0.00    +0.000 C 
ATOM     14  F   UNL     1       1.324   2.176  18.701  0.00  0.00    +0.000 F 
ATOM     15  F   UNL     1       3.102   1.545  17.615  0.00  0.00    +0.000 F 
ENDBRANCH  12  13
ENDBRANCH   9  12
ENDBRANCH   5   6
BRANCH   1  16
ATOM     16  N   UNL     1       1.639   8.571  21.491  0.00  0.00    +0.000 N 
ATOM     17  H   UNL     1       1.267   7.633  21.646  0.00  0.00    +0.000 HD
ATOM     18  H   UNL     1       1.018   9.195  22.004  0.00  0.00    +0.000 HD
ENDBRANCH   1  16
BRANCH   2  19
ATOM     19  S   UNL     1       0.847  11.478  20.442  0.00  0.00    +0.000 S 
BRANCH  19  20
ATOM     20  C   UNL     1       0.389  12.654  19.131  0.00  0.00    +0.000 C 
BRANCH  20  21
ATOM     21  C   UNL     1      -1.080  12.484  18.770  0.00  0.00    +0.000 C 
ATOM     22  O   UNL     1      -1.978  12.964  19.463  0.00  0.00    +0.000 OA
ATOM     23  N   UNL     1      -1.315  11.683  17.662  0.00  0.00    +0.000 N 
ATOM     24  C   UNL     1      -2.502  11.429  17.016  0.00  0.00    +0.000 C 
ATOM     25  O   UNL     1      -2.496  10.797  15.961  0.00  0.00    +0.000 OA
ATOM     26  N   UNL     1      -3.624  11.928  17.592  0.00  0.00    +0.000 N 
ATOM     27  H   UNL     1      -0.517  11.329  17.151  0.00  0.00    +0.000 HD
ATOM     28  H   UNL     1      -3.544  12.312  18.528  0.00  0.00    +0.000 HD
BRANCH  26  29
ATOM     29  C   UNL     1      -4.937  11.659  17.053  0.00  0.00    +0.000 C 
BRANCH  29  30
ATOM     30  C   UNL     1      -5.930  11.615  18.154  0.00  0.00    +0.000 A 
ATOM     31  C   UNL     1      -6.819  10.657  18.597  0.00  0.00    +0.000 A 
ATOM     32  C   UNL     1      -7.478  11.212  19.722  0.00  0.00    +0.000 A 
ATOM     33  C   UNL     1      -6.957  12.473  19.889  0.00  0.00    +0.000 A 
ATOM     34  O   UNL     1      -6.019  12.728  18.941  0.00  0.00    +0.000 OA
ENDBRANCH  29  30
ENDBRANCH  26  29
ENDBRANCH  20  21
ENDBRANCH  19  20
ENDBRANCH   2  19
TORSDOF 9
ENDMDL
MODEL 6
REMARK VINA RESULT:      -7.3      5.622     10.507
REMARK  Name = 
REMARK  9 active torsions:
REMARK  status: ('A' for Active; 'I' for Inactive)
REMARK    1  A    between atoms: N_1  and  N_2
REMARK    2  A    between atoms: C_3  and  S_4
REMARK    3  A    between atoms: S_4  and  C_5
REMARK    4  A    between atoms: C_5  and  C_6
REMARK    5  A    between atoms: N_11  and  C_12
REMARK    6  A    between atoms: C_12  and  C_13
REMARK    7  A    between atoms: C_20  and  C_21
REMARK    8  A    between atoms: C_24  and  O_25
REMARK    9  A    between atoms: O_25  and  C_26
REMARK                            x       y       z     vdW  Elec       q    Type
REMARK                         _______ _______ _______ _____ _____    ______ ____
ROOT
ATOM      1  N   UNL     1       1.707   4.920  19.162  0.00  0.00    +0.000 N 
ATOM      2  C   UNL     1       1.928   3.848  19.996  0.00  0.00    +0.000 A 
ATOM      3  N   UNL     1       2.346   4.271  21.164  0.00  0.00    +0.000 NA
ATOM      4  N   UNL     1       2.393   5.651  21.110  0.00  0.00    +0.000 NA
ATOM      5  C   UNL     1       1.975   6.051  19.915  0.00  0.00    +0.000 A 
ENDROOT
BRANCH   5   6
ATOM      6  C   UNL     1       1.868   7.446  19.461  0.00  0.00    +0.000 A 
ATOM      7  C   UNL     1       1.241   8.403  20.272  0.00  0.00    +0.000 A 
ATOM      8  C   UNL     1       1.145   9.740  19.864  0.00  0.00    +0.000 A 
ATOM      9  C   UNL     1       1.683  10.151  18.644  0.00  0.00    +0.000 A 
ATOM     10  C   UNL     1       2.269   9.204  17.806  0.00  0.00    +0.000 A 
ATOM     11  C   UNL     1       2.354   7.864  18.212  0.00  0.00    +0.000 A 
BRANCH   9  12
ATOM     12  O   UNL     1       1.542  11.480  18.359  0.00  0.00    +0.000 OA
BRANCH  12  13
ATOM     13  C   UNL     1       0.472  12.139  19.019  0.00  0.00    +0.000 C 
ATOM     14  F   UNL     1       0.768  13.458  19.135  0.00  0.00    +0.000 F 
ATOM     15  F   UNL     1      -0.616  12.053  18.212  0.00  0.00    +0.000 F 
ENDBRANCH  12  13
ENDBRANCH   9  12
ENDBRANCH   5   6
BRANCH   1  16
ATOM     16  N   UNL     1       1.337   4.861  17.765  0.00  0.00    +0.000 N 
ATOM     17  H   UNL     1       1.047   3.914  17.519  0.00  0.00    +0.000 HD
ATOM     18  H   UNL     1       2.138   5.061  17.169  0.00  0.00    +0.000 HD
ENDBRANCH   1  16
BRANCH   2  19
ATOM     19  S   UNL     1       1.745   2.202  19.481  0.00  0.00    +0.000 S 
BRANCH  19  20
ATOM     20  C   UNL     1       3.471   1.628  19.492  0.00  0.00    +0.000 C 
BRANCH  20  21
ATOM     21  C   UNL     1       4.300   2.458  18.523  0.00  0.00    +0.000 C 
ATOM     22  O   UNL     1       4.229   2.298  17.304  0.00  0.00    +0.000 OA
ATOM     23  N   UNL     1       5.190   3.336  19.127  0.00  0.00    +0.000 N 
ATOM     24  C   UNL     1       5.986   4.294  18.545  0.00  0.00    +0.000 C 
ATOM     25  O   UNL     1       6.613   5.076  19.258  0.00  0.00    +0.000 OA
ATOM     26  N   UNL     1       6.004   4.326  17.189  0.00  0.00    +0.000 N 
ATOM     27  H   UNL     1       5.182   3.405  20.135  0.00  0.00    +0.000 HD
ATOM     28  H   UNL     1       5.567   3.557  16.693  0.00  0.00    +0.000 HD
BRANCH  26  29
ATOM     29  C   UNL     1       6.863   5.233  16.463  0.00  0.00    +0.000 C 
BRANCH  29  30
ATOM     30  C   UNL     1       6.893   4.854  15.030  0.00  0.00    +0.000 A 
ATOM     31  C   UNL     1       6.180   3.950  14.269  0.00  0.00    +0.000 A 
ATOM     32  C   UNL     1       6.659   4.078  12.941  0.00  0.00    +0.000 A 
ATOM     33  C   UNL     1       7.636   5.043  12.977  0.00  0.00    +0.000 A 
ATOM     34  O   UNL     1       7.788   5.519  14.241  0.00  0.00    +0.000 OA
ENDBRANCH  29  30
ENDBRANCH  26  29
ENDBRANCH  20  21
ENDBRANCH  19  20
ENDBRANCH   2  19
TORSDOF 9
ENDMDL
MODEL 7
REMARK VINA RESULT:      -7.3      0.930      1.071
REMARK  Name = 
REMARK  9 active torsions:
REMARK  status: ('A' for Active; 'I' for Inactive)
REMARK    1  A    between atoms: N_1  and  N_2
REMARK    2  A    between atoms: C_3  and  S_4
REMARK    3  A    between atoms: S_4  and  C_5
REMARK    4  A    between atoms: C_5  and  C_6
REMARK    5  A    between atoms: N_11  and  C_12
REMARK    6  A    between atoms: C_12  and  C_13
REMARK    7  A    between atoms: C_20  and  C_21
REMARK    8  A    between atoms: C_24  and  O_25
REMARK    9  A    between atoms: O_25  and  C_26
REMARK                            x       y       z     vdW  Elec       q    Type
REMARK                         _______ _______ _______ _____ _____    ______ ____
ROOT
ATOM      1  N   UNL     1       1.662   8.497  19.693  0.00  0.00    +0.000 N 
ATOM      2  C   UNL     1       0.893   9.639  19.696  0.00  0.00    +0.000 A 
ATOM      3  N   UNL     1       0.871  10.164  18.495  0.00  0.00    +0.000 NA
ATOM      4  N   UNL     1       1.630   9.351  17.675  0.00  0.00    +0.000 NA
ATOM      5  C   UNL     1       2.081   8.323  18.384  0.00  0.00    +0.000 A 
ENDROOT
BRANCH   5   6
ATOM      6  C   UNL     1       2.920   7.227  17.876  0.00  0.00    +0.000 A 
ATOM      7  C   UNL     1       4.073   7.513  17.131  0.00  0.00    +0.000 A 
ATOM      8  C   UNL     1       4.894   6.483  16.654  0.00  0.00    +0.000 A 
ATOM      9  C   UNL     1       4.589   5.148  16.920  0.00  0.00    +0.000 A 
ATOM     10  C   UNL     1       3.422   4.845  17.620  0.00  0.00    +0.000 A 
ATOM     11  C   UNL     1       2.596   5.877  18.087  0.00  0.00    +0.000 A 
BRANCH   9  12
ATOM     12  O   UNL     1       5.470   4.233  16.416  0.00  0.00    +0.000 OA
BRANCH  12  13
ATOM     13  C   UNL     1       6.744   4.200  17.039  0.00  0.00    +0.000 C 
ATOM     14  F   UNL     1       7.502   5.213  16.550  0.00  0.00    +0.000 F 
ATOM     15  F   UNL     1       6.557   4.456  18.359  0.00  0.00    +0.000 F 
ENDBRANCH  12  13
ENDBRANCH   9  12
ENDBRANCH   5   6
BRANCH   1  16
ATOM     16  N   UNL     1       2.009   7.690  20.842  0.00  0.00    +0.000 N 
ATOM     17  H   UNL     1       1.531   6.790  20.794  0.00  0.00    +0.000 HD
ATOM     18  H   UNL     1       1.679   8.125  21.702  0.00  0.00    +0.000 HD
ENDBRANCH   1  16
BRANCH   2  19
ATOM     19  S   UNL     1       0.164  10.278  21.134  0.00  0.00    +0.000 S 
BRANCH  19  20
ATOM     20  C   UNL     1      -0.138  12.004  20.646  0.00  0.00    +0.000 C 
BRANCH  20  21
ATOM     21  C   UNL     1      -1.615  12.204  20.335  0.00  0.00    +0.000 C 
ATOM     22  O   UNL     1      -2.366  12.802  21.107  0.00  0.00    +0.000 OA
ATOM     23  N   UNL     1      -2.050  11.592  19.168  0.00  0.00    +0.000 N 
ATOM     24  C   UNL     1      -3.277  11.676  18.554  0.00  0.00    +0.000 C 
ATOM     25  O   UNL     1      -3.437  11.168  17.446  0.00  0.00    +0.000 OA
ATOM     26  N   UNL     1      -4.244  12.354  19.222  0.00  0.00    +0.000 N 
ATOM     27  H   UNL     1      -1.365  11.122  18.592  0.00  0.00    +0.000 HD
ATOM     28  H   UNL     1      -4.059  12.615  20.185  0.00  0.00    +0.000 HD
BRANCH  26  29
ATOM     29  C   UNL     1      -5.595  12.441  18.718  0.00  0.00    +0.000 C 
BRANCH  29  30
ATOM     30  C   UNL     1      -6.434  11.398  19.354  0.00  0.00    +0.000 A 
ATOM     31  C   UNL     1      -6.680  10.069  19.071  0.00  0.00    +0.000 A 
ATOM     32  C   UNL     1      -7.560   9.601  20.077  0.00  0.00    +0.000 A 
ATOM     33  C   UNL     1      -7.803  10.672  20.904  0.00  0.00    +0.000 A 
ATOM     34  O   UNL     1      -7.126  11.768  20.472  0.00  0.00    +0.000 OA
ENDBRANCH  29  30
ENDBRANCH  26  29
ENDBRANCH  20  21
ENDBRANCH  19  20
ENDBRANCH   2  19
TORSDOF 9
ENDMDL
MODEL 8
REMARK VINA RESULT:      -7.3      3.260      5.132
REMARK  Name = 
REMARK  9 active torsions:
REMARK  status: ('A' for Active; 'I' for Inactive)
REMARK    1  A    between atoms: N_1  and  N_2
REMARK    2  A    between atoms: C_3  and  S_4
REMARK    3  A    between atoms: S_4  and  C_5
REMARK    4  A    between atoms: C_5  and  C_6
REMARK    5  A    between atoms: N_11  and  C_12
REMARK    6  A    between atoms: C_12  and  C_13
REMARK    7  A    between atoms: C_20  and  C_21
REMARK    8  A    between atoms: C_24  and  O_25
REMARK    9  A    between atoms: O_25  and  C_26
REMARK                            x       y       z     vdW  Elec       q    Type
REMARK                         _______ _______ _______ _____ _____    ______ ____
ROOT
ATOM      1  N   UNL     1       3.165   4.461  18.146  0.00  0.00    +0.000 N 
ATOM      2  C   UNL     1       2.585   3.716  19.147  0.00  0.00    +0.000 A 
ATOM      3  N   UNL     1       3.218   2.575  19.276  0.00  0.00    +0.000 NA
ATOM      4  N   UNL     1       4.244   2.565  18.351  0.00  0.00    +0.000 NA
ATOM      5  C   UNL     1       4.241   3.716  17.690  0.00  0.00    +0.000 A 
ENDROOT
BRANCH   5   6
ATOM      6  C   UNL     1       5.180   4.103  16.626  0.00  0.00    +0.000 A 
ATOM      7  C   UNL     1       6.451   4.595  16.957  0.00  0.00    +0.000 A 
ATOM      8  C   UNL     1       7.366   4.953  15.958  0.00  0.00    +0.000 A 
ATOM      9  C   UNL     1       7.036   4.817  14.609  0.00  0.00    +0.000 A 
ATOM     10  C   UNL     1       5.761   4.373  14.264  0.00  0.00    +0.000 A 
ATOM     11  C   UNL     1       4.843   4.026  15.266  0.00  0.00    +0.000 A 
BRANCH   9  12
ATOM     12  O   UNL     1       8.012   5.183  13.726  0.00  0.00    +0.000 OA
BRANCH  12  13
ATOM     13  C   UNL     1       7.570   5.485  12.412  0.00  0.00    +0.000 C 
ATOM     14  F   UNL     1       8.388   6.423  11.873  0.00  0.00    +0.000 F 
ATOM     15  F   UNL     1       7.721   4.361  11.665  0.00  0.00    +0.000 F 
ENDBRANCH  12  13
ENDBRANCH   9  12
ENDBRANCH   5   6
BRANCH   1  16
ATOM     16  N   UNL     1       2.697   5.731  17.637  0.00  0.00    +0.000 N 
ATOM     17  H   UNL     1       1.833   5.601  17.111  0.00  0.00    +0.000 HD
ATOM     18  H   UNL     1       3.362   6.122  16.971  0.00  0.00    +0.000 HD
ENDBRANCH   1  16
BRANCH   2  19
ATOM     19  S   UNL     1       1.173   4.235  20.008  0.00  0.00    +0.000 S 
BRANCH  19  20
ATOM     20  C   UNL     1       1.892   5.396  21.210  0.00  0.00    +0.000 C 
BRANCH  20  21
ATOM     21  C   UNL     1       1.639   6.829  20.762  0.00  0.00    +0.000 C 
ATOM     22  O   UNL     1       2.261   7.336  19.827  0.00  0.00    +0.000 OA
ATOM     23  N   UNL     1       0.726   7.527  21.539  0.00  0.00    +0.000 N 
ATOM     24  C   UNL     1       0.199   8.780  21.336  0.00  0.00    +0.000 C 
ATOM     25  O   UNL     1      -0.707   9.183  22.064  0.00  0.00    +0.000 OA
ATOM     26  N   UNL     1       0.714   9.494  20.304  0.00  0.00    +0.000 N 
ATOM     27  H   UNL     1       0.260   7.033  22.288  0.00  0.00    +0.000 HD
ATOM     28  H   UNL     1       1.549   9.137  19.851  0.00  0.00    +0.000 HD
BRANCH  26  29
ATOM     29  C   UNL     1       0.300  10.853  20.040  0.00  0.00    +0.000 C 
BRANCH  29  30
ATOM     30  C   UNL     1      -0.841  10.854  19.093  0.00  0.00    +0.000 A 
ATOM     31  C   UNL     1      -1.101  10.184  17.915  0.00  0.00    +0.000 A 
ATOM     32  C   UNL     1      -2.390  10.596  17.496  0.00  0.00    +0.000 A 
ATOM     33  C   UNL     1      -2.832  11.494  18.438  0.00  0.00    +0.000 A 
ATOM     34  O   UNL     1      -1.898  11.659  19.410  0.00  0.00    +0.000 OA
ENDBRANCH  29  30
ENDBRANCH  26  29
ENDBRANCH  20  21
ENDBRANCH  19  20
ENDBRANCH   2  19
TORSDOF 9
ENDMDL
MODEL 9
REMARK VINA RESULT:      -7.2      2.046      2.795
REMARK  Name = 
REMARK  9 active torsions:
REMARK  status: ('A' for Active; 'I' for Inactive)
REMARK    1  A    between atoms: N_1  and  N_2
REMARK    2  A    between atoms: C_3  and  S_4
REMARK    3  A    between atoms: S_4  and  C_5
REMARK    4  A    between atoms: C_5  and  C_6
REMARK    5  A    between atoms: N_11  and  C_12
REMARK    6  A    between atoms: C_12  and  C_13
REMARK    7  A    between atoms: C_20  and  C_21
REMARK    8  A    between atoms: C_24  and  O_25
REMARK    9  A    between atoms: O_25  and  C_26
REMARK                            x       y       z     vdW  Elec       q    Type
REMARK                         _______ _______ _______ _____ _____    ______ ____
ROOT
ATOM      1  N   UNL     1       1.607   8.713  19.573  0.00  0.00    +0.000 N 
ATOM      2  C   UNL     1       1.158   9.971  19.242  0.00  0.00    +0.000 A 
ATOM      3  N   UNL     1       1.418  10.219  17.981  0.00  0.00    +0.000 NA
ATOM      4  N   UNL     1       2.042   9.101  17.461  0.00  0.00    +0.000 NA
ATOM      5  C   UNL     1       2.126   8.174  18.407  0.00  0.00    +0.000 A 
ENDROOT
BRANCH   5   6
ATOM      6  C   UNL     1       2.717   6.836  18.253  0.00  0.00    +0.000 A 
ATOM      7  C   UNL     1       2.061   5.714  18.779  0.00  0.00    +0.000 A 
ATOM      8  C   UNL     1       2.599   4.429  18.627  0.00  0.00    +0.000 A 
ATOM      9  C   UNL     1       3.798   4.237  17.939  0.00  0.00    +0.000 A 
ATOM     10  C   UNL     1       4.485   5.346  17.451  0.00  0.00    +0.000 A 
ATOM     11  C   UNL     1       3.950   6.632  17.613  0.00  0.00    +0.000 A 
BRANCH   9  12
ATOM     12  O   UNL     1       4.217   2.940  17.843  0.00  0.00    +0.000 OA
BRANCH  12  13
ATOM     13  C   UNL     1       3.273   1.958  18.241  0.00  0.00    +0.000 C 
ATOM     14  F   UNL     1       2.404   1.741  17.222  0.00  0.00    +0.000 F 
ATOM     15  F   UNL     1       3.950   0.797  18.431  0.00  0.00    +0.000 F 
ENDBRANCH  12  13
ENDBRANCH   9  12
ENDBRANCH   5   6
BRANCH   1  16
ATOM     16  N   UNL     1       1.593   8.113  20.889  0.00  0.00    +0.000 N 
ATOM     17  H   UNL     1       0.868   8.544  21.462  0.00  0.00    +0.000 HD
ATOM     18  H   UNL     1       2.468   8.295  21.378  0.00  0.00    +0.000 HD
ENDBRANCH   1  16
BRANCH   2  19
ATOM     19  S   UNL     1       0.443  11.048  20.397  0.00  0.00    +0.000 S 
BRANCH  19  20
ATOM     20  C   UNL     1      -0.163  12.382  19.318  0.00  0.00    +0.000 C 
BRANCH  20  21
ATOM     21  C   UNL     1      -1.684  12.427  19.352  0.00  0.00    +0.000 C 
ATOM     22  O   UNL     1      -2.299  12.885  20.316  0.00  0.00    +0.000 OA
ATOM     23  N   UNL     1      -2.306  11.839  18.259  0.00  0.00    +0.000 N 
ATOM     24  C   UNL     1      -3.641  11.816  17.935  0.00  0.00    +0.000 C 
ATOM     25  O   UNL     1      -3.995  11.360  16.849  0.00  0.00    +0.000 OA
ATOM     26  N   UNL     1      -4.497  12.335  18.851  0.00  0.00    +0.000 N 
ATOM     27  H   UNL     1      -1.724  11.487  17.512  0.00  0.00    +0.000 HD
ATOM     28  H   UNL     1      -4.127  12.558  19.770  0.00  0.00    +0.000 HD
BRANCH  26  29
ATOM     29  C   UNL     1      -5.928  12.295  18.661  0.00  0.00    +0.000 C 
BRANCH  29  30
ATOM     30  C   UNL     1      -6.381  13.549  18.012  0.00  0.00    +0.000 A 
ATOM     31  C   UNL     1      -6.778  13.868  16.729  0.00  0.00    +0.000 A 
ATOM     32  C   UNL     1      -7.123  15.243  16.747  0.00  0.00    +0.000 A 
ATOM     33  C   UNL     1      -6.909  15.676  18.033  0.00  0.00    +0.000 A 
ATOM     34  O   UNL     1      -6.456  14.657  18.808  0.00  0.00    +0.000 OA
ENDBRANCH  29  30
ENDBRANCH  26  29
ENDBRANCH  20  21
ENDBRANCH  19  20
ENDBRANCH   2  19
TORSDOF 9
ENDMDL
