MODEL 1
REMARK VINA RESULT:      -8.6      0.000      0.000
REMARK  Name = 
REMARK  9 active torsions:
REMARK  status: ('A' for Active; 'I' for Inactive)
REMARK    1  A    between atoms: C_1  and  C_2
REMARK    2  A    between atoms: C_7  and  N_8
REMARK    3  A    between atoms: C_9  and  C_10
REMARK    4  A    between atoms: C_13  and  N_14
REMARK    5  A    between atoms: N_14  and  C_15
REMARK    6  A    between atoms: N_14  and  S_19
REMARK    7  A    between atoms: C_15  and  C_16
REMARK    8  A    between atoms: C_16  and  C_17
REMARK    9  A    between atoms: S_19  and  C_22
REMARK                            x       y       z     vdW  Elec       q    Type
REMARK                         _______ _______ _______ _____ _____    ______ ____
ROOT
ATOM      1  C   UNL     1       8.064   7.775  18.516  0.00  0.00    +0.000 A 
ATOM      2  C   UNL     1       7.111   8.047  17.527  0.00  0.00    +0.000 A 
ATOM      3  C   UNL     1       6.257   7.039  17.087  0.00  0.00    +0.000 A 
ATOM      4  C   UNL     1       6.321   5.741  17.617  0.00  0.00    +0.000 A 
ATOM      5  C   UNL     1       7.280   5.474  18.607  0.00  0.00    +0.000 A 
ATOM      6  C   UNL     1       8.146   6.489  19.062  0.00  0.00    +0.000 A 
ENDROOT
BRANCH   1   8
ATOM      7  N   UNL     1       8.820  10.086  18.390  0.00  0.00    +0.000 NA
ATOM      8  C   UNL     1       8.963   8.888  18.840  0.00  0.00    +0.000 C 
BRANCH   7  15
ATOM      9  C   UNL     1       9.098  11.422  21.254  0.00  0.00    +0.000 C 
ATOM     10  C   UNL     1       9.917  11.710  20.022  0.00  0.00    +0.000 A 
ATOM     11  C   UNL     1      10.951  12.659  20.186  0.00  0.00    +0.000 A 
ATOM     12  C   UNL     1      11.794  13.009  19.135  0.00  0.00    +0.000 A 
ATOM     13  C   UNL     1      11.618  12.421  17.892  0.00  0.00    +0.000 A 
ATOM     14  C   UNL     1      10.602  11.482  17.710  0.00  0.00    +0.000 A 
ATOM     15  C   UNL     1       9.735  11.105  18.752  0.00  0.00    +0.000 A 
ENDBRANCH   7  15
ENDBRANCH   1   8
BRANCH   4  16
ATOM     16  N   UNL     1       5.479   4.719  17.049  0.00  0.00    +0.000 N 
BRANCH  16  17
ATOM     17  S   UNL     1       4.312   3.958  18.102  0.00  0.00    +0.000 S 
ATOM     18  O   UNL     1       3.431   3.143  17.270  0.00  0.00    +0.000 OA
ATOM     19  O   UNL     1       5.029   3.379  19.212  0.00  0.00    +0.000 OA
BRANCH  17  20
ATOM     20  C   UNL     1       3.276   5.266  18.788  0.00  0.00    +0.000 A 
ATOM     21  C   UNL     1       2.739   5.194  20.086  0.00  0.00    +0.000 A 
ATOM     22  C   UNL     1       2.019   6.284  20.604  0.00  0.00    +0.000 A 
ATOM     23  C   UNL     1       1.861   7.448  19.850  0.00  0.00    +0.000 A 
ATOM     24  C   UNL     1       2.450   7.541  18.591  0.00  0.00    +0.000 A 
ATOM     25  C   UNL     1       3.174   6.464  18.073  0.00  0.00    +0.000 A 
ENDBRANCH  17  20
ENDBRANCH  16  17
BRANCH  16  26
ATOM     26  C   UNL     1       5.193   4.563  15.588  0.00  0.00    +0.000 C 
BRANCH  26  27
ATOM     27  C   UNL     1       6.206   3.818  14.701  0.00  0.00    +0.000 C 
BRANCH  27  28
ATOM     28  C   UNL     1       7.125   4.793  14.064  0.00  0.00    +0.000 C 
ATOM     29  N   UNL     1       7.840   5.566  13.567  0.00  0.00    +0.000 NA
ENDBRANCH  27  28
ENDBRANCH  26  27
ENDBRANCH  16  26
ENDBRANCH   4  16
TORSDOF 8
ENDMDL
MODEL 2
REMARK VINA RESULT:      -8.5      4.940      8.179
REMARK  Name = 
REMARK  9 active torsions:
REMARK  status: ('A' for Active; 'I' for Inactive)
REMARK    1  A    between atoms: C_1  and  C_2
REMARK    2  A    between atoms: C_7  and  N_8
REMARK    3  A    between atoms: C_9  and  C_10
REMARK    4  A    between atoms: C_13  and  N_14
REMARK    5  A    between atoms: N_14  and  C_15
REMARK    6  A    between atoms: N_14  and  S_19
REMARK    7  A    between atoms: C_15  and  C_16
REMARK    8  A    between atoms: C_16  and  C_17
REMARK    9  A    between atoms: S_19  and  C_22
REMARK                            x       y       z     vdW  Elec       q    Type
REMARK                         _______ _______ _______ _____ _____    ______ ____
ROOT
ATOM      1  C   UNL     1       1.514   8.615  19.673  0.00  0.00    +0.000 A 
ATOM      2  C   UNL     1       1.574   7.622  20.659  0.00  0.00    +0.000 A 
ATOM      3  C   UNL     1       2.116   6.376  20.358  0.00  0.00    +0.000 A 
ATOM      4  C   UNL     1       2.615   6.082  19.080  0.00  0.00    +0.000 A 
ATOM      5  C   UNL     1       2.550   7.081  18.096  0.00  0.00    +0.000 A 
ATOM      6  C   UNL     1       2.008   8.348  18.392  0.00  0.00    +0.000 A 
ENDROOT
BRANCH   1   8
ATOM      7  N   UNL     1      -0.404  10.098  19.900  0.00  0.00    +0.000 NA
ATOM      8  C   UNL     1       0.848   9.858  20.079  0.00  0.00    +0.000 C 
BRANCH   7  15
ATOM      9  C   UNL     1      -2.820  11.619  18.518  0.00  0.00    +0.000 C 
ATOM     10  C   UNL     1      -2.065  12.028  19.756  0.00  0.00    +0.000 A 
ATOM     11  C   UNL     1      -2.523  13.206  20.388  0.00  0.00    +0.000 A 
ATOM     12  C   UNL     1      -1.927  13.690  21.549  0.00  0.00    +0.000 A 
ATOM     13  C   UNL     1      -0.855  13.009  22.103  0.00  0.00    +0.000 A 
ATOM     14  C   UNL     1      -0.388  11.843  21.494  0.00  0.00    +0.000 A 
ATOM     15  C   UNL     1      -0.969  11.327  20.322  0.00  0.00    +0.000 A 
ENDBRANCH   7  15
ENDBRANCH   1   8
BRANCH   4  16
ATOM     16  N   UNL     1       3.070   4.743  18.805  0.00  0.00    +0.000 N 
BRANCH  16  17
ATOM     17  S   UNL     1       4.771   4.410  19.013  0.00  0.00    +0.000 S 
ATOM     18  O   UNL     1       5.365   5.552  19.702  0.00  0.00    +0.000 OA
ATOM     19  O   UNL     1       4.899   3.075  19.544  0.00  0.00    +0.000 OA
BRANCH  17  20
ATOM     20  C   UNL     1       5.516   4.381  17.370  0.00  0.00    +0.000 A 
ATOM     21  C   UNL     1       4.747   4.235  16.201  0.00  0.00    +0.000 A 
ATOM     22  C   UNL     1       5.369   4.316  14.942  0.00  0.00    +0.000 A 
ATOM     23  C   UNL     1       6.738   4.571  14.847  0.00  0.00    +0.000 A 
ATOM     24  C   UNL     1       7.485   4.781  16.005  0.00  0.00    +0.000 A 
ATOM     25  C   UNL     1       6.870   4.710  17.259  0.00  0.00    +0.000 A 
ENDBRANCH  17  20
ENDBRANCH  16  17
BRANCH  16  26
ATOM     26  C   UNL     1       2.194   3.529  18.798  0.00  0.00    +0.000 C 
BRANCH  26  27
ATOM     27  C   UNL     1       1.007   3.454  19.774  0.00  0.00    +0.000 C 
BRANCH  27  28
ATOM     28  C   UNL     1       1.459   2.888  21.068  0.00  0.00    +0.000 C 
ATOM     29  N   UNL     1       1.805   2.443  22.088  0.00  0.00    +0.000 NA
ENDBRANCH  27  28
ENDBRANCH  26  27
ENDBRANCH  16  26
ENDBRANCH   4  16
TORSDOF 8
ENDMDL
MODEL 3
REMARK VINA RESULT:      -8.3      4.563      7.172
REMARK  Name = 
REMARK  9 active torsions:
REMARK  status: ('A' for Active; 'I' for Inactive)
REMARK    1  A    between atoms: C_1  and  C_2
REMARK    2  A    between atoms: C_7  and  N_8
REMARK    3  A    between atoms: C_9  and  C_10
REMARK    4  A    between atoms: C_13  and  N_14
REMARK    5  A    between atoms: N_14  and  C_15
REMARK    6  A    between atoms: N_14  and  S_19
REMARK    7  A    between atoms: C_15  and  C_16
REMARK    8  A    between atoms: C_16  and  C_17
REMARK    9  A    between atoms: S_19  and  C_22
REMARK                            x       y       z     vdW  Elec       q    Type
REMARK                         _______ _______ _______ _____ _____    ______ ____
ROOT
ATOM      1  C   UNL     1       1.541   8.585  19.377  0.00  0.00    +0.000 A 
ATOM      2  C   UNL     1       1.961   8.172  18.106  0.00  0.00    +0.000 A 
ATOM      3  C   UNL     1       2.431   6.875  17.917  0.00  0.00    +0.000 A 
ATOM      4  C   UNL     1       2.494   5.956  18.975  0.00  0.00    +0.000 A 
ATOM      5  C   UNL     1       2.073   6.377  20.246  0.00  0.00    +0.000 A 
ATOM      6  C   UNL     1       1.591   7.686  20.448  0.00  0.00    +0.000 A 
ENDROOT
BRANCH   1   8
ATOM      7  N   UNL     1       1.567  10.920  18.687  0.00  0.00    +0.000 NA
ATOM      8  C   UNL     1       1.145   9.994  19.476  0.00  0.00    +0.000 C 
BRANCH   7  15
ATOM      9  C   UNL     1       3.303  13.524  18.171  0.00  0.00    +0.000 C 
ATOM     10  C   UNL     1       1.862  13.452  18.605  0.00  0.00    +0.000 A 
ATOM     11  C   UNL     1       1.209  14.695  18.758  0.00  0.00    +0.000 A 
ATOM     12  C   UNL     1      -0.127  14.776  19.141  0.00  0.00    +0.000 A 
ATOM     13  C   UNL     1      -0.840  13.612  19.384  0.00  0.00    +0.000 A 
ATOM     14  C   UNL     1      -0.212  12.375  19.238  0.00  0.00    +0.000 A 
ATOM     15  C   UNL     1       1.135  12.259  18.852  0.00  0.00    +0.000 A 
ENDBRANCH   7  15
ENDBRANCH   1   8
BRANCH   4  16
ATOM     16  N   UNL     1       3.084   4.663  18.736  0.00  0.00    +0.000 N 
BRANCH  16  17
ATOM     17  S   UNL     1       4.805   4.503  18.982  0.00  0.00    +0.000 S 
ATOM     18  O   UNL     1       5.257   5.676  19.725  0.00  0.00    +0.000 OA
ATOM     19  O   UNL     1       5.059   3.171  19.474  0.00  0.00    +0.000 OA
BRANCH  17  20
ATOM     20  C   UNL     1       5.590   4.609  17.361  0.00  0.00    +0.000 A 
ATOM     21  C   UNL     1       6.984   4.721  17.210  0.00  0.00    +0.000 A 
ATOM     22  C   UNL     1       7.550   4.703  15.924  0.00  0.00    +0.000 A 
ATOM     23  C   UNL     1       6.739   4.543  14.798  0.00  0.00    +0.000 A 
ATOM     24  C   UNL     1       5.366   4.366  14.955  0.00  0.00    +0.000 A 
ATOM     25  C   UNL     1       4.798   4.375  16.233  0.00  0.00    +0.000 A 
ENDBRANCH  17  20
ENDBRANCH  16  17
BRANCH  16  26
ATOM     26  C   UNL     1       2.332   3.369  18.738  0.00  0.00    +0.000 C 
BRANCH  26  27
ATOM     27  C   UNL     1       1.251   3.131  19.806  0.00  0.00    +0.000 C 
BRANCH  27  28
ATOM     28  C   UNL     1       1.892   2.880  21.119  0.00  0.00    +0.000 C 
ATOM     29  N   UNL     1       2.402   2.676  22.146  0.00  0.00    +0.000 NA
ENDBRANCH  27  28
ENDBRANCH  26  27
ENDBRANCH  16  26
ENDBRANCH   4  16
TORSDOF 8
ENDMDL
MODEL 4
REMARK VINA RESULT:      -8.2      1.014      1.616
REMARK  Name = 
REMARK  9 active torsions:
REMARK  status: ('A' for Active; 'I' for Inactive)
REMARK    1  A    between atoms: C_1  and  C_2
REMARK    2  A    between atoms: C_7  and  N_8
REMARK    3  A    between atoms: C_9  and  C_10
REMARK    4  A    between atoms: C_13  and  N_14
REMARK    5  A    between atoms: N_14  and  C_15
REMARK    6  A    between atoms: N_14  and  S_19
REMARK    7  A    between atoms: C_15  and  C_16
REMARK    8  A    between atoms: C_16  and  C_17
REMARK    9  A    between atoms: S_19  and  C_22
REMARK                            x       y       z     vdW  Elec       q    Type
REMARK                         _______ _______ _______ _____ _____    ______ ____
ROOT
ATOM      1  C   UNL     1       7.934   8.018  18.005  0.00  0.00    +0.000 A 
ATOM      2  C   UNL     1       6.901   7.987  17.060  0.00  0.00    +0.000 A 
ATOM      3  C   UNL     1       6.179   6.814  16.856  0.00  0.00    +0.000 A 
ATOM      4  C   UNL     1       6.457   5.647  17.583  0.00  0.00    +0.000 A 
ATOM      5  C   UNL     1       7.495   5.684  18.529  0.00  0.00    +0.000 A 
ATOM      6  C   UNL     1       8.228   6.868  18.745  0.00  0.00    +0.000 A 
ENDROOT
BRANCH   1   8
ATOM      7  N   UNL     1       8.828   9.972  19.150  0.00  0.00    +0.000 NA
ATOM      8  C   UNL     1       8.679   9.280  18.075  0.00  0.00    +0.000 C 
BRANCH   7  15
ATOM      9  C   UNL     1       8.144  12.551  17.434  0.00  0.00    +0.000 C 
ATOM     10  C   UNL     1       9.281  12.369  18.406  0.00  0.00    +0.000 A 
ATOM     11  C   UNL     1      10.106  13.500  18.597  0.00  0.00    +0.000 A 
ATOM     12  C   UNL     1      11.184  13.477  19.477  0.00  0.00    +0.000 A 
ATOM     13  C   UNL     1      11.464  12.320  20.186  0.00  0.00    +0.000 A 
ATOM     14  C   UNL     1      10.660  11.192  20.012  0.00  0.00    +0.000 A 
ATOM     15  C   UNL     1       9.563  11.184  19.131  0.00  0.00    +0.000 A 
ENDBRANCH   7  15
ENDBRANCH   1   8
BRANCH   4  16
ATOM     16  N   UNL     1       5.743   4.439  17.255  0.00  0.00    +0.000 N 
BRANCH  16  17
ATOM     17  S   UNL     1       4.528   3.889  18.382  0.00  0.00    +0.000 S 
ATOM     18  O   UNL     1       3.606   3.023  17.651  0.00  0.00    +0.000 OA
ATOM     19  O   UNL     1       5.203   3.420  19.567  0.00  0.00    +0.000 OA
BRANCH  17  20
ATOM     20  C   UNL     1       3.564   5.331  18.878  0.00  0.00    +0.000 A 
ATOM     21  C   UNL     1       3.273   6.380  17.987  0.00  0.00    +0.000 A 
ATOM     22  C   UNL     1       2.438   7.433  18.399  0.00  0.00    +0.000 A 
ATOM     23  C   UNL     1       1.871   7.426  19.675  0.00  0.00    +0.000 A 
ATOM     24  C   UNL     1       2.108   6.353  20.531  0.00  0.00    +0.000 A 
ATOM     25  C   UNL     1       2.931   5.299  20.125  0.00  0.00    +0.000 A 
ENDBRANCH  17  20
ENDBRANCH  16  17
BRANCH  16  26
ATOM     26  C   UNL     1       5.615   3.872  15.876  0.00  0.00    +0.000 C 
BRANCH  26  27
ATOM     27  C   UNL     1       6.640   4.272  14.801  0.00  0.00    +0.000 C 
BRANCH  27  28
ATOM     28  C   UNL     1       6.197   3.774  13.477  0.00  0.00    +0.000 C 
ATOM     29  N   UNL     1       5.848   3.392  12.433  0.00  0.00    +0.000 NA
ENDBRANCH  27  28
ENDBRANCH  26  27
ENDBRANCH  16  26
ENDBRANCH   4  16
TORSDOF 8
ENDMDL
MODEL 5
REMARK VINA RESULT:      -8.2      4.365      7.216
REMARK  Name = 
REMARK  9 active torsions:
REMARK  status: ('A' for Active; 'I' for Inactive)
REMARK    1  A    between atoms: C_1  and  C_2
REMARK    2  A    between atoms: C_7  and  N_8
REMARK    3  A    between atoms: C_9  and  C_10
REMARK    4  A    between atoms: C_13  and  N_14
REMARK    5  A    between atoms: N_14  and  C_15
REMARK    6  A    between atoms: N_14  and  S_19
REMARK    7  A    between atoms: C_15  and  C_16
REMARK    8  A    between atoms: C_16  and  C_17
REMARK    9  A    between atoms: S_19  and  C_22
REMARK                            x       y       z     vdW  Elec       q    Type
REMARK                         _______ _______ _______ _____ _____    ______ ____
ROOT
ATOM      1  C   UNL     1       1.384   8.797  19.899  0.00  0.00    +0.000 A 
ATOM      2  C   UNL     1       1.787   7.621  20.544  0.00  0.00    +0.000 A 
ATOM      3  C   UNL     1       2.472   6.638  19.834  0.00  0.00    +0.000 A 
ATOM      4  C   UNL     1       2.776   6.794  18.473  0.00  0.00    +0.000 A 
ATOM      5  C   UNL     1       2.367   7.974  17.832  0.00  0.00    +0.000 A 
ATOM      6  C   UNL     1       1.679   8.978  18.543  0.00  0.00    +0.000 A 
ENDROOT
BRANCH   1   8
ATOM      7  N   UNL     1       0.806  10.992  20.779  0.00  0.00    +0.000 NA
ATOM      8  C   UNL     1       0.599   9.723  20.723  0.00  0.00    +0.000 C 
BRANCH   7  15
ATOM      9  C   UNL     1       1.062  14.138  21.097  0.00  0.00    +0.000 C 
ATOM     10  C   UNL     1       0.058  13.227  21.754  0.00  0.00    +0.000 A 
ATOM     11  C   UNL     1      -0.900  13.866  22.573  0.00  0.00    +0.000 A 
ATOM     12  C   UNL     1      -1.895  13.147  23.229  0.00  0.00    +0.000 A 
ATOM     13  C   UNL     1      -1.952  11.769  23.085  0.00  0.00    +0.000 A 
ATOM     14  C   UNL     1      -1.015  11.120  22.280  0.00  0.00    +0.000 A 
ATOM     15  C   UNL     1       0.001  11.818  21.603  0.00  0.00    +0.000 A 
ENDBRANCH   7  15
ENDBRANCH   1   8
BRANCH   4  16
ATOM     16  N   UNL     1       3.397   5.699  17.772  0.00  0.00    +0.000 N 
BRANCH  16  17
ATOM     17  S   UNL     1       2.465   4.236  17.574  0.00  0.00    +0.000 S 
ATOM     18  O   UNL     1       1.100   4.624  17.227  0.00  0.00    +0.000 OA
ATOM     19  O   UNL     1       3.218   3.342  16.729  0.00  0.00    +0.000 OA
BRANCH  17  20
ATOM     20  C   UNL     1       2.358   3.445  19.192  0.00  0.00    +0.000 A 
ATOM     21  C   UNL     1       3.500   3.023  19.896  0.00  0.00    +0.000 A 
ATOM     22  C   UNL     1       3.366   2.501  21.194  0.00  0.00    +0.000 A 
ATOM     23  C   UNL     1       2.109   2.428  21.799  0.00  0.00    +0.000 A 
ATOM     24  C   UNL     1       0.988   2.908  21.124  0.00  0.00    +0.000 A 
ATOM     25  C   UNL     1       1.117   3.436  19.836  0.00  0.00    +0.000 A 
ENDBRANCH  17  20
ENDBRANCH  16  17
BRANCH  16  26
ATOM     26  C   UNL     1       4.550   5.835  16.827  0.00  0.00    +0.000 C 
BRANCH  26  27
ATOM     27  C   UNL     1       5.904   6.333  17.362  0.00  0.00    +0.000 C 
BRANCH  27  28
ATOM     28  C   UNL     1       6.953   5.322  17.087  0.00  0.00    +0.000 C 
ATOM     29  N   UNL     1       7.770   4.521  16.868  0.00  0.00    +0.000 NA
ENDBRANCH  27  28
ENDBRANCH  26  27
ENDBRANCH  16  26
ENDBRANCH   4  16
TORSDOF 8
ENDMDL
MODEL 6
REMARK VINA RESULT:      -8.2      0.829      1.111
REMARK  Name = 
REMARK  9 active torsions:
REMARK  status: ('A' for Active; 'I' for Inactive)
REMARK    1  A    between atoms: C_1  and  C_2
REMARK    2  A    between atoms: C_7  and  N_8
REMARK    3  A    between atoms: C_9  and  C_10
REMARK    4  A    between atoms: C_13  and  N_14
REMARK    5  A    between atoms: N_14  and  C_15
REMARK    6  A    between atoms: N_14  and  S_19
REMARK    7  A    between atoms: C_15  and  C_16
REMARK    8  A    between atoms: C_16  and  C_17
REMARK    9  A    between atoms: S_19  and  C_22
REMARK                            x       y       z     vdW  Elec       q    Type
REMARK                         _______ _______ _______ _____ _____    ______ ____
ROOT
ATOM      1  C   UNL     1       7.848   7.810  18.273  0.00  0.00    +0.000 A 
ATOM      2  C   UNL     1       6.818   8.036  17.352  0.00  0.00    +0.000 A 
ATOM      3  C   UNL     1       5.986   6.988  16.968  0.00  0.00    +0.000 A 
ATOM      4  C   UNL     1       6.151   5.694  17.486  0.00  0.00    +0.000 A 
ATOM      5  C   UNL     1       7.188   5.474  18.407  0.00  0.00    +0.000 A 
ATOM      6  C   UNL     1       8.031   6.530  18.806  0.00  0.00    +0.000 A 
ENDROOT
BRANCH   1   8
ATOM      7  N   UNL     1       8.473  10.159  18.115  0.00  0.00    +0.000 NA
ATOM      8  C   UNL     1       8.711   8.967  18.540  0.00  0.00    +0.000 C 
BRANCH   7  15
ATOM      9  C   UNL     1       8.022  13.223  17.433  0.00  0.00    +0.000 C 
ATOM     10  C   UNL     1       9.188  12.606  18.160  0.00  0.00    +0.000 A 
ATOM     11  C   UNL     1      10.168  13.514  18.622  0.00  0.00    +0.000 A 
ATOM     12  C   UNL     1      11.290  13.082  19.323  0.00  0.00    +0.000 A 
ATOM     13  C   UNL     1      11.462  11.729  19.575  0.00  0.00    +0.000 A 
ATOM     14  C   UNL     1      10.505  10.818  19.127  0.00  0.00    +0.000 A 
ATOM     15  C   UNL     1       9.360  11.222  18.418  0.00  0.00    +0.000 A 
ENDBRANCH   7  15
ENDBRANCH   1   8
BRANCH   4  16
ATOM     16  N   UNL     1       5.324   4.632  16.973  0.00  0.00    +0.000 N 
BRANCH  16  17
ATOM     17  S   UNL     1       4.091   3.987  18.028  0.00  0.00    +0.000 S 
ATOM     18  O   UNL     1       3.151   3.234  17.202  0.00  0.00    +0.000 OA
ATOM     19  O   UNL     1       4.749   3.369  19.153  0.00  0.00    +0.000 OA
BRANCH  17  20
ATOM     20  C   UNL     1       3.162   5.388  18.684  0.00  0.00    +0.000 A 
ATOM     21  C   UNL     1       2.779   5.466  20.036  0.00  0.00    +0.000 A 
ATOM     22  C   UNL     1       2.141   6.623  20.514  0.00  0.00    +0.000 A 
ATOM     23  C   UNL     1       1.914   7.707  19.663  0.00  0.00    +0.000 A 
ATOM     24  C   UNL     1       2.354   7.652  18.342  0.00  0.00    +0.000 A 
ATOM     25  C   UNL     1       2.996   6.507  17.862  0.00  0.00    +0.000 A 
ENDBRANCH  17  20
ENDBRANCH  16  17
BRANCH  16  26
ATOM     26  C   UNL     1       5.113   4.340  15.519  0.00  0.00    +0.000 C 
BRANCH  26  27
ATOM     27  C   UNL     1       6.248   3.684  14.713  0.00  0.00    +0.000 C 
BRANCH  27  28
ATOM     28  C   UNL     1       7.185   4.727  14.230  0.00  0.00    +0.000 C 
ATOM     29  N   UNL     1       7.925   5.539  13.843  0.00  0.00    +0.000 NA
ENDBRANCH  27  28
ENDBRANCH  26  27
ENDBRANCH  16  26
ENDBRANCH   4  16
TORSDOF 8
ENDMDL
MODEL 7
REMARK VINA RESULT:      -8.2      4.614      7.236
REMARK  Name = 
REMARK  9 active torsions:
REMARK  status: ('A' for Active; 'I' for Inactive)
REMARK    1  A    between atoms: C_1  and  C_2
REMARK    2  A    between atoms: C_7  and  N_8
REMARK    3  A    between atoms: C_9  and  C_10
REMARK    4  A    between atoms: C_13  and  N_14
REMARK    5  A    between atoms: N_14  and  C_15
REMARK    6  A    between atoms: N_14  and  S_19
REMARK    7  A    between atoms: C_15  and  C_16
REMARK    8  A    between atoms: C_16  and  C_17
REMARK    9  A    between atoms: S_19  and  C_22
REMARK                            x       y       z     vdW  Elec       q    Type
REMARK                         _______ _______ _______ _____ _____    ______ ____
ROOT
ATOM      1  C   UNL     1       1.768   8.940  18.847  0.00  0.00    +0.000 A 
ATOM      2  C   UNL     1       1.674   8.131  19.986  0.00  0.00    +0.000 A 
ATOM      3  C   UNL     1       2.081   6.801  19.930  0.00  0.00    +0.000 A 
ATOM      4  C   UNL     1       2.591   6.240  18.749  0.00  0.00    +0.000 A 
ATOM      5  C   UNL     1       2.681   7.056  17.610  0.00  0.00    +0.000 A 
ATOM      6  C   UNL     1       2.277   8.405  17.659  0.00  0.00    +0.000 A 
ENDROOT
BRANCH   1   8
ATOM      7  N   UNL     1       1.870  11.366  18.665  0.00  0.00    +0.000 NA
ATOM      8  C   UNL     1       1.234  10.298  19.000  0.00  0.00    +0.000 C 
BRANCH   7  15
ATOM      9  C   UNL     1       3.302  14.165  18.246  0.00  0.00    +0.000 C 
ATOM     10  C   UNL     1       1.871  13.916  18.645  0.00  0.00    +0.000 A 
ATOM     11  C   UNL     1       1.074  15.072  18.808  0.00  0.00    +0.000 A 
ATOM     12  C   UNL     1      -0.270  14.988  19.160  0.00  0.00    +0.000 A 
ATOM     13  C   UNL     1      -0.849  13.745  19.361  0.00  0.00    +0.000 A 
ATOM     14  C   UNL     1      -0.078  12.592  19.204  0.00  0.00    +0.000 A 
ATOM     15  C   UNL     1       1.282  12.643  18.848  0.00  0.00    +0.000 A 
ENDBRANCH   7  15
ENDBRANCH   1   8
BRANCH   4  16
ATOM     16  N   UNL     1       2.900   4.832  18.728  0.00  0.00    +0.000 N 
BRANCH  16  17
ATOM     17  S   UNL     1       4.552   4.363  19.040  0.00  0.00    +0.000 S 
ATOM     18  O   UNL     1       5.176   5.431  19.817  0.00  0.00    +0.000 OA
ATOM     19  O   UNL     1       4.543   3.004  19.523  0.00  0.00    +0.000 OA
BRANCH  17  20
ATOM     20  C   UNL     1       5.411   4.337  17.454  0.00  0.00    +0.000 A 
ATOM     21  C   UNL     1       4.727   4.185  16.234  0.00  0.00    +0.000 A 
ATOM     22  C   UNL     1       5.435   4.268  15.022  0.00  0.00    +0.000 A 
ATOM     23  C   UNL     1       6.806   4.533  15.023  0.00  0.00    +0.000 A 
ATOM     24  C   UNL     1       7.468   4.748  16.230  0.00  0.00    +0.000 A 
ATOM     25  C   UNL     1       6.768   4.674  17.438  0.00  0.00    +0.000 A 
ENDBRANCH  17  20
ENDBRANCH  16  17
BRANCH  16  26
ATOM     26  C   UNL     1       1.896   3.736  18.911  0.00  0.00    +0.000 C 
BRANCH  26  27
ATOM     27  C   UNL     1       0.910   3.810  20.089  0.00  0.00    +0.000 C 
BRANCH  27  28
ATOM     28  C   UNL     1       1.436   3.024  21.231  0.00  0.00    +0.000 C 
ATOM     29  N   UNL     1       1.840   2.401  22.128  0.00  0.00    +0.000 NA
ENDBRANCH  27  28
ENDBRANCH  26  27
ENDBRANCH  16  26
ENDBRANCH   4  16
TORSDOF 8
ENDMDL
MODEL 8
REMARK VINA RESULT:      -8.2      4.736      7.620
REMARK  Name = 
REMARK  9 active torsions:
REMARK  status: ('A' for Active; 'I' for Inactive)
REMARK    1  A    between atoms: C_1  and  C_2
REMARK    2  A    between atoms: C_7  and  N_8
REMARK    3  A    between atoms: C_9  and  C_10
REMARK    4  A    between atoms: C_13  and  N_14
REMARK    5  A    between atoms: N_14  and  C_15
REMARK    6  A    between atoms: N_14  and  S_19
REMARK    7  A    between atoms: C_15  and  C_16
REMARK    8  A    between atoms: C_16  and  C_17
REMARK    9  A    between atoms: S_19  and  C_22
REMARK                            x       y       z     vdW  Elec       q    Type
REMARK                         _______ _______ _______ _____ _____    ______ ____
ROOT
ATOM      1  C   UNL     1       1.645   8.798  19.454  0.00  0.00    +0.000 A 
ATOM      2  C   UNL     1       1.651   7.855  20.490  0.00  0.00    +0.000 A 
ATOM      3  C   UNL     1       2.091   6.557  20.245  0.00  0.00    +0.000 A 
ATOM      4  C   UNL     1       2.537   6.161  18.975  0.00  0.00    +0.000 A 
ATOM      5  C   UNL     1       2.527   7.110  17.941  0.00  0.00    +0.000 A 
ATOM      6  C   UNL     1       2.088   8.429  18.180  0.00  0.00    +0.000 A 
ENDROOT
BRANCH   1   8
ATOM      7  N   UNL     1       0.737  10.447  20.998  0.00  0.00    +0.000 NA
ATOM      8  C   UNL     1       1.083  10.107  19.806  0.00  0.00    +0.000 C 
BRANCH   7  15
ATOM      9  C   UNL     1      -1.430  11.170  23.199  0.00  0.00    +0.000 C 
ATOM     10  C   UNL     1      -0.743  12.110  22.242  0.00  0.00    +0.000 A 
ATOM     11  C   UNL     1      -1.084  13.475  22.379  0.00  0.00    +0.000 A 
ATOM     12  C   UNL     1      -0.514  14.454  21.571  0.00  0.00    +0.000 A 
ATOM     13  C   UNL     1       0.408  14.090  20.602  0.00  0.00    +0.000 A 
ATOM     14  C   UNL     1       0.757  12.747  20.451  0.00  0.00    +0.000 A 
ATOM     15  C   UNL     1       0.201  11.734  21.253  0.00  0.00    +0.000 A 
ENDBRANCH   7  15
ENDBRANCH   1   8
BRANCH   4  16
ATOM     16  N   UNL     1       2.884   4.779  18.762  0.00  0.00    +0.000 N 
BRANCH  16  17
ATOM     17  S   UNL     1       4.551   4.318  19.002  0.00  0.00    +0.000 S 
ATOM     18  O   UNL     1       5.168   5.322  19.865  0.00  0.00    +0.000 OA
ATOM     19  O   UNL     1       4.579   2.920  19.354  0.00  0.00    +0.000 OA
BRANCH  17  20
ATOM     20  C   UNL     1       5.381   4.461  17.406  0.00  0.00    +0.000 A 
ATOM     21  C   UNL     1       4.814   3.962  16.219  0.00  0.00    +0.000 A 
ATOM     22  C   UNL     1       5.459   4.186  14.990  0.00  0.00    +0.000 A 
ATOM     23  C   UNL     1       6.640   4.927  14.938  0.00  0.00    +0.000 A 
ATOM     24  C   UNL     1       7.164   5.477  16.107  0.00  0.00    +0.000 A 
ATOM     25  C   UNL     1       6.523   5.264  17.331  0.00  0.00    +0.000 A 
ENDBRANCH  17  20
ENDBRANCH  16  17
BRANCH  16  26
ATOM     26  C   UNL     1       1.913   3.640  18.800  0.00  0.00    +0.000 C 
BRANCH  26  27
ATOM     27  C   UNL     1       0.969   3.497  20.006  0.00  0.00    +0.000 C 
BRANCH  27  28
ATOM     28  C   UNL     1       1.748   3.110  21.207  0.00  0.00    +0.000 C 
ATOM     29  N   UNL     1       2.357   2.797  22.149  0.00  0.00    +0.000 NA
ENDBRANCH  27  28
ENDBRANCH  26  27
ENDBRANCH  16  26
ENDBRANCH   4  16
TORSDOF 8
ENDMDL
MODEL 9
REMARK VINA RESULT:      -8.1      0.869      1.805
REMARK  Name = 
REMARK  9 active torsions:
REMARK  status: ('A' for Active; 'I' for Inactive)
REMARK    1  A    between atoms: C_1  and  C_2
REMARK    2  A    between atoms: C_7  and  N_8
REMARK    3  A    between atoms: C_9  and  C_10
REMARK    4  A    between atoms: C_13  and  N_14
REMARK    5  A    between atoms: N_14  and  C_15
REMARK    6  A    between atoms: N_14  and  S_19
REMARK    7  A    between atoms: C_15  and  C_16
REMARK    8  A    between atoms: C_16  and  C_17
REMARK    9  A    between atoms: S_19  and  C_22
REMARK                            x       y       z     vdW  Elec       q    Type
REMARK                         _______ _______ _______ _____ _____    ______ ____
ROOT
ATOM      1  C   UNL     1       8.128   7.795  18.365  0.00  0.00    +0.000 A 
ATOM      2  C   UNL     1       8.211   6.555  19.009  0.00  0.00    +0.000 A 
ATOM      3  C   UNL     1       7.459   5.478  18.545  0.00  0.00    +0.000 A 
ATOM      4  C   UNL     1       6.612   5.601  17.433  0.00  0.00    +0.000 A 
ATOM      5  C   UNL     1       6.532   6.848  16.793  0.00  0.00    +0.000 A 
ATOM      6  C   UNL     1       7.293   7.942  17.252  0.00  0.00    +0.000 A 
ENDROOT
BRANCH   1   8
ATOM      7  N   UNL     1       8.697  10.128  18.770  0.00  0.00    +0.000 NA
ATOM      8  C   UNL     1       8.899   8.876  18.990  0.00  0.00    +0.000 C 
BRANCH   7  15
ATOM      9  C   UNL     1      11.129  11.710  17.490  0.00  0.00    +0.000 C 
ATOM     10  C   UNL     1      10.562  11.863  18.877  0.00  0.00    +0.000 A 
ATOM     11  C   UNL     1      11.168  12.859  19.677  0.00  0.00    +0.000 A 
ATOM     12  C   UNL     1      10.734  13.117  20.974  0.00  0.00    +0.000 A 
ATOM     13  C   UNL     1       9.685  12.382  21.504  0.00  0.00    +0.000 A 
ATOM     14  C   UNL     1       9.074  11.394  20.729  0.00  0.00    +0.000 A 
ATOM     15  C   UNL     1       9.488  11.110  19.416  0.00  0.00    +0.000 A 
ENDBRANCH   7  15
ENDBRANCH   1   8
BRANCH   4  16
ATOM     16  N   UNL     1       5.786   4.480  17.064  0.00  0.00    +0.000 N 
BRANCH  16  17
ATOM     17  S   UNL     1       4.600   3.935  18.224  0.00  0.00    +0.000 S 
ATOM     18  O   UNL     1       3.728   2.978  17.549  0.00  0.00    +0.000 OA
ATOM     19  O   UNL     1       5.297   3.576  19.435  0.00  0.00    +0.000 OA
BRANCH  17  20
ATOM     20  C   UNL     1       3.560   5.351  18.633  0.00  0.00    +0.000 A 
ATOM     21  C   UNL     1       3.004   5.528  19.913  0.00  0.00    +0.000 A 
ATOM     22  C   UNL     1       2.281   6.698  20.203  0.00  0.00    +0.000 A 
ATOM     23  C   UNL     1       2.139   7.697  19.239  0.00  0.00    +0.000 A 
ATOM     24  C   UNL     1       2.747   7.548  17.994  0.00  0.00    +0.000 A 
ATOM     25  C   UNL     1       3.474   6.391  17.702  0.00  0.00    +0.000 A 
ENDBRANCH  17  20
ENDBRANCH  16  17
BRANCH  16  26
ATOM     26  C   UNL     1       5.532   4.033  15.658  0.00  0.00    +0.000 C 
BRANCH  26  27
ATOM     27  C   UNL     1       6.640   4.202  14.605  0.00  0.00    +0.000 C 
BRANCH  27  28
ATOM     28  C   UNL     1       6.155   3.724  13.287  0.00  0.00    +0.000 C 
ATOM     29  N   UNL     1       5.765   3.351  12.255  0.00  0.00    +0.000 NA
ENDBRANCH  27  28
ENDBRANCH  26  27
ENDBRANCH  16  26
ENDBRANCH   4  16
TORSDOF 8
ENDMDL
