MODEL 1
REMARK VINA RESULT:      -7.2      0.000      0.000
REMARK  Name = 
REMARK  6 active torsions:
REMARK  status: ('A' for Active; 'I' for Inactive)
REMARK    1  A    between atoms: C_1  and  N_2
REMARK    2  A    between atoms: N_2  and  C_3
REMARK    3  A    between atoms: N_2  and  C_4
REMARK    4  A    between atoms: C_7  and  C_8
REMARK    5  A    between atoms: C_8  and  N_9
REMARK    6  A    between atoms: C_10  and  C_12
REMARK                            x       y       z     vdW  Elec       q    Type
REMARK                         _______ _______ _______ _____ _____    ______ ____
ROOT
ATOM      1  N   UNL     1       4.056   5.503  17.943  0.00  0.00    +0.000 N 
ATOM      2  C   UNL     1       5.411   5.467  17.703  0.00  0.00    +0.000 C 
ATOM      3  O   UNL     1       6.258   5.703  18.560  0.00  0.00    +0.000 OA
ATOM      4  H   UNL     1       3.451   5.266  17.163  0.00  0.00    +0.000 HD
ENDROOT
BRANCH   2   5
ATOM      5  C   UNL     1       5.775   5.121  16.319  0.00  0.00    +0.000 A 
ATOM      6  C   UNL     1       5.116   4.166  15.506  0.00  0.00    +0.000 A 
ATOM      7  C   UNL     1       5.788   4.176  14.312  0.00  0.00    +0.000 A 
ATOM      8  C   UNL     1       5.651   3.477  13.083  0.00  0.00    +0.000 A 
ATOM      9  C   UNL     1       6.532   3.705  12.089  0.00  0.00    +0.000 A 
ATOM     10  C   UNL     1       7.622   4.654  12.247  0.00  0.00    +0.000 A 
ATOM     11  C   UNL     1       7.735   5.327  13.404  0.00  0.00    +0.000 A 
ATOM     12  N   UNL     1       6.826   5.101  14.441  0.00  0.00    +0.000 N 
ATOM     13  N   UNL     1       6.808   5.695  15.668  0.00  0.00    +0.000 NA
ENDBRANCH   2   5
BRANCH   1  14
ATOM     14  C   UNL     1       3.501   5.827  19.234  0.00  0.00    +0.000 C 
BRANCH  14  18
ATOM     15  C   UNL     1       1.068   9.456  19.059  0.00  0.00    +0.000 A 
ATOM     16  C   UNL     1       1.716   8.935  17.927  0.00  0.00    +0.000 A 
ATOM     17  C   UNL     1       2.497   7.772  17.982  0.00  0.00    +0.000 A 
ATOM     18  C   UNL     1       2.650   7.069  19.179  0.00  0.00    +0.000 A 
ATOM     19  C   UNL     1       1.964   7.530  20.303  0.00  0.00    +0.000 A 
ATOM     20  C   UNL     1       1.188   8.698  20.237  0.00  0.00    +0.000 A 
BRANCH  15  22
ATOM     21  C   UNL     1      -0.884  10.711  18.209  0.00  0.00    +0.000 C 
ATOM     22  N   UNL     1       0.329  10.643  19.020  0.00  0.00    +0.000 N 
ATOM     23  C   UNL     1       1.025  11.904  19.265  0.00  0.00    +0.000 C 
ENDBRANCH  15  22
ENDBRANCH  14  18
ENDBRANCH   1  14
TORSDOF 4
ENDMDL
MODEL 2
REMARK VINA RESULT:      -7.1      0.343      1.290
REMARK  Name = 
REMARK  6 active torsions:
REMARK  status: ('A' for Active; 'I' for Inactive)
REMARK    1  A    between atoms: C_1  and  N_2
REMARK    2  A    between atoms: N_2  and  C_3
REMARK    3  A    between atoms: N_2  and  C_4
REMARK    4  A    between atoms: C_7  and  C_8
REMARK    5  A    between atoms: C_8  and  N_9
REMARK    6  A    between atoms: C_10  and  C_12
REMARK                            x       y       z     vdW  Elec       q    Type
REMARK                         _______ _______ _______ _____ _____    ______ ____
ROOT
ATOM      1  N   UNL     1       4.035   5.641  17.894  0.00  0.00    +0.000 N 
ATOM      2  C   UNL     1       5.334   5.208  17.759  0.00  0.00    +0.000 C 
ATOM      3  O   UNL     1       6.094   5.038  18.709  0.00  0.00    +0.000 OA
ATOM      4  H   UNL     1       3.493   5.723  17.040  0.00  0.00    +0.000 HD
ENDROOT
BRANCH   2   5
ATOM      5  C   UNL     1       5.753   4.961  16.369  0.00  0.00    +0.000 A 
ATOM      6  C   UNL     1       5.179   4.009  15.491  0.00  0.00    +0.000 A 
ATOM      7  C   UNL     1       5.877   4.127  14.318  0.00  0.00    +0.000 A 
ATOM      8  C   UNL     1       5.815   3.486  13.051  0.00  0.00    +0.000 A 
ATOM      9  C   UNL     1       6.702   3.826  12.094  0.00  0.00    +0.000 A 
ATOM     10  C   UNL     1       7.720   4.835  12.329  0.00  0.00    +0.000 A 
ATOM     11  C   UNL     1       7.761   5.452  13.522  0.00  0.00    +0.000 A 
ATOM     12  N   UNL     1       6.846   5.111  14.522  0.00  0.00    +0.000 N 
ATOM     13  N   UNL     1       6.759   5.636  15.777  0.00  0.00    +0.000 NA
ENDBRANCH   2   5
BRANCH   1  14
ATOM     14  C   UNL     1       3.442   5.943  19.174  0.00  0.00    +0.000 C 
BRANCH  14  18
ATOM     15  C   UNL     1       0.955   9.536  19.023  0.00  0.00    +0.000 A 
ATOM     16  C   UNL     1       1.139   8.803  20.207  0.00  0.00    +0.000 A 
ATOM     17  C   UNL     1       1.935   7.650  20.257  0.00  0.00    +0.000 A 
ATOM     18  C   UNL     1       2.598   7.189  19.118  0.00  0.00    +0.000 A 
ATOM     19  C   UNL     1       2.483   7.935  17.944  0.00  0.00    +0.000 A 
ATOM     20  C   UNL     1       1.680   9.086  17.905  0.00  0.00    +0.000 A 
BRANCH  15  22
ATOM     21  C   UNL     1       0.133  11.629  20.047  0.00  0.00    +0.000 C 
ATOM     22  N   UNL     1       0.122  10.657  18.957  0.00  0.00    +0.000 N 
ATOM     23  C   UNL     1      -1.108  10.564  18.174  0.00  0.00    +0.000 C 
ENDBRANCH  15  22
ENDBRANCH  14  18
ENDBRANCH   1  14
TORSDOF 4
ENDMDL
MODEL 3
REMARK VINA RESULT:      -7.1      0.836      1.334
REMARK  Name = 
REMARK  6 active torsions:
REMARK  status: ('A' for Active; 'I' for Inactive)
REMARK    1  A    between atoms: C_1  and  N_2
REMARK    2  A    between atoms: N_2  and  C_3
REMARK    3  A    between atoms: N_2  and  C_4
REMARK    4  A    between atoms: C_7  and  C_8
REMARK    5  A    between atoms: C_8  and  N_9
REMARK    6  A    between atoms: C_10  and  C_12
REMARK                            x       y       z     vdW  Elec       q    Type
REMARK                         _______ _______ _______ _____ _____    ______ ____
ROOT
ATOM      1  N   UNL     1       4.098   5.500  17.995  0.00  0.00    +0.000 N 
ATOM      2  C   UNL     1       5.243   4.749  17.858  0.00  0.00    +0.000 C 
ATOM      3  O   UNL     1       5.813   4.205  18.799  0.00  0.00    +0.000 OA
ATOM      4  H   UNL     1       3.702   5.883  17.142  0.00  0.00    +0.000 HD
ENDROOT
BRANCH   2   5
ATOM      5  C   UNL     1       5.743   4.647  16.476  0.00  0.00    +0.000 A 
ATOM      6  C   UNL     1       6.835   5.371  15.939  0.00  0.00    +0.000 A 
ATOM      7  C   UNL     1       6.939   4.962  14.635  0.00  0.00    +0.000 A 
ATOM      8  C   UNL     1       7.804   5.281  13.555  0.00  0.00    +0.000 A 
ATOM      9  C   UNL     1       7.602   4.705  12.352  0.00  0.00    +0.000 A 
ATOM     10  C   UNL     1       6.516   3.763  12.137  0.00  0.00    +0.000 A 
ATOM     11  C   UNL     1       5.713   3.450  13.168  0.00  0.00    +0.000 A 
ATOM     12  N   UNL     1       5.915   4.038  14.420  0.00  0.00    +0.000 N 
ATOM     13  N   UNL     1       5.190   3.831  15.556  0.00  0.00    +0.000 NA
ENDBRANCH   2   5
BRANCH   1  14
ATOM     14  C   UNL     1       3.458   5.723  19.268  0.00  0.00    +0.000 C 
BRANCH  14  18
ATOM     15  C   UNL     1       1.121   9.418  19.253  0.00  0.00    +0.000 A 
ATOM     16  C   UNL     1       1.767   8.937  18.103  0.00  0.00    +0.000 A 
ATOM     17  C   UNL     1       2.518   7.754  18.106  0.00  0.00    +0.000 A 
ATOM     18  C   UNL     1       2.640   6.988  19.267  0.00  0.00    +0.000 A 
ATOM     19  C   UNL     1       1.955   7.410  20.407  0.00  0.00    +0.000 A 
ATOM     20  C   UNL     1       1.209   8.599  20.393  0.00  0.00    +0.000 A 
BRANCH  15  22
ATOM     21  C   UNL     1      -1.031  10.616  19.046  0.00  0.00    +0.000 C 
ATOM     22  N   UNL     1       0.413  10.624  19.267  0.00  0.00    +0.000 N 
ATOM     23  C   UNL     1       1.122  11.851  18.914  0.00  0.00    +0.000 C 
ENDBRANCH  15  22
ENDBRANCH  14  18
ENDBRANCH   1  14
TORSDOF 4
ENDMDL
MODEL 4
REMARK VINA RESULT:      -7.1      4.488      9.066
REMARK  Name = 
REMARK  6 active torsions:
REMARK  status: ('A' for Active; 'I' for Inactive)
REMARK    1  A    between atoms: C_1  and  N_2
REMARK    2  A    between atoms: N_2  and  C_3
REMARK    3  A    between atoms: N_2  and  C_4
REMARK    4  A    between atoms: C_7  and  C_8
REMARK    5  A    between atoms: C_8  and  N_9
REMARK    6  A    between atoms: C_10  and  C_12
REMARK                            x       y       z     vdW  Elec       q    Type
REMARK                         _______ _______ _______ _____ _____    ______ ____
ROOT
ATOM      1  N   UNL     1       1.047   9.056  17.936  0.00  0.00    +0.000 N 
ATOM      2  C   UNL     1       0.520   9.999  18.790  0.00  0.00    +0.000 C 
ATOM      3  O   UNL     1       1.134  10.466  19.745  0.00  0.00    +0.000 OA
ATOM      4  H   UNL     1       0.454   8.760  17.168  0.00  0.00    +0.000 HD
ENDROOT
BRANCH   2   5
ATOM      5  C   UNL     1      -0.858  10.409  18.471  0.00  0.00    +0.000 A 
ATOM      6  C   UNL     1      -1.562  10.081  17.285  0.00  0.00    +0.000 A 
ATOM      7  C   UNL     1      -2.793  10.668  17.419  0.00  0.00    +0.000 A 
ATOM      8  C   UNL     1      -3.961  10.731  16.613  0.00  0.00    +0.000 A 
ATOM      9  C   UNL     1      -5.022  11.448  17.037  0.00  0.00    +0.000 A 
ATOM     10  C   UNL     1      -4.995  12.159  18.305  0.00  0.00    +0.000 A 
ATOM     11  C   UNL     1      -3.895  12.080  19.072  0.00  0.00    +0.000 A 
ATOM     12  N   UNL     1      -2.791  11.338  18.644  0.00  0.00    +0.000 N 
ATOM     13  N   UNL     1      -1.608  11.165  19.298  0.00  0.00    +0.000 NA
ENDBRANCH   2   5
BRANCH   1  14
ATOM     14  C   UNL     1       2.378   8.524  18.087  0.00  0.00    +0.000 C 
BRANCH  14  18
ATOM     15  C   UNL     1       2.290   4.447  19.665  0.00  0.00    +0.000 A 
ATOM     16  C   UNL     1       2.640   4.726  18.334  0.00  0.00    +0.000 A 
ATOM     17  C   UNL     1       2.668   6.033  17.826  0.00  0.00    +0.000 A 
ATOM     18  C   UNL     1       2.359   7.124  18.641  0.00  0.00    +0.000 A 
ATOM     19  C   UNL     1       2.071   6.878  19.984  0.00  0.00    +0.000 A 
ATOM     20  C   UNL     1       2.042   5.565  20.481  0.00  0.00    +0.000 A 
BRANCH  15  22
ATOM     21  C   UNL     1       2.048   2.025  19.235  0.00  0.00    +0.000 C 
ATOM     22  N   UNL     1       2.212   3.142  20.162  0.00  0.00    +0.000 N 
ATOM     23  C   UNL     1       1.714   2.944  21.521  0.00  0.00    +0.000 C 
ENDBRANCH  15  22
ENDBRANCH  14  18
ENDBRANCH   1  14
TORSDOF 4
ENDMDL
MODEL 5
REMARK VINA RESULT:      -7.0      0.904      1.134
REMARK  Name = 
REMARK  6 active torsions:
REMARK  status: ('A' for Active; 'I' for Inactive)
REMARK    1  A    between atoms: C_1  and  N_2
REMARK    2  A    between atoms: N_2  and  C_3
REMARK    3  A    between atoms: N_2  and  C_4
REMARK    4  A    between atoms: C_7  and  C_8
REMARK    5  A    between atoms: C_8  and  N_9
REMARK    6  A    between atoms: C_10  and  C_12
REMARK                            x       y       z     vdW  Elec       q    Type
REMARK                         _______ _______ _______ _____ _____    ______ ____
ROOT
ATOM      1  N   UNL     1       4.509   4.684  17.925  0.00  0.00    +0.000 N 
ATOM      2  C   UNL     1       5.856   4.678  17.646  0.00  0.00    +0.000 C 
ATOM      3  O   UNL     1       6.727   4.749  18.508  0.00  0.00    +0.000 OA
ATOM      4  H   UNL     1       3.881   4.597  17.131  0.00  0.00    +0.000 HD
ENDROOT
BRANCH   2   5
ATOM      5  C   UNL     1       6.181   4.581  16.213  0.00  0.00    +0.000 A 
ATOM      6  C   UNL     1       5.596   3.676  15.293  0.00  0.00    +0.000 A 
ATOM      7  C   UNL     1       6.196   3.941  14.089  0.00  0.00    +0.000 A 
ATOM      8  C   UNL     1       6.074   3.412  12.776  0.00  0.00    +0.000 A 
ATOM      9  C   UNL     1       6.866   3.889  11.794  0.00  0.00    +0.000 A 
ATOM     10  C   UNL     1       7.842   4.935  12.050  0.00  0.00    +0.000 A 
ATOM     11  C   UNL     1       7.939   5.445  13.289  0.00  0.00    +0.000 A 
ATOM     12  N   UNL     1       7.122   4.961  14.315  0.00  0.00    +0.000 N 
ATOM     13  N   UNL     1       7.102   5.367  15.616  0.00  0.00    +0.000 NA
ENDBRANCH   2   5
BRANCH   1  14
ATOM     14  C   UNL     1       3.990   4.778  19.267  0.00  0.00    +0.000 C 
BRANCH  14  18
ATOM     15  C   UNL     1       1.482   8.324  19.771  0.00  0.00    +0.000 A 
ATOM     16  C   UNL     1       2.254   8.112  18.617  0.00  0.00    +0.000 A 
ATOM     17  C   UNL     1       3.060   6.976  18.455  0.00  0.00    +0.000 A 
ATOM     18  C   UNL     1       3.113   5.990  19.442  0.00  0.00    +0.000 A 
ATOM     19  C   UNL     1       2.305   6.146  20.568  0.00  0.00    +0.000 A 
ATOM     20  C   UNL     1       1.505   7.289  20.722  0.00  0.00    +0.000 A 
BRANCH  15  22
ATOM     21  C   UNL     1       0.335  10.288  18.804  0.00  0.00    +0.000 C 
ATOM     22  N   UNL     1       0.716   9.479  19.959  0.00  0.00    +0.000 N 
ATOM     23  C   UNL     1       0.805  10.171  21.242  0.00  0.00    +0.000 C 
ENDBRANCH  15  22
ENDBRANCH  14  18
ENDBRANCH   1  14
TORSDOF 4
ENDMDL
MODEL 6
REMARK VINA RESULT:      -7.0      2.435      3.527
REMARK  Name = 
REMARK  6 active torsions:
REMARK  status: ('A' for Active; 'I' for Inactive)
REMARK    1  A    between atoms: C_1  and  N_2
REMARK    2  A    between atoms: N_2  and  C_3
REMARK    3  A    between atoms: N_2  and  C_4
REMARK    4  A    between atoms: C_7  and  C_8
REMARK    5  A    between atoms: C_8  and  N_9
REMARK    6  A    between atoms: C_10  and  C_12
REMARK                            x       y       z     vdW  Elec       q    Type
REMARK                         _______ _______ _______ _____ _____    ______ ____
ROOT
ATOM      1  N   UNL     1       2.210   7.084  20.295  0.00  0.00    +0.000 N 
ATOM      2  C   UNL     1       2.444   5.740  20.115  0.00  0.00    +0.000 C 
ATOM      3  O   UNL     1       1.834   4.859  20.715  0.00  0.00    +0.000 OA
ATOM      4  H   UNL     1       2.760   7.720  19.727  0.00  0.00    +0.000 HD
ENDROOT
BRANCH   2   5
ATOM      5  C   UNL     1       3.500   5.431  19.136  0.00  0.00    +0.000 A 
ATOM      6  C   UNL     1       3.292   5.103  17.774  0.00  0.00    +0.000 A 
ATOM      7  C   UNL     1       4.543   4.897  17.253  0.00  0.00    +0.000 A 
ATOM      8  C   UNL     1       5.044   4.550  15.970  0.00  0.00    +0.000 A 
ATOM      9  C   UNL     1       6.372   4.385  15.800  0.00  0.00    +0.000 A 
ATOM     10  C   UNL     1       7.303   4.556  16.903  0.00  0.00    +0.000 A 
ATOM     11  C   UNL     1       6.824   4.904  18.109  0.00  0.00    +0.000 A 
ATOM     12  N   UNL     1       5.451   5.081  18.297  0.00  0.00    +0.000 N 
ATOM     13  N   UNL     1       4.812   5.426  19.451  0.00  0.00    +0.000 NA
ENDBRANCH   2   5
BRANCH   1  14
ATOM     14  C   UNL     1       1.220   7.587  21.216  0.00  0.00    +0.000 C 
BRANCH  14  18
ATOM     15  C   UNL     1      -0.213  11.536  20.006  0.00  0.00    +0.000 A 
ATOM     16  C   UNL     1       0.512  10.705  19.136  0.00  0.00    +0.000 A 
ATOM     17  C   UNL     1       0.973   9.439  19.523  0.00  0.00    +0.000 A 
ATOM     18  C   UNL     1       0.711   8.942  20.802  0.00  0.00    +0.000 A 
ATOM     19  C   UNL     1      -0.063   9.721  21.662  0.00  0.00    +0.000 A 
ATOM     20  C   UNL     1      -0.516  10.989  21.265  0.00  0.00    +0.000 A 
BRANCH  15  22
ATOM     21  C   UNL     1      -1.846  13.378  20.231  0.00  0.00    +0.000 C 
ATOM     22  N   UNL     1      -0.632  12.820  19.641  0.00  0.00    +0.000 N 
ATOM     23  C   UNL     1      -0.249  13.328  18.326  0.00  0.00    +0.000 C 
ENDBRANCH  15  22
ENDBRANCH  14  18
ENDBRANCH   1  14
TORSDOF 4
ENDMDL
MODEL 7
REMARK VINA RESULT:      -7.0      4.138      5.999
REMARK  Name = 
REMARK  6 active torsions:
REMARK  status: ('A' for Active; 'I' for Inactive)
REMARK    1  A    between atoms: C_1  and  N_2
REMARK    2  A    between atoms: N_2  and  C_3
REMARK    3  A    between atoms: N_2  and  C_4
REMARK    4  A    between atoms: C_7  and  C_8
REMARK    5  A    between atoms: C_8  and  N_9
REMARK    6  A    between atoms: C_10  and  C_12
REMARK                            x       y       z     vdW  Elec       q    Type
REMARK                         _______ _______ _______ _____ _____    ______ ____
ROOT
ATOM      1  N   UNL     1       1.508   9.091  19.162  0.00  0.00    +0.000 N 
ATOM      2  C   UNL     1       2.190   8.205  18.360  0.00  0.00    +0.000 C 
ATOM      3  O   UNL     1       2.657   8.504  17.264  0.00  0.00    +0.000 OA
ATOM      4  H   UNL     1       1.188   8.737  20.058  0.00  0.00    +0.000 HD
ENDROOT
BRANCH   2   5
ATOM      5  C   UNL     1       2.318   6.849  18.920  0.00  0.00    +0.000 A 
ATOM      6  C   UNL     1       1.945   6.459  20.230  0.00  0.00    +0.000 A 
ATOM      7  C   UNL     1       2.240   5.123  20.310  0.00  0.00    +0.000 A 
ATOM      8  C   UNL     1       2.114   4.133  21.322  0.00  0.00    +0.000 A 
ATOM      9  C   UNL     1       2.549   2.880  21.079  0.00  0.00    +0.000 A 
ATOM     10  C   UNL     1       3.142   2.519  19.802  0.00  0.00    +0.000 A 
ATOM     11  C   UNL     1       3.240   3.454  18.843  0.00  0.00    +0.000 A 
ATOM     12  N   UNL     1       2.790   4.756  19.081  0.00  0.00    +0.000 N 
ATOM     13  N   UNL     1       2.823   5.813  18.220  0.00  0.00    +0.000 NA
ENDBRANCH   2   5
BRANCH   1  14
ATOM     14  C   UNL     1       1.273  10.463  18.786  0.00  0.00    +0.000 C 
BRANCH  14  18
ATOM     15  C   UNL     1      -2.998  11.300  18.371  0.00  0.00    +0.000 A 
ATOM     16  C   UNL     1      -2.166  12.056  19.213  0.00  0.00    +0.000 A 
ATOM     17  C   UNL     1      -0.797  11.788  19.348  0.00  0.00    +0.000 A 
ATOM     18  C   UNL     1      -0.195  10.754  18.628  0.00  0.00    +0.000 A 
ATOM     19  C   UNL     1      -0.987  10.030  17.735  0.00  0.00    +0.000 A 
ATOM     20  C   UNL     1      -2.358  10.304  17.611  0.00  0.00    +0.000 A 
BRANCH  15  22
ATOM     21  C   UNL     1      -4.992  11.651  16.954  0.00  0.00    +0.000 C 
ATOM     22  N   UNL     1      -4.374  11.531  18.271  0.00  0.00    +0.000 N 
ATOM     23  C   UNL     1      -5.046  12.213  19.374  0.00  0.00    +0.000 C 
ENDBRANCH  15  22
ENDBRANCH  14  18
ENDBRANCH   1  14
TORSDOF 4
ENDMDL
MODEL 8
REMARK VINA RESULT:      -6.9      4.231      9.120
REMARK  Name = 
REMARK  6 active torsions:
REMARK  status: ('A' for Active; 'I' for Inactive)
REMARK    1  A    between atoms: C_1  and  N_2
REMARK    2  A    between atoms: N_2  and  C_3
REMARK    3  A    between atoms: N_2  and  C_4
REMARK    4  A    between atoms: C_7  and  C_8
REMARK    5  A    between atoms: C_8  and  N_9
REMARK    6  A    between atoms: C_10  and  C_12
REMARK                            x       y       z     vdW  Elec       q    Type
REMARK                         _______ _______ _______ _____ _____    ______ ____
ROOT
ATOM      1  N   UNL     1       1.298   8.811  18.053  0.00  0.00    +0.000 N 
ATOM      2  C   UNL     1       1.066  10.158  18.216  0.00  0.00    +0.000 C 
ATOM      3  O   UNL     1       1.959  10.999  18.261  0.00  0.00    +0.000 OA
ATOM      4  H   UNL     1       0.480   8.212  18.007  0.00  0.00    +0.000 HD
ENDROOT
BRANCH   2   5
ATOM      5  C   UNL     1      -0.356  10.520  18.337  0.00  0.00    +0.000 A 
ATOM      6  C   UNL     1      -1.407  10.018  17.531  0.00  0.00    +0.000 A 
ATOM      7  C   UNL     1      -2.545  10.625  17.995  0.00  0.00    +0.000 A 
ATOM      8  C   UNL     1      -3.921  10.568  17.644  0.00  0.00    +0.000 A 
ATOM      9  C   UNL     1      -4.804  11.347  18.301  0.00  0.00    +0.000 A 
ATOM     10  C   UNL     1      -4.379  12.245  19.362  0.00  0.00    +0.000 A 
ATOM     11  C   UNL     1      -3.080  12.279  19.703  0.00  0.00    +0.000 A 
ATOM     12  N   UNL     1      -2.155  11.474  19.033  0.00  0.00    +0.000 N 
ATOM     13  N   UNL     1      -0.812  11.398  19.254  0.00  0.00    +0.000 NA
ENDBRANCH   2   5
BRANCH   1  14
ATOM     14  C   UNL     1       2.624   8.258  17.922  0.00  0.00    +0.000 C 
BRANCH  14  18
ATOM     15  C   UNL     1       2.918   4.280  19.712  0.00  0.00    +0.000 A 
ATOM     16  C   UNL     1       2.373   5.373  20.405  0.00  0.00    +0.000 A 
ATOM     17  C   UNL     1       2.279   6.650  19.833  0.00  0.00    +0.000 A 
ATOM     18  C   UNL     1       2.716   6.882  18.527  0.00  0.00    +0.000 A 
ATOM     19  C   UNL     1       3.201   5.798  17.795  0.00  0.00    +0.000 A 
ATOM     20  C   UNL     1       3.294   4.525  18.380  0.00  0.00    +0.000 A 
BRANCH  15  22
ATOM     21  C   UNL     1       2.304   2.691  21.503  0.00  0.00    +0.000 C 
ATOM     22  N   UNL     1       3.059   3.017  20.296  0.00  0.00    +0.000 N 
ATOM     23  C   UNL     1       4.311   2.293  20.092  0.00  0.00    +0.000 C 
ENDBRANCH  15  22
ENDBRANCH  14  18
ENDBRANCH   1  14
TORSDOF 4
ENDMDL
MODEL 9
REMARK VINA RESULT:      -6.9      2.356      3.554
REMARK  Name = 
REMARK  6 active torsions:
REMARK  status: ('A' for Active; 'I' for Inactive)
REMARK    1  A    between atoms: C_1  and  N_2
REMARK    2  A    between atoms: N_2  and  C_3
REMARK    3  A    between atoms: N_2  and  C_4
REMARK    4  A    between atoms: C_7  and  C_8
REMARK    5  A    between atoms: C_8  and  N_9
REMARK    6  A    between atoms: C_10  and  C_12
REMARK                            x       y       z     vdW  Elec       q    Type
REMARK                         _______ _______ _______ _____ _____    ______ ____
ROOT
ATOM      1  N   UNL     1       2.268   7.013  20.141  0.00  0.00    +0.000 N 
ATOM      2  C   UNL     1       2.640   5.688  20.116  0.00  0.00    +0.000 C 
ATOM      3  O   UNL     1       2.176   4.839  20.871  0.00  0.00    +0.000 OA
ATOM      4  H   UNL     1       2.703   7.619  19.454  0.00  0.00    +0.000 HD
ENDROOT
BRANCH   2   5
ATOM      5  C   UNL     1       3.656   5.361  19.101  0.00  0.00    +0.000 A 
ATOM      6  C   UNL     1       3.391   4.952  17.771  0.00  0.00    +0.000 A 
ATOM      7  C   UNL     1       4.621   4.757  17.197  0.00  0.00    +0.000 A 
ATOM      8  C   UNL     1       5.069   4.357  15.910  0.00  0.00    +0.000 A 
ATOM      9  C   UNL     1       6.392   4.225  15.681  0.00  0.00    +0.000 A 
ATOM     10  C   UNL     1       7.370   4.487  16.724  0.00  0.00    +0.000 A 
ATOM     11  C   UNL     1       6.941   4.885  17.933  0.00  0.00    +0.000 A 
ATOM     12  N   UNL     1       5.573   5.027  18.182  0.00  0.00    +0.000 N 
ATOM     13  N   UNL     1       4.981   5.414  19.347  0.00  0.00    +0.000 NA
ENDBRANCH   2   5
BRANCH   1  14
ATOM     14  C   UNL     1       1.291   7.531  21.068  0.00  0.00    +0.000 C 
BRANCH  14  18
ATOM     15  C   UNL     1       0.005  11.576  20.017  0.00  0.00    +0.000 A 
ATOM     16  C   UNL     1      -0.225  11.024  21.288  0.00  0.00    +0.000 A 
ATOM     17  C   UNL     1       0.186   9.727  21.626  0.00  0.00    +0.000 A 
ATOM     18  C   UNL     1       0.863   8.928  20.703  0.00  0.00    +0.000 A 
ATOM     19  C   UNL     1       1.162   9.476  19.455  0.00  0.00    +0.000 A 
ATOM     20  C   UNL     1       0.742  10.775  19.126  0.00  0.00    +0.000 A 
BRANCH  15  22
ATOM     21  C   UNL     1      -1.401  13.545  20.520  0.00  0.00    +0.000 C 
ATOM     22  N   UNL     1      -0.447  12.850  19.660  0.00  0.00    +0.000 N 
ATOM     23  C   UNL     1      -0.456  13.213  18.245  0.00  0.00    +0.000 C 
ENDBRANCH  15  22
ENDBRANCH  14  18
ENDBRANCH   1  14
TORSDOF 4
ENDMDL
