MODEL 1
REMARK VINA RESULT:      -6.9      0.000      0.000
REMARK  Name = 
REMARK  7 active torsions:
REMARK  status: ('A' for Active; 'I' for Inactive)
REMARK    1  A    between atoms: C_1  and  O_2
REMARK    2  A    between atoms: O_2  and  C_3
REMARK    3  A    between atoms: C_8  and  S_9
REMARK    4  A    between atoms: S_9  and  C_10
REMARK    5  A    between atoms: C_10  and  C_11
REMARK    6  A    between atoms: C_13  and  S_14
REMARK    7  A    between atoms: S_14  and  C_15
REMARK                            x       y       z     vdW  Elec       q    Type
REMARK                         _______ _______ _______ _____ _____    ______ ____
ROOT
ATOM      1  C   UNL     1       6.007   3.173  12.235  0.00  0.00    +0.000 A 
ATOM      2  C   UNL     1       7.099   3.934  11.807  0.00  0.00    +0.000 A 
ATOM      3  C   UNL     1       7.741   4.838  12.667  0.00  0.00    +0.000 A 
ATOM      4  C   UNL     1       7.237   4.940  13.965  0.00  0.00    +0.000 A 
ATOM      5  N   UNL     1       7.606   5.694  15.049  0.00  0.00    +0.000 N 
ATOM      6  C   UNL     1       6.767   5.388  16.081  0.00  0.00    +0.000 A 
ATOM      7  N   UNL     1       5.869   4.496  15.740  0.00  0.00    +0.000 NA
ATOM      8  C   UNL     1       6.144   4.206  14.421  0.00  0.00    +0.000 A 
ATOM      9  C   UNL     1       5.507   3.319  13.538  0.00  0.00    +0.000 A 
ATOM     10  H   UNL     1       8.367   6.356  15.094  0.00  0.00    +0.000 HD
ENDROOT
BRANCH   1  12
ATOM     11  C   UNL     1       6.021   1.098  11.088  0.00  0.00    +0.000 C 
ATOM     12  O   UNL     1       5.319   2.284  11.448  0.00  0.00    +0.000 OA
ENDBRANCH   1  12
BRANCH   6  13
ATOM     13  S   UNL     1       6.991   6.148  17.614  0.00  0.00    +0.000 S 
BRANCH  13  14
ATOM     14  C   UNL     1       6.382   4.851  18.737  0.00  0.00    +0.000 C 
BRANCH  14  15
ATOM     15  C   UNL     1       4.876   4.889  18.891  0.00  0.00    +0.000 A 
ATOM     16  C   UNL     1       4.163   3.748  19.277  0.00  0.00    +0.000 A 
ATOM     17  C   UNL     1       2.774   3.809  19.387  0.00  0.00    +0.000 A 
ATOM     18  C   UNL     1       2.142   5.021  19.114  0.00  0.00    +0.000 A 
ATOM     19  C   UNL     1       2.912   6.109  18.748  0.00  0.00    +0.000 A 
ATOM     20  N   UNL     1       4.256   6.069  18.631  0.00  0.00    +0.000 NA
BRANCH  17  21
ATOM     21  S   UNL     1       1.706   2.448  19.847  0.00  0.00    +0.000 S 
ATOM     22  C   UNL     1       1.380   2.730  21.606  0.00  0.00    +0.000 C 
ENDBRANCH  17  21
ENDBRANCH  14  15
ENDBRANCH  13  14
ENDBRANCH   6  13
TORSDOF 5
ENDMDL
MODEL 2
REMARK VINA RESULT:      -6.9      1.503      2.148
REMARK  Name = 
REMARK  7 active torsions:
REMARK  status: ('A' for Active; 'I' for Inactive)
REMARK    1  A    between atoms: C_1  and  O_2
REMARK    2  A    between atoms: O_2  and  C_3
REMARK    3  A    between atoms: C_8  and  S_9
REMARK    4  A    between atoms: S_9  and  C_10
REMARK    5  A    between atoms: C_10  and  C_11
REMARK    6  A    between atoms: C_13  and  S_14
REMARK    7  A    between atoms: S_14  and  C_15
REMARK                            x       y       z     vdW  Elec       q    Type
REMARK                         _______ _______ _______ _____ _____    ______ ____
ROOT
ATOM      1  C   UNL     1       5.765   3.346  12.153  0.00  0.00    +0.000 A 
ATOM      2  C   UNL     1       6.968   3.930  11.743  0.00  0.00    +0.000 A 
ATOM      3  C   UNL     1       7.722   4.733  12.611  0.00  0.00    +0.000 A 
ATOM      4  C   UNL     1       7.216   4.920  13.899  0.00  0.00    +0.000 A 
ATOM      5  N   UNL     1       7.675   5.617  14.986  0.00  0.00    +0.000 N 
ATOM      6  C   UNL     1       6.780   5.449  16.003  0.00  0.00    +0.000 A 
ATOM      7  N   UNL     1       5.764   4.701  15.649  0.00  0.00    +0.000 NA
ATOM      8  C   UNL     1       6.016   4.362  14.336  0.00  0.00    +0.000 A 
ATOM      9  C   UNL     1       5.268   3.576  13.445  0.00  0.00    +0.000 A 
ATOM     10  H   UNL     1       8.526   6.156  15.043  0.00  0.00    +0.000 HD
ENDROOT
BRANCH   1  12
ATOM     11  C   UNL     1       3.714   3.136  10.983  0.00  0.00    +0.000 C 
ATOM     12  O   UNL     1       4.965   2.566  11.357  0.00  0.00    +0.000 OA
ENDBRANCH   1  12
BRANCH   6  13
ATOM     13  S   UNL     1       7.088   6.177  17.538  0.00  0.00    +0.000 S 
BRANCH  13  14
ATOM     14  C   UNL     1       6.849   4.757  18.651  0.00  0.00    +0.000 C 
BRANCH  14  15
ATOM     15  C   UNL     1       5.410   4.620  19.102  0.00  0.00    +0.000 A 
ATOM     16  C   UNL     1       4.579   5.742  19.207  0.00  0.00    +0.000 A 
ATOM     17  C   UNL     1       3.265   5.585  19.649  0.00  0.00    +0.000 A 
ATOM     18  C   UNL     1       2.821   4.301  19.961  0.00  0.00    +0.000 A 
ATOM     19  C   UNL     1       3.696   3.240  19.821  0.00  0.00    +0.000 A 
ATOM     20  N   UNL     1       4.971   3.371  19.402  0.00  0.00    +0.000 NA
BRANCH  17  21
ATOM     21  S   UNL     1       2.075   6.905  19.863  0.00  0.00    +0.000 S 
ATOM     22  C   UNL     1       2.334   7.958  18.412  0.00  0.00    +0.000 C 
ENDBRANCH  17  21
ENDBRANCH  14  15
ENDBRANCH  13  14
ENDBRANCH   6  13
TORSDOF 5
ENDMDL
MODEL 3
REMARK VINA RESULT:      -6.7      1.864      2.554
REMARK  Name = 
REMARK  7 active torsions:
REMARK  status: ('A' for Active; 'I' for Inactive)
REMARK    1  A    between atoms: C_1  and  O_2
REMARK    2  A    between atoms: O_2  and  C_3
REMARK    3  A    between atoms: C_8  and  S_9
REMARK    4  A    between atoms: S_9  and  C_10
REMARK    5  A    between atoms: C_10  and  C_11
REMARK    6  A    between atoms: C_13  and  S_14
REMARK    7  A    between atoms: S_14  and  C_15
REMARK                            x       y       z     vdW  Elec       q    Type
REMARK                         _______ _______ _______ _____ _____    ______ ____
ROOT
ATOM      1  C   UNL     1       6.030   3.458  12.273  0.00  0.00    +0.000 A 
ATOM      2  C   UNL     1       7.129   4.286  12.024  0.00  0.00    +0.000 A 
ATOM      3  C   UNL     1       7.719   5.042  13.048  0.00  0.00    +0.000 A 
ATOM      4  C   UNL     1       7.157   4.928  14.321  0.00  0.00    +0.000 A 
ATOM      5  N   UNL     1       7.468   5.498  15.529  0.00  0.00    +0.000 N 
ATOM      6  C   UNL     1       6.589   5.022  16.458  0.00  0.00    +0.000 A 
ATOM      7  N   UNL     1       5.720   4.191  15.937  0.00  0.00    +0.000 NA
ATOM      8  C   UNL     1       6.056   4.121  14.601  0.00  0.00    +0.000 A 
ATOM      9  C   UNL     1       5.471   3.386  13.558  0.00  0.00    +0.000 A 
ATOM     10  H   UNL     1       8.216   6.149  15.715  0.00  0.00    +0.000 HD
ENDROOT
BRANCH   1  12
ATOM     11  C   UNL     1       4.021   3.026  11.091  0.00  0.00    +0.000 C 
ATOM     12  O   UNL     1       5.389   2.704  11.323  0.00  0.00    +0.000 OA
ENDBRANCH   1  12
BRANCH   6  13
ATOM     13  S   UNL     1       6.736   5.523  18.103  0.00  0.00    +0.000 S 
BRANCH  13  14
ATOM     14  C   UNL     1       5.451   4.505  18.893  0.00  0.00    +0.000 C 
BRANCH  14  15
ATOM     15  C   UNL     1       4.185   5.290  19.166  0.00  0.00    +0.000 A 
ATOM     16  C   UNL     1       3.875   6.436  18.423  0.00  0.00    +0.000 A 
ATOM     17  C   UNL     1       2.713   7.151  18.715  0.00  0.00    +0.000 A 
ATOM     18  C   UNL     1       1.891   6.686  19.740  0.00  0.00    +0.000 A 
ATOM     19  C   UNL     1       2.256   5.541  20.422  0.00  0.00    +0.000 A 
ATOM     20  N   UNL     1       3.378   4.839  20.160  0.00  0.00    +0.000 NA
BRANCH  17  21
ATOM     21  S   UNL     1       2.174   8.643  17.885  0.00  0.00    +0.000 S 
ATOM     22  C   UNL     1       1.150   9.479  19.122  0.00  0.00    +0.000 C 
ENDBRANCH  17  21
ENDBRANCH  14  15
ENDBRANCH  13  14
ENDBRANCH   6  13
TORSDOF 5
ENDMDL
MODEL 4
REMARK VINA RESULT:      -6.7      1.061      1.516
REMARK  Name = 
REMARK  7 active torsions:
REMARK  status: ('A' for Active; 'I' for Inactive)
REMARK    1  A    between atoms: C_1  and  O_2
REMARK    2  A    between atoms: O_2  and  C_3
REMARK    3  A    between atoms: C_8  and  S_9
REMARK    4  A    between atoms: S_9  and  C_10
REMARK    5  A    between atoms: C_10  and  C_11
REMARK    6  A    between atoms: C_13  and  S_14
REMARK    7  A    between atoms: S_14  and  C_15
REMARK                            x       y       z     vdW  Elec       q    Type
REMARK                         _______ _______ _______ _____ _____    ______ ____
ROOT
ATOM      1  C   UNL     1       5.622   3.322  12.119  0.00  0.00    +0.000 A 
ATOM      2  C   UNL     1       6.875   3.823  11.751  0.00  0.00    +0.000 A 
ATOM      3  C   UNL     1       7.645   4.587  12.640  0.00  0.00    +0.000 A 
ATOM      4  C   UNL     1       7.101   4.822  13.905  0.00  0.00    +0.000 A 
ATOM      5  N   UNL     1       7.561   5.503  15.003  0.00  0.00    +0.000 N 
ATOM      6  C   UNL     1       6.618   5.405  15.985  0.00  0.00    +0.000 A 
ATOM      7  N   UNL     1       5.571   4.718  15.598  0.00  0.00    +0.000 NA
ATOM      8  C   UNL     1       5.852   4.348  14.300  0.00  0.00    +0.000 A 
ATOM      9  C   UNL     1       5.091   3.599  13.388  0.00  0.00    +0.000 A 
ATOM     10  H   UNL     1       8.442   5.987  15.088  0.00  0.00    +0.000 HD
ENDROOT
BRANCH   1  12
ATOM     11  C   UNL     1       3.596   3.218  10.891  0.00  0.00    +0.000 C 
ATOM     12  O   UNL     1       4.805   2.584  11.300  0.00  0.00    +0.000 OA
ENDBRANCH   1  12
BRANCH   6  13
ATOM     13  S   UNL     1       6.912   6.131  17.523  0.00  0.00    +0.000 S 
BRANCH  13  14
ATOM     14  C   UNL     1       5.211   6.391  18.115  0.00  0.00    +0.000 C 
BRANCH  14  15
ATOM     15  C   UNL     1       4.621   5.138  18.728  0.00  0.00    +0.000 A 
ATOM     16  C   UNL     1       3.261   5.070  19.055  0.00  0.00    +0.000 A 
ATOM     17  C   UNL     1       2.753   3.910  19.641  0.00  0.00    +0.000 A 
ATOM     18  C   UNL     1       3.626   2.847  19.870  0.00  0.00    +0.000 A 
ATOM     19  C   UNL     1       4.953   2.984  19.510  0.00  0.00    +0.000 A 
ATOM     20  N   UNL     1       5.466   4.099  18.949  0.00  0.00    +0.000 NA
BRANCH  17  21
ATOM     21  S   UNL     1       1.053   3.656  20.141  0.00  0.00    +0.000 S 
ATOM     22  C   UNL     1       1.194   2.768  21.713  0.00  0.00    +0.000 C 
ENDBRANCH  17  21
ENDBRANCH  14  15
ENDBRANCH  13  14
ENDBRANCH   6  13
TORSDOF 5
ENDMDL
MODEL 5
REMARK VINA RESULT:      -6.5      3.319      4.994
REMARK  Name = 
REMARK  7 active torsions:
REMARK  status: ('A' for Active; 'I' for Inactive)
REMARK    1  A    between atoms: C_1  and  O_2
REMARK    2  A    between atoms: O_2  and  C_3
REMARK    3  A    between atoms: C_8  and  S_9
REMARK    4  A    between atoms: S_9  and  C_10
REMARK    5  A    between atoms: C_10  and  C_11
REMARK    6  A    between atoms: C_13  and  S_14
REMARK    7  A    between atoms: S_14  and  C_15
REMARK                            x       y       z     vdW  Elec       q    Type
REMARK                         _______ _______ _______ _____ _____    ______ ____
ROOT
ATOM      1  C   UNL     1       7.204   6.276  16.808  0.00  0.00    +0.000 A 
ATOM      2  C   UNL     1       6.884   5.367  15.794  0.00  0.00    +0.000 A 
ATOM      3  C   UNL     1       6.074   4.250  16.044  0.00  0.00    +0.000 A 
ATOM      4  C   UNL     1       5.605   4.091  17.350  0.00  0.00    +0.000 A 
ATOM      5  N   UNL     1       4.806   3.146  17.942  0.00  0.00    +0.000 N 
ATOM      6  C   UNL     1       4.656   3.485  19.255  0.00  0.00    +0.000 A 
ATOM      7  N   UNL     1       5.311   4.578  19.563  0.00  0.00    +0.000 NA
ATOM      8  C   UNL     1       5.914   4.970  18.386  0.00  0.00    +0.000 A 
ATOM      9  C   UNL     1       6.740   6.073  18.116  0.00  0.00    +0.000 A 
ATOM     10  H   UNL     1       4.389   2.343  17.497  0.00  0.00    +0.000 HD
ENDROOT
BRANCH   1  12
ATOM     11  C   UNL     1       7.952   8.346  17.689  0.00  0.00    +0.000 C 
ATOM     12  O   UNL     1       8.004   7.379  16.644  0.00  0.00    +0.000 OA
ENDBRANCH   1  12
BRANCH   6  13
ATOM     13  S   UNL     1       3.666   2.509  20.278  0.00  0.00    +0.000 S 
BRANCH  13  14
ATOM     14  C   UNL     1       2.010   3.144  19.871  0.00  0.00    +0.000 C 
BRANCH  14  15
ATOM     15  C   UNL     1       2.028   4.624  19.550  0.00  0.00    +0.000 A 
ATOM     16  C   UNL     1       1.790   5.579  20.547  0.00  0.00    +0.000 A 
ATOM     17  C   UNL     1       1.790   6.933  20.214  0.00  0.00    +0.000 A 
ATOM     18  C   UNL     1       2.040   7.289  18.889  0.00  0.00    +0.000 A 
ATOM     19  C   UNL     1       2.277   6.292  17.963  0.00  0.00    +0.000 A 
ATOM     20  N   UNL     1       2.276   4.976  18.263  0.00  0.00    +0.000 NA
BRANCH  17  21
ATOM     21  S   UNL     1       1.486   8.283  21.350  0.00  0.00    +0.000 S 
ATOM     22  C   UNL     1       0.772   9.576  20.302  0.00  0.00    +0.000 C 
ENDBRANCH  17  21
ENDBRANCH  14  15
ENDBRANCH  13  14
ENDBRANCH   6  13
TORSDOF 5
ENDMDL
MODEL 6
REMARK VINA RESULT:      -6.5      4.048      8.257
REMARK  Name = 
REMARK  7 active torsions:
REMARK  status: ('A' for Active; 'I' for Inactive)
REMARK    1  A    between atoms: C_1  and  O_2
REMARK    2  A    between atoms: O_2  and  C_3
REMARK    3  A    between atoms: C_8  and  S_9
REMARK    4  A    between atoms: S_9  and  C_10
REMARK    5  A    between atoms: C_10  and  C_11
REMARK    6  A    between atoms: C_13  and  S_14
REMARK    7  A    between atoms: S_14  and  C_15
REMARK                            x       y       z     vdW  Elec       q    Type
REMARK                         _______ _______ _______ _____ _____    ______ ____
ROOT
ATOM      1  C   UNL     1       0.925  10.210  19.429  0.00  0.00    +0.000 A 
ATOM      2  C   UNL     1       0.667   9.986  20.785  0.00  0.00    +0.000 A 
ATOM      3  C   UNL     1       0.995   8.767  21.398  0.00  0.00    +0.000 A 
ATOM      4  C   UNL     1       1.588   7.795  20.591  0.00  0.00    +0.000 A 
ATOM      5  N   UNL     1       2.037   6.523  20.844  0.00  0.00    +0.000 N 
ATOM      6  C   UNL     1       2.544   6.017  19.683  0.00  0.00    +0.000 A 
ATOM      7  N   UNL     1       2.445   6.865  18.688  0.00  0.00    +0.000 NA
ATOM      8  C   UNL     1       1.848   7.981  19.234  0.00  0.00    +0.000 A 
ATOM      9  C   UNL     1       1.496   9.203  18.638  0.00  0.00    +0.000 A 
ATOM     10  H   UNL     1       2.011   6.038  21.728  0.00  0.00    +0.000 HD
ENDROOT
BRANCH   1  12
ATOM     11  C   UNL     1      -0.770  11.688  18.675  0.00  0.00    +0.000 C 
ATOM     12  O   UNL     1       0.616  11.366  18.757  0.00  0.00    +0.000 OA
ENDBRANCH   1  12
BRANCH   6  13
ATOM     13  S   UNL     1       3.228   4.432  19.672  0.00  0.00    +0.000 S 
BRANCH  13  14
ATOM     14  C   UNL     1       3.417   4.146  17.885  0.00  0.00    +0.000 C 
BRANCH  14  15
ATOM     15  C   UNL     1       4.839   4.375  17.416  0.00  0.00    +0.000 A 
ATOM     16  C   UNL     1       5.143   4.448  16.052  0.00  0.00    +0.000 A 
ATOM     17  C   UNL     1       6.467   4.635  15.652  0.00  0.00    +0.000 A 
ATOM     18  C   UNL     1       7.445   4.755  16.638  0.00  0.00    +0.000 A 
ATOM     19  C   UNL     1       7.067   4.684  17.965  0.00  0.00    +0.000 A 
ATOM     20  N   UNL     1       5.795   4.497  18.372  0.00  0.00    +0.000 NA
BRANCH  17  21
ATOM     21  S   UNL     1       7.038   4.731  13.958  0.00  0.00    +0.000 S 
ATOM     22  C   UNL     1       5.939   3.601  13.068  0.00  0.00    +0.000 C 
ENDBRANCH  17  21
ENDBRANCH  14  15
ENDBRANCH  13  14
ENDBRANCH   6  13
TORSDOF 5
ENDMDL
MODEL 7
REMARK VINA RESULT:      -6.5      1.119      1.340
REMARK  Name = 
REMARK  7 active torsions:
REMARK  status: ('A' for Active; 'I' for Inactive)
REMARK    1  A    between atoms: C_1  and  O_2
REMARK    2  A    between atoms: O_2  and  C_3
REMARK    3  A    between atoms: C_8  and  S_9
REMARK    4  A    between atoms: S_9  and  C_10
REMARK    5  A    between atoms: C_10  and  C_11
REMARK    6  A    between atoms: C_13  and  S_14
REMARK    7  A    between atoms: S_14  and  C_15
REMARK                            x       y       z     vdW  Elec       q    Type
REMARK                         _______ _______ _______ _____ _____    ______ ____
ROOT
ATOM      1  C   UNL     1       6.050   3.169  12.264  0.00  0.00    +0.000 A 
ATOM      2  C   UNL     1       7.211   3.929  12.084  0.00  0.00    +0.000 A 
ATOM      3  C   UNL     1       7.631   4.859  13.047  0.00  0.00    +0.000 A 
ATOM      4  C   UNL     1       6.836   4.989  14.187  0.00  0.00    +0.000 A 
ATOM      5  N   UNL     1       6.939   5.773  15.308  0.00  0.00    +0.000 N 
ATOM      6  C   UNL     1       5.882   5.485  16.122  0.00  0.00    +0.000 A 
ATOM      7  N   UNL     1       5.091   4.578  15.604  0.00  0.00    +0.000 NA
ATOM      8  C   UNL     1       5.668   4.257  14.393  0.00  0.00    +0.000 A 
ATOM      9  C   UNL     1       5.258   3.343  13.409  0.00  0.00    +0.000 A 
ATOM     10  H   UNL     1       7.666   6.442  15.513  0.00  0.00    +0.000 HD
ENDROOT
BRANCH   1  12
ATOM     11  C   UNL     1       6.468   1.216  10.987  0.00  0.00    +0.000 C 
ATOM     12  O   UNL     1       5.568   2.255  11.362  0.00  0.00    +0.000 OA
ENDBRANCH   1  12
BRANCH   6  13
ATOM     13  S   UNL     1       5.739   6.285  17.645  0.00  0.00    +0.000 S 
BRANCH  13  14
ATOM     14  C   UNL     1       4.032   6.910  17.550  0.00  0.00    +0.000 C 
BRANCH  14  15
ATOM     15  C   UNL     1       3.150   6.333  18.637  0.00  0.00    +0.000 A 
ATOM     16  C   UNL     1       2.904   4.957  18.709  0.00  0.00    +0.000 A 
ATOM     17  C   UNL     1       2.068   4.459  19.709  0.00  0.00    +0.000 A 
ATOM     18  C   UNL     1       1.510   5.361  20.614  0.00  0.00    +0.000 A 
ATOM     19  C   UNL     1       1.808   6.705  20.488  0.00  0.00    +0.000 A 
ATOM     20  N   UNL     1       2.609   7.206  19.525  0.00  0.00    +0.000 NA
BRANCH  17  21
ATOM     21  S   UNL     1       1.628   2.739  19.936  0.00  0.00    +0.000 S 
ATOM     22  C   UNL     1       1.712   2.506  21.730  0.00  0.00    +0.000 C 
ENDBRANCH  17  21
ENDBRANCH  14  15
ENDBRANCH  13  14
ENDBRANCH   6  13
TORSDOF 5
ENDMDL
MODEL 8
REMARK VINA RESULT:      -6.4      3.558      7.996
REMARK  Name = 
REMARK  7 active torsions:
REMARK  status: ('A' for Active; 'I' for Inactive)
REMARK    1  A    between atoms: C_1  and  O_2
REMARK    2  A    between atoms: O_2  and  C_3
REMARK    3  A    between atoms: C_8  and  S_9
REMARK    4  A    between atoms: S_9  and  C_10
REMARK    5  A    between atoms: C_10  and  C_11
REMARK    6  A    between atoms: C_13  and  S_14
REMARK    7  A    between atoms: S_14  and  C_15
REMARK                            x       y       z     vdW  Elec       q    Type
REMARK                         _______ _______ _______ _____ _____    ______ ____
ROOT
ATOM      1  C   UNL     1       1.742   8.035  20.046  0.00  0.00    +0.000 A 
ATOM      2  C   UNL     1       1.486   6.925  20.858  0.00  0.00    +0.000 A 
ATOM      3  C   UNL     1       1.999   5.657  20.544  0.00  0.00    +0.000 A 
ATOM      4  C   UNL     1       2.773   5.559  19.386  0.00  0.00    +0.000 A 
ATOM      5  N   UNL     1       3.424   4.510  18.789  0.00  0.00    +0.000 N 
ATOM      6  C   UNL     1       4.045   4.981  17.669  0.00  0.00    +0.000 A 
ATOM      7  N   UNL     1       3.834   6.262  17.488  0.00  0.00    +0.000 NA
ATOM      8  C   UNL     1       3.039   6.641  18.549  0.00  0.00    +0.000 A 
ATOM      9  C   UNL     1       2.501   7.897  18.875  0.00  0.00    +0.000 A 
ATOM     10  H   UNL     1       3.455   3.555  19.113  0.00  0.00    +0.000 HD
ENDROOT
BRANCH   1  12
ATOM     11  C   UNL     1       0.048   9.635  19.612  0.00  0.00    +0.000 C 
ATOM     12  O   UNL     1       1.262   9.298  20.278  0.00  0.00    +0.000 OA
ENDBRANCH   1  12
BRANCH   6  13
ATOM     13  S   UNL     1       4.990   3.907  16.703  0.00  0.00    +0.000 S 
BRANCH  13  14
ATOM     14  C   UNL     1       6.271   5.038  16.077  0.00  0.00    +0.000 C 
BRANCH  14  15
ATOM     15  C   UNL     1       6.604   4.777  14.623  0.00  0.00    +0.000 A 
ATOM     16  C   UNL     1       5.894   3.823  13.883  0.00  0.00    +0.000 A 
ATOM     17  C   UNL     1       6.241   3.590  12.552  0.00  0.00    +0.000 A 
ATOM     18  C   UNL     1       7.286   4.330  12.001  0.00  0.00    +0.000 A 
ATOM     19  C   UNL     1       7.933   5.262  12.790  0.00  0.00    +0.000 A 
ATOM     20  N   UNL     1       7.617   5.499  14.080  0.00  0.00    +0.000 NA
BRANCH  17  21
ATOM     21  S   UNL     1       5.459   2.399  11.467  0.00  0.00    +0.000 S 
ATOM     22  C   UNL     1       3.884   3.180  11.034  0.00  0.00    +0.000 C 
ENDBRANCH  17  21
ENDBRANCH  14  15
ENDBRANCH  13  14
ENDBRANCH   6  13
TORSDOF 5
ENDMDL
MODEL 9
REMARK VINA RESULT:      -6.4      3.115      4.969
REMARK  Name = 
REMARK  7 active torsions:
REMARK  status: ('A' for Active; 'I' for Inactive)
REMARK    1  A    between atoms: C_1  and  O_2
REMARK    2  A    between atoms: O_2  and  C_3
REMARK    3  A    between atoms: C_8  and  S_9
REMARK    4  A    between atoms: S_9  and  C_10
REMARK    5  A    between atoms: C_10  and  C_11
REMARK    6  A    between atoms: C_13  and  S_14
REMARK    7  A    between atoms: S_14  and  C_15
REMARK                            x       y       z     vdW  Elec       q    Type
REMARK                         _______ _______ _______ _____ _____    ______ ____
ROOT
ATOM      1  C   UNL     1       7.158   6.099  16.624  0.00  0.00    +0.000 A 
ATOM      2  C   UNL     1       6.840   5.382  15.466  0.00  0.00    +0.000 A 
ATOM      3  C   UNL     1       5.943   4.304  15.499  0.00  0.00    +0.000 A 
ATOM      4  C   UNL     1       5.385   3.985  16.738  0.00  0.00    +0.000 A 
ATOM      5  N   UNL     1       4.490   3.024  17.135  0.00  0.00    +0.000 N 
ATOM      6  C   UNL     1       4.282   3.171  18.476  0.00  0.00    +0.000 A 
ATOM      7  N   UNL     1       4.990   4.151  18.982  0.00  0.00    +0.000 NA
ATOM      8  C   UNL     1       5.688   4.671  17.913  0.00  0.00    +0.000 A 
ATOM      9  C   UNL     1       6.602   5.736  17.860  0.00  0.00    +0.000 A 
ATOM     10  H   UNL     1       4.048   2.332  16.550  0.00  0.00    +0.000 HD
ENDROOT
BRANCH   1  12
ATOM     11  C   UNL     1       7.754   8.154  17.645  0.00  0.00    +0.000 C 
ATOM     12  O   UNL     1       8.038   7.150  16.674  0.00  0.00    +0.000 OA
ENDBRANCH   1  12
BRANCH   6  13
ATOM     13  S   UNL     1       3.169   2.128  19.284  0.00  0.00    +0.000 S 
BRANCH  13  14
ATOM     14  C   UNL     1       1.607   3.028  19.035  0.00  0.00    +0.000 C 
BRANCH  14  15
ATOM     15  C   UNL     1       1.729   4.496  19.388  0.00  0.00    +0.000 A 
ATOM     16  C   UNL     1       2.072   5.443  18.415  0.00  0.00    +0.000 A 
ATOM     17  C   UNL     1       2.200   6.784  18.777  0.00  0.00    +0.000 A 
ATOM     18  C   UNL     1       1.970   7.135  20.106  0.00  0.00    +0.000 A 
ATOM     19  C   UNL     1       1.624   6.147  21.008  0.00  0.00    +0.000 A 
ATOM     20  N   UNL     1       1.501   4.844  20.680  0.00  0.00    +0.000 NA
BRANCH  17  21
ATOM     21  S   UNL     1       2.650   8.120  17.674  0.00  0.00    +0.000 S 
ATOM     22  C   UNL     1       1.405   9.392  18.008  0.00  0.00    +0.000 C 
ENDBRANCH  17  21
ENDBRANCH  14  15
ENDBRANCH  13  14
ENDBRANCH   6  13
TORSDOF 5
ENDMDL
