MODEL 1
REMARK VINA RESULT:      -8.1      0.000      0.000
REMARK  Name = 
REMARK  5 active torsions:
REMARK  status: ('A' for Active; 'I' for Inactive)
REMARK    1  A    between atoms: C_2  and  O_3
REMARK    2  A    between atoms: C_2  and  C_4
REMARK    3  A    between atoms: C_6  and  C_7
REMARK    4  A    between atoms: C_7  and  N_8
REMARK    5  A    between atoms: N_11  and  C_12
REMARK                            x       y       z     vdW  Elec       q    Type
REMARK                         _______ _______ _______ _____ _____    ______ ____
ROOT
ATOM      1  C   UNL     1       4.181   6.241  17.475  0.00  0.00    +0.000 A 
ATOM      2  C   UNL     1       3.482   7.121  18.214  0.00  0.00    +0.000 A 
ATOM      3  C   UNL     1       2.428   6.721  19.150  0.00  0.00    +0.000 A 
ATOM      4  C   UNL     1       2.225   5.390  19.343  0.00  0.00    +0.000 A 
ATOM      5  C   UNL     1       1.336   4.874  20.386  0.00  0.00    +0.000 A 
ATOM      6  C   UNL     1       1.197   3.553  20.607  0.00  0.00    +0.000 A 
ATOM      7  C   UNL     1       1.903   2.625  19.771  0.00  0.00    +0.000 A 
ATOM      8  C   UNL     1       2.701   3.093  18.801  0.00  0.00    +0.000 A 
ATOM      9  N   UNL     1       2.919   4.445  18.553  0.00  0.00    +0.000 N 
ATOM     10  C   UNL     1       3.831   4.806  17.565  0.00  0.00    +0.000 A 
ATOM     11  O   UNL     1       4.395   4.016  16.799  0.00  0.00    +0.000 OA
ENDROOT
BRANCH   1  13
ATOM     12  O   UNL     1       6.319   7.224  17.118  0.00  0.00    +0.000 OA
ATOM     13  C   UNL     1       5.307   6.727  16.645  0.00  0.00    +0.000 C 
BRANCH  13  14
ATOM     14  O   UNL     1       5.151   6.569  15.308  0.00  0.00    +0.000 OA
ATOM     15  H   UNL     1       5.442   5.692  14.964  0.00  0.00    +0.000 HD
ENDBRANCH  13  14
ENDBRANCH   1  13
BRANCH   3  16
ATOM     16  C   UNL     1       1.780   7.882  19.940  0.00  0.00    +0.000 C 
BRANCH  16  17
ATOM     17  N   UNL     1       1.852   9.214  19.306  0.00  0.00    +0.000 NA
ATOM     18  C   UNL     1       1.550   9.231  17.859  0.00  0.00    +0.000 C 
ATOM     19  C   UNL     1       0.056   9.146  17.436  0.00  0.00    +0.000 C 
ATOM     20  N   UNL     1      -0.801  10.084  18.190  0.00  0.00    +0.000 N 
ATOM     21  C   UNL     1      -0.548  10.133  19.643  0.00  0.00    +0.000 C 
ATOM     22  C   UNL     1       0.970  10.214  19.956  0.00  0.00    +0.000 C 
BRANCH  20  23
ATOM     23  C   UNL     1      -2.054  10.448  17.683  0.00  0.00    +0.000 A 
ATOM     24  C   UNL     1      -2.458  10.162  16.371  0.00  0.00    +0.000 A 
ATOM     25  C   UNL     1      -3.665  10.657  15.880  0.00  0.00    +0.000 A 
ATOM     26  N   UNL     1      -4.515  11.415  16.595  0.00  0.00    +0.000 NA
ATOM     27  C   UNL     1      -4.139  11.677  17.859  0.00  0.00    +0.000 A 
ATOM     28  C   UNL     1      -2.956  11.214  18.433  0.00  0.00    +0.000 A 
ENDBRANCH  20  23
ENDBRANCH  16  17
ENDBRANCH   3  16
TORSDOF 5
ENDMDL
MODEL 2
REMARK VINA RESULT:      -8.1      2.471      3.472
REMARK  Name = 
REMARK  5 active torsions:
REMARK  status: ('A' for Active; 'I' for Inactive)
REMARK    1  A    between atoms: C_2  and  O_3
REMARK    2  A    between atoms: C_2  and  C_4
REMARK    3  A    between atoms: C_6  and  C_7
REMARK    4  A    between atoms: C_7  and  N_8
REMARK    5  A    between atoms: N_11  and  C_12
REMARK                            x       y       z     vdW  Elec       q    Type
REMARK                         _______ _______ _______ _____ _____    ______ ____
ROOT
ATOM      1  C   UNL     1       4.224   5.795  17.216  0.00  0.00    +0.000 A 
ATOM      2  C   UNL     1       3.686   6.808  17.916  0.00  0.00    +0.000 A 
ATOM      3  C   UNL     1       2.673   6.614  18.957  0.00  0.00    +0.000 A 
ATOM      4  C   UNL     1       2.343   5.337  19.287  0.00  0.00    +0.000 A 
ATOM      5  C   UNL     1       1.489   5.018  20.433  0.00  0.00    +0.000 A 
ATOM      6  C   UNL     1       1.224   3.745  20.786  0.00  0.00    +0.000 A 
ATOM      7  C   UNL     1       1.756   2.674  19.993  0.00  0.00    +0.000 A 
ATOM      8  C   UNL     1       2.519   2.962  18.930  0.00  0.00    +0.000 A 
ATOM      9  N   UNL     1       2.864   4.255  18.542  0.00  0.00    +0.000 N 
ATOM     10  C   UNL     1       3.728   4.422  17.463  0.00  0.00    +0.000 A 
ATOM     11  O   UNL     1       4.139   3.510  16.737  0.00  0.00    +0.000 OA
ENDROOT
BRANCH   1  13
ATOM     12  O   UNL     1       5.223   6.863  15.339  0.00  0.00    +0.000 OA
ATOM     13  C   UNL     1       5.327   6.074  16.267  0.00  0.00    +0.000 C 
BRANCH  13  14
ATOM     14  O   UNL     1       6.479   5.402  16.504  0.00  0.00    +0.000 OA
ATOM     15  H   UNL     1       7.198   5.582  15.853  0.00  0.00    +0.000 HD
ENDBRANCH  13  14
ENDBRANCH   1  13
BRANCH   3  16
ATOM     16  C   UNL     1       2.221   7.906  19.679  0.00  0.00    +0.000 C 
BRANCH  16  17
ATOM     17  N   UNL     1       1.048   8.592  19.101  0.00  0.00    +0.000 NA
ATOM     18  C   UNL     1       0.374   9.544  20.008  0.00  0.00    +0.000 C 
ATOM     19  C   UNL     1       1.041  10.932  20.217  0.00  0.00    +0.000 C 
ATOM     20  N   UNL     1       1.437  11.569  18.944  0.00  0.00    +0.000 N 
ATOM     21  C   UNL     1       2.107  10.675  17.979  0.00  0.00    +0.000 C 
ATOM     22  C   UNL     1       1.363   9.319  17.847  0.00  0.00    +0.000 C 
BRANCH  20  23
ATOM     23  C   UNL     1       1.659  12.950  18.893  0.00  0.00    +0.000 A 
ATOM     24  C   UNL     1       0.717  13.892  19.331  0.00  0.00    +0.000 A 
ATOM     25  C   UNL     1       0.938  15.254  19.140  0.00  0.00    +0.000 A 
ATOM     26  N   UNL     1       2.034  15.764  18.550  0.00  0.00    +0.000 NA
ATOM     27  C   UNL     1       2.948  14.865  18.146  0.00  0.00    +0.000 A 
ATOM     28  C   UNL     1       2.813  13.487  18.305  0.00  0.00    +0.000 A 
ENDBRANCH  20  23
ENDBRANCH  16  17
ENDBRANCH   3  16
TORSDOF 5
ENDMDL
MODEL 3
REMARK VINA RESULT:      -8.0      2.985      4.706
REMARK  Name = 
REMARK  5 active torsions:
REMARK  status: ('A' for Active; 'I' for Inactive)
REMARK    1  A    between atoms: C_2  and  O_3
REMARK    2  A    between atoms: C_2  and  C_4
REMARK    3  A    between atoms: C_6  and  C_7
REMARK    4  A    between atoms: C_7  and  N_8
REMARK    5  A    between atoms: N_11  and  C_12
REMARK                            x       y       z     vdW  Elec       q    Type
REMARK                         _______ _______ _______ _____ _____    ______ ____
ROOT
ATOM      1  C   UNL     1       1.983   4.102  19.837  0.00  0.00    +0.000 A 
ATOM      2  C   UNL     1       1.854   5.410  20.115  0.00  0.00    +0.000 A 
ATOM      3  C   UNL     1       2.626   6.454  19.434  0.00  0.00    +0.000 A 
ATOM      4  C   UNL     1       3.434   6.074  18.408  0.00  0.00    +0.000 A 
ATOM      5  C   UNL     1       4.105   7.042  17.537  0.00  0.00    +0.000 A 
ATOM      6  C   UNL     1       4.850   6.649  16.486  0.00  0.00    +0.000 A 
ATOM      7  C   UNL     1       5.027   5.248  16.238  0.00  0.00    +0.000 A 
ATOM      8  C   UNL     1       4.434   4.359  17.046  0.00  0.00    +0.000 A 
ATOM      9  N   UNL     1       3.617   4.702  18.120  0.00  0.00    +0.000 N 
ATOM     10  C   UNL     1       2.994   3.686  18.840  0.00  0.00    +0.000 A 
ATOM     11  O   UNL     1       3.192   2.477  18.673  0.00  0.00    +0.000 OA
ENDROOT
BRANCH   1  13
ATOM     12  O   UNL     1       1.171   2.819  21.670  0.00  0.00    +0.000 OA
ATOM     13  C   UNL     1       1.077   3.129  20.491  0.00  0.00    +0.000 C 
BRANCH  13  14
ATOM     14  O   UNL     1       0.114   2.608  19.694  0.00  0.00    +0.000 OA
ATOM     15  H   UNL     1      -0.807   2.842  19.960  0.00  0.00    +0.000 HD
ENDBRANCH  13  14
ENDBRANCH   1  13
BRANCH   3  16
ATOM     16  C   UNL     1       2.292   7.901  19.865  0.00  0.00    +0.000 C 
BRANCH  16  17
ATOM     17  N   UNL     1       1.092   8.499  19.245  0.00  0.00    +0.000 NA
ATOM     18  C   UNL     1       0.386   9.491  20.083  0.00  0.00    +0.000 C 
ATOM     19  C   UNL     1       1.003  10.914  20.184  0.00  0.00    +0.000 C 
ATOM     20  N   UNL     1       1.370  11.468  18.864  0.00  0.00    +0.000 N 
ATOM     21  C   UNL     1       2.069  10.530  17.964  0.00  0.00    +0.000 C 
ATOM     22  C   UNL     1       1.375   9.141  17.938  0.00  0.00    +0.000 C 
BRANCH  20  23
ATOM     23  C   UNL     1       1.541  12.849  18.709  0.00  0.00    +0.000 A 
ATOM     24  C   UNL     1       2.741  13.424  18.265  0.00  0.00    +0.000 A 
ATOM     25  C   UNL     1       2.897  14.808  18.248  0.00  0.00    +0.000 A 
ATOM     26  N   UNL     1       1.947  15.679  18.635  0.00  0.00    +0.000 NA
ATOM     27  C   UNL     1       0.789  15.131  19.044  0.00  0.00    +0.000 A 
ATOM     28  C   UNL     1       0.544  13.760  19.083  0.00  0.00    +0.000 A 
ENDBRANCH  20  23
ENDBRANCH  16  17
ENDBRANCH   3  16
TORSDOF 5
ENDMDL
MODEL 4
REMARK VINA RESULT:      -7.9      2.996      4.708
REMARK  Name = 
REMARK  5 active torsions:
REMARK  status: ('A' for Active; 'I' for Inactive)
REMARK    1  A    between atoms: C_2  and  O_3
REMARK    2  A    between atoms: C_2  and  C_4
REMARK    3  A    between atoms: C_6  and  C_7
REMARK    4  A    between atoms: C_7  and  N_8
REMARK    5  A    between atoms: N_11  and  C_12
REMARK                            x       y       z     vdW  Elec       q    Type
REMARK                         _______ _______ _______ _____ _____    ______ ____
ROOT
ATOM      1  C   UNL     1       2.061   3.886  19.205  0.00  0.00    +0.000 A 
ATOM      2  C   UNL     1       1.957   5.173  19.578  0.00  0.00    +0.000 A 
ATOM      3  C   UNL     1       2.785   6.241  19.012  0.00  0.00    +0.000 A 
ATOM      4  C   UNL     1       3.627   5.916  17.994  0.00  0.00    +0.000 A 
ATOM      5  C   UNL     1       4.361   6.926  17.230  0.00  0.00    +0.000 A 
ATOM      6  C   UNL     1       5.140   6.592  16.183  0.00  0.00    +0.000 A 
ATOM      7  C   UNL     1       5.290   5.209  15.834  0.00  0.00    +0.000 A 
ATOM      8  C   UNL     1       4.638   4.280  16.546  0.00  0.00    +0.000 A 
ATOM      9  N   UNL     1       3.785   4.565  17.609  0.00  0.00    +0.000 N 
ATOM     10  C   UNL     1       3.103   3.517  18.221  0.00  0.00    +0.000 A 
ATOM     11  O   UNL     1       3.275   2.318  17.969  0.00  0.00    +0.000 OA
ENDROOT
BRANCH   1  13
ATOM     12  O   UNL     1       1.006   2.639  20.936  0.00  0.00    +0.000 OA
ATOM     13  C   UNL     1       1.101   2.895  19.744  0.00  0.00    +0.000 C 
BRANCH  13  14
ATOM     14  O   UNL     1       0.313   2.291  18.822  0.00  0.00    +0.000 OA
ATOM     15  H   UNL     1       0.778   2.043  17.988  0.00  0.00    +0.000 HD
ENDBRANCH  13  14
ENDBRANCH   1  13
BRANCH   3  16
ATOM     16  C   UNL     1       2.473   7.661  19.540  0.00  0.00    +0.000 C 
BRANCH  16  17
ATOM     17  N   UNL     1       1.237   8.284  19.024  0.00  0.00    +0.000 NA
ATOM     18  C   UNL     1       0.541   9.172  19.979  0.00  0.00    +0.000 C 
ATOM     19  C   UNL     1       1.129  10.595  20.195  0.00  0.00    +0.000 C 
ATOM     20  N   UNL     1       1.433  11.282  18.923  0.00  0.00    +0.000 N 
ATOM     21  C   UNL     1       2.118  10.453  17.911  0.00  0.00    +0.000 C 
ATOM     22  C   UNL     1       1.455   9.056  17.776  0.00  0.00    +0.000 C 
BRANCH  20  23
ATOM     23  C   UNL     1       1.567  12.676  18.895  0.00  0.00    +0.000 A 
ATOM     24  C   UNL     1       0.529  13.549  19.254  0.00  0.00    +0.000 A 
ATOM     25  C   UNL     1       0.676  14.925  19.088  0.00  0.00    +0.000 A 
ATOM     26  N   UNL     1       1.781  15.511  18.596  0.00  0.00    +0.000 NA
ATOM     27  C   UNL     1       2.784  14.678  18.268  0.00  0.00    +0.000 A 
ATOM     28  C   UNL     1       2.728  13.293  18.411  0.00  0.00    +0.000 A 
ENDBRANCH  20  23
ENDBRANCH  16  17
ENDBRANCH   3  16
TORSDOF 5
ENDMDL
MODEL 5
REMARK VINA RESULT:      -7.8      2.206      3.914
REMARK  Name = 
REMARK  5 active torsions:
REMARK  status: ('A' for Active; 'I' for Inactive)
REMARK    1  A    between atoms: C_2  and  O_3
REMARK    2  A    between atoms: C_2  and  C_4
REMARK    3  A    between atoms: C_6  and  C_7
REMARK    4  A    between atoms: C_7  and  N_8
REMARK    5  A    between atoms: N_11  and  C_12
REMARK                            x       y       z     vdW  Elec       q    Type
REMARK                         _______ _______ _______ _____ _____    ______ ____
ROOT
ATOM      1  C   UNL     1       2.808   3.967  19.990  0.00  0.00    +0.000 A 
ATOM      2  C   UNL     1       2.148   5.084  19.638  0.00  0.00    +0.000 A 
ATOM      3  C   UNL     1       2.692   6.077  18.708  0.00  0.00    +0.000 A 
ATOM      4  C   UNL     1       3.879   5.796  18.106  0.00  0.00    +0.000 A 
ATOM      5  C   UNL     1       4.426   6.619  17.025  0.00  0.00    +0.000 A 
ATOM      6  C   UNL     1       5.570   6.289  16.396  0.00  0.00    +0.000 A 
ATOM      7  C   UNL     1       6.296   5.128  16.823  0.00  0.00    +0.000 A 
ATOM      8  C   UNL     1       5.810   4.385  17.827  0.00  0.00    +0.000 A 
ATOM      9  N   UNL     1       4.612   4.648  18.486  0.00  0.00    +0.000 N 
ATOM     10  C   UNL     1       4.176   3.757  19.463  0.00  0.00    +0.000 A 
ATOM     11  O   UNL     1       4.824   2.791  19.881  0.00  0.00    +0.000 OA
ENDROOT
BRANCH   1  13
ATOM     12  O   UNL     1       1.075   2.429  20.533  0.00  0.00    +0.000 OA
ATOM     13  C   UNL     1       2.131   2.962  20.842  0.00  0.00    +0.000 C 
BRANCH  13  14
ATOM     14  O   UNL     1       2.771   2.656  21.996  0.00  0.00    +0.000 OA
ATOM     15  H   UNL     1       2.600   3.285  22.737  0.00  0.00    +0.000 HD
ENDBRANCH  13  14
ENDBRANCH   1  13
BRANCH   3  16
ATOM     16  C   UNL     1       1.752   7.265  18.396  0.00  0.00    +0.000 C 
BRANCH  16  17
ATOM     17  N   UNL     1       2.144   8.567  18.972  0.00  0.00    +0.000 NA
ATOM     18  C   UNL     1       1.866   9.737  18.112  0.00  0.00    +0.000 C 
ATOM     19  C   UNL     1       0.399  10.246  18.044  0.00  0.00    +0.000 C 
ATOM     20  N   UNL     1      -0.217  10.384  19.380  0.00  0.00    +0.000 N 
ATOM     21  C   UNL     1       0.028   9.257  20.302  0.00  0.00    +0.000 C 
ATOM     22  C   UNL     1       1.520   8.827  20.292  0.00  0.00    +0.000 C 
BRANCH  20  23
ATOM     23  C   UNL     1      -1.343  11.198  19.550  0.00  0.00    +0.000 A 
ATOM     24  C   UNL     1      -1.550  11.985  20.692  0.00  0.00    +0.000 A 
ATOM     25  C   UNL     1      -2.747  12.678  20.865  0.00  0.00    +0.000 A 
ATOM     26  N   UNL     1      -3.764  12.657  19.984  0.00  0.00    +0.000 NA
ATOM     27  C   UNL     1      -3.561  11.917  18.880  0.00  0.00    +0.000 A 
ATOM     28  C   UNL     1      -2.393  11.202  18.622  0.00  0.00    +0.000 A 
ENDBRANCH  20  23
ENDBRANCH  16  17
ENDBRANCH   3  16
TORSDOF 5
ENDMDL
MODEL 6
REMARK VINA RESULT:      -7.8      2.406      3.407
REMARK  Name = 
REMARK  5 active torsions:
REMARK  status: ('A' for Active; 'I' for Inactive)
REMARK    1  A    between atoms: C_2  and  O_3
REMARK    2  A    between atoms: C_2  and  C_4
REMARK    3  A    between atoms: C_6  and  C_7
REMARK    4  A    between atoms: C_7  and  N_8
REMARK    5  A    between atoms: N_11  and  C_12
REMARK                            x       y       z     vdW  Elec       q    Type
REMARK                         _______ _______ _______ _____ _____    ______ ____
ROOT
ATOM      1  C   UNL     1       4.234   6.007  17.260  0.00  0.00    +0.000 A 
ATOM      2  C   UNL     1       3.669   6.985  17.988  0.00  0.00    +0.000 A 
ATOM      3  C   UNL     1       2.640   6.737  19.002  0.00  0.00    +0.000 A 
ATOM      4  C   UNL     1       2.323   5.443  19.277  0.00  0.00    +0.000 A 
ATOM      5  C   UNL     1       1.454   5.068  20.394  0.00  0.00    +0.000 A 
ATOM      6  C   UNL     1       1.202   3.779  20.692  0.00  0.00    +0.000 A 
ATOM      7  C   UNL     1       1.764   2.747  19.869  0.00  0.00    +0.000 A 
ATOM      8  C   UNL     1       2.543   3.087  18.833  0.00  0.00    +0.000 A 
ATOM      9  N   UNL     1       2.874   4.398  18.501  0.00  0.00    +0.000 N 
ATOM     10  C   UNL     1       3.755   4.619  17.445  0.00  0.00    +0.000 A 
ATOM     11  O   UNL     1       4.193   3.742  16.693  0.00  0.00    +0.000 OA
ENDROOT
BRANCH   1  13
ATOM     12  O   UNL     1       6.277   7.070  16.659  0.00  0.00    +0.000 OA
ATOM     13  C   UNL     1       5.350   6.339  16.343  0.00  0.00    +0.000 C 
BRANCH  13  14
ATOM     14  O   UNL     1       5.285   5.761  15.120  0.00  0.00    +0.000 OA
ATOM     15  H   UNL     1       4.645   6.186  14.501  0.00  0.00    +0.000 HD
ENDBRANCH  13  14
ENDBRANCH   1  13
BRANCH   3  16
ATOM     16  C   UNL     1       2.156   7.993  19.764  0.00  0.00    +0.000 C 
BRANCH  16  17
ATOM     17  N   UNL     1       0.972   8.673  19.200  0.00  0.00    +0.000 NA
ATOM     18  C   UNL     1       0.270   9.577  20.135  0.00  0.00    +0.000 C 
ATOM     19  C   UNL     1       0.904  10.971  20.399  0.00  0.00    +0.000 C 
ATOM     20  N   UNL     1       1.296  11.662  19.153  0.00  0.00    +0.000 N 
ATOM     21  C   UNL     1       1.993  10.818  18.163  0.00  0.00    +0.000 C 
ATOM     22  C   UNL     1       1.280   9.451  17.976  0.00  0.00    +0.000 C 
BRANCH  20  23
ATOM     23  C   UNL     1       1.488  13.049  19.153  0.00  0.00    +0.000 A 
ATOM     24  C   UNL     1       2.669  13.655  19.604  0.00  0.00    +0.000 A 
ATOM     25  C   UNL     1       2.758  15.043  19.699  0.00  0.00    +0.000 A 
ATOM     26  N   UNL     1       1.762  15.886  19.374  0.00  0.00    +0.000 NA
ATOM     27  C   UNL     1       0.635  15.308  18.924  0.00  0.00    +0.000 A 
ATOM     28  C   UNL     1       0.463  13.932  18.787  0.00  0.00    +0.000 A 
ENDBRANCH  20  23
ENDBRANCH  16  17
ENDBRANCH   3  16
TORSDOF 5
ENDMDL
MODEL 7
REMARK VINA RESULT:      -7.7      1.493      1.931
REMARK  Name = 
REMARK  5 active torsions:
REMARK  status: ('A' for Active; 'I' for Inactive)
REMARK    1  A    between atoms: C_2  and  O_3
REMARK    2  A    between atoms: C_2  and  C_4
REMARK    3  A    between atoms: C_6  and  C_7
REMARK    4  A    between atoms: C_7  and  N_8
REMARK    5  A    between atoms: N_11  and  C_12
REMARK                            x       y       z     vdW  Elec       q    Type
REMARK                         _______ _______ _______ _____ _____    ______ ____
ROOT
ATOM      1  C   UNL     1       5.505   6.079  17.645  0.00  0.00    +0.000 A 
ATOM      2  C   UNL     1       4.378   6.811  17.663  0.00  0.00    +0.000 A 
ATOM      3  C   UNL     1       3.135   6.351  18.287  0.00  0.00    +0.000 A 
ATOM      4  C   UNL     1       3.164   5.169  18.959  0.00  0.00    +0.000 A 
ATOM      5  C   UNL     1       2.042   4.702  19.776  0.00  0.00    +0.000 A 
ATOM      6  C   UNL     1       2.113   3.560  20.488  0.00  0.00    +0.000 A 
ATOM      7  C   UNL     1       3.300   2.759  20.410  0.00  0.00    +0.000 A 
ATOM      8  C   UNL     1       4.321   3.172  19.647  0.00  0.00    +0.000 A 
ATOM      9  N   UNL     1       4.325   4.362  18.924  0.00  0.00    +0.000 N 
ATOM     10  C   UNL     1       5.477   4.719  18.228  0.00  0.00    +0.000 A 
ATOM     11  O   UNL     1       6.479   4.006  18.105  0.00  0.00    +0.000 OA
ENDROOT
BRANCH   1  13
ATOM     12  O   UNL     1       7.244   7.701  17.536  0.00  0.00    +0.000 OA
ATOM     13  C   UNL     1       6.747   6.674  17.097  0.00  0.00    +0.000 C 
BRANCH  13  14
ATOM     14  O   UNL     1       7.313   5.991  16.073  0.00  0.00    +0.000 OA
ATOM     15  H   UNL     1       7.131   6.369  15.180  0.00  0.00    +0.000 HD
ENDBRANCH  13  14
ENDBRANCH   1  13
BRANCH   3  16
ATOM     16  C   UNL     1       1.967   7.365  18.243  0.00  0.00    +0.000 C 
BRANCH  16  17
ATOM     17  N   UNL     1       2.231   8.680  18.860  0.00  0.00    +0.000 NA
ATOM     18  C   UNL     1       1.945   9.843  17.994  0.00  0.00    +0.000 C 
ATOM     19  C   UNL     1       0.457  10.260  17.820  0.00  0.00    +0.000 C 
ATOM     20  N   UNL     1      -0.264  10.340  19.107  0.00  0.00    +0.000 N 
ATOM     21  C   UNL     1      -0.017   9.218  20.033  0.00  0.00    +0.000 C 
ATOM     22  C   UNL     1       1.495   8.881  20.132  0.00  0.00    +0.000 C 
BRANCH  20  23
ATOM     23  C   UNL     1      -1.449  11.079  19.200  0.00  0.00    +0.000 A 
ATOM     24  C   UNL     1      -1.723  11.952  20.262  0.00  0.00    +0.000 A 
ATOM     25  C   UNL     1      -2.969  12.566  20.369  0.00  0.00    +0.000 A 
ATOM     26  N   UNL     1      -3.975  12.387  19.494  0.00  0.00    +0.000 NA
ATOM     27  C   UNL     1      -3.709  11.564  18.464  0.00  0.00    +0.000 A 
ATOM     28  C   UNL     1      -2.489  10.918  18.274  0.00  0.00    +0.000 A 
ENDBRANCH  20  23
ENDBRANCH  16  17
ENDBRANCH   3  16
TORSDOF 5
ENDMDL
MODEL 8
REMARK VINA RESULT:      -7.7      2.143      2.720
REMARK  Name = 
REMARK  5 active torsions:
REMARK  status: ('A' for Active; 'I' for Inactive)
REMARK    1  A    between atoms: C_2  and  O_3
REMARK    2  A    between atoms: C_2  and  C_4
REMARK    3  A    between atoms: C_6  and  C_7
REMARK    4  A    between atoms: C_7  and  N_8
REMARK    5  A    between atoms: N_11  and  C_12
REMARK                            x       y       z     vdW  Elec       q    Type
REMARK                         _______ _______ _______ _____ _____    ______ ____
ROOT
ATOM      1  C   UNL     1       4.359   6.295  17.141  0.00  0.00    +0.000 A 
ATOM      2  C   UNL     1       3.590   7.289  17.618  0.00  0.00    +0.000 A 
ATOM      3  C   UNL     1       2.615   7.100  18.695  0.00  0.00    +0.000 A 
ATOM      4  C   UNL     1       2.566   5.881  19.297  0.00  0.00    +0.000 A 
ATOM      5  C   UNL     1       1.770   5.631  20.501  0.00  0.00    +0.000 A 
ATOM      6  C   UNL     1       1.784   4.436  21.122  0.00  0.00    +0.000 A 
ATOM      7  C   UNL     1       2.563   3.367  20.567  0.00  0.00    +0.000 A 
ATOM      8  C   UNL     1       3.274   3.585  19.452  0.00  0.00    +0.000 A 
ATOM      9  N   UNL     1       3.336   4.809  18.791  0.00  0.00    +0.000 N 
ATOM     10  C   UNL     1       4.172   4.932  17.685  0.00  0.00    +0.000 A 
ATOM     11  O   UNL     1       4.797   4.001  17.163  0.00  0.00    +0.000 OA
ENDROOT
BRANCH   1  13
ATOM     12  O   UNL     1       5.139   6.937  14.986  0.00  0.00    +0.000 OA
ATOM     13  C   UNL     1       5.400   6.605  16.133  0.00  0.00    +0.000 C 
BRANCH  13  14
ATOM     14  O   UNL     1       6.678   6.509  16.573  0.00  0.00    +0.000 OA
ATOM     15  H   UNL     1       7.325   7.055  16.066  0.00  0.00    +0.000 HD
ENDBRANCH  13  14
ENDBRANCH   1  13
BRANCH   3  16
ATOM     16  C   UNL     1       1.867   8.382  19.133  0.00  0.00    +0.000 C 
BRANCH  16  17
ATOM     17  N   UNL     1       1.414   9.269  18.042  0.00  0.00    +0.000 NA
ATOM     18  C   UNL     1      -0.046   9.493  17.988  0.00  0.00    +0.000 C 
ATOM     19  C   UNL     1      -0.659  10.491  19.010  0.00  0.00    +0.000 C 
ATOM     20  N   UNL     1       0.092  11.761  19.081  0.00  0.00    +0.000 N 
ATOM     21  C   UNL     1       1.561  11.619  19.126  0.00  0.00    +0.000 C 
ATOM     22  C   UNL     1       2.067  10.600  18.070  0.00  0.00    +0.000 C 
BRANCH  20  23
ATOM     23  C   UNL     1      -0.519  12.906  19.609  0.00  0.00    +0.000 A 
ATOM     24  C   UNL     1      -1.733  12.868  20.309  0.00  0.00    +0.000 A 
ATOM     25  C   UNL     1      -2.358  14.049  20.703  0.00  0.00    +0.000 A 
ATOM     26  N   UNL     1      -1.868  15.279  20.460  0.00  0.00    +0.000 NA
ATOM     27  C   UNL     1      -0.695  15.317  19.804  0.00  0.00    +0.000 A 
ATOM     28  C   UNL     1       0.003  14.187  19.383  0.00  0.00    +0.000 A 
ENDBRANCH  20  23
ENDBRANCH  16  17
ENDBRANCH   3  16
TORSDOF 5
ENDMDL
MODEL 9
REMARK VINA RESULT:      -7.7      2.456      3.536
REMARK  Name = 
REMARK  5 active torsions:
REMARK  status: ('A' for Active; 'I' for Inactive)
REMARK    1  A    between atoms: C_2  and  O_3
REMARK    2  A    between atoms: C_2  and  C_4
REMARK    3  A    between atoms: C_6  and  C_7
REMARK    4  A    between atoms: C_7  and  N_8
REMARK    5  A    between atoms: N_11  and  C_12
REMARK                            x       y       z     vdW  Elec       q    Type
REMARK                         _______ _______ _______ _____ _____    ______ ____
ROOT
ATOM      1  C   UNL     1       4.178   6.297  17.418  0.00  0.00    +0.000 A 
ATOM      2  C   UNL     1       3.611   7.196  18.241  0.00  0.00    +0.000 A 
ATOM      3  C   UNL     1       2.586   6.845  19.227  0.00  0.00    +0.000 A 
ATOM      4  C   UNL     1       2.273   5.530  19.373  0.00  0.00    +0.000 A 
ATOM      5  C   UNL     1       1.407   5.043  20.448  0.00  0.00    +0.000 A 
ATOM      6  C   UNL     1       1.160   3.729  20.618  0.00  0.00    +0.000 A 
ATOM      7  C   UNL     1       1.723   2.786  19.695  0.00  0.00    +0.000 A 
ATOM      8  C   UNL     1       2.498   3.230  18.696  0.00  0.00    +0.000 A 
ATOM      9  N   UNL     1       2.826   4.568  18.495  0.00  0.00    +0.000 N 
ATOM     10  C   UNL     1       3.703   4.896  17.465  0.00  0.00    +0.000 A 
ATOM     11  O   UNL     1       4.142   4.099  16.628  0.00  0.00    +0.000 OA
ENDROOT
BRANCH   1  13
ATOM     12  O   UNL     1       6.327   7.213  16.960  0.00  0.00    +0.000 OA
ATOM     13  C   UNL     1       5.290   6.722  16.536  0.00  0.00    +0.000 C 
BRANCH  13  14
ATOM     14  O   UNL     1       5.091   6.515  15.212  0.00  0.00    +0.000 OA
ATOM     15  H   UNL     1       4.328   7.012  14.833  0.00  0.00    +0.000 HD
ENDBRANCH  13  14
ENDBRANCH   1  13
BRANCH   3  16
ATOM     16  C   UNL     1       2.099   8.018  20.111  0.00  0.00    +0.000 C 
BRANCH  16  17
ATOM     17  N   UNL     1       0.699   8.441  19.908  0.00  0.00    +0.000 NA
ATOM     18  C   UNL     1      -0.102   8.556  21.146  0.00  0.00    +0.000 C 
ATOM     19  C   UNL     1       0.117   9.816  22.029  0.00  0.00    +0.000 C 
ATOM     20  N   UNL     1       0.102  11.068  21.244  0.00  0.00    +0.000 N 
ATOM     21  C   UNL     1       0.872  11.026  19.985  0.00  0.00    +0.000 C 
ATOM     22  C   UNL     1       0.583   9.729  19.182  0.00  0.00    +0.000 C 
BRANCH  20  23
ATOM     23  C   UNL     1      -0.132  12.291  21.883  0.00  0.00    +0.000 A 
ATOM     24  C   UNL     1      -1.118  12.462  22.866  0.00  0.00    +0.000 A 
ATOM     25  C   UNL     1      -1.393  13.728  23.378  0.00  0.00    +0.000 A 
ATOM     26  N   UNL     1      -0.757  14.850  22.995  0.00  0.00    +0.000 NA
ATOM     27  C   UNL     1       0.201  14.687  22.066  0.00  0.00    +0.000 A 
ATOM     28  C   UNL     1       0.548  13.458  21.509  0.00  0.00    +0.000 A 
ENDBRANCH  20  23
ENDBRANCH  16  17
ENDBRANCH   3  16
TORSDOF 5
ENDMDL
