MODEL 1
REMARK VINA RESULT:      -8.3      0.000      0.000
REMARK  Name = 
REMARK  5 active torsions:
REMARK  status: ('A' for Active; 'I' for Inactive)
REMARK    1  A    between atoms: C_2  and  C_3
REMARK    2  A    between atoms: N_16  and  S_17
REMARK    3  A    between atoms: S_17  and  C_20
REMARK    4  A    between atoms: C_23  and  N_24
REMARK    5  A    between atoms: C_28  and  N_29
REMARK                            x       y       z     vdW  Elec       q    Type
REMARK                         _______ _______ _______ _____ _____    ______ ____
ROOT
ATOM      1  O   UNL     1       2.138   5.202  20.773  0.00  0.00    +0.000 OA
ATOM      2  C   UNL     1       2.501   6.100  20.018  0.00  0.00    +0.000 C 
ATOM      3  N   UNL     1       1.878   7.354  20.059  0.00  0.00    +0.000 N 
ATOM      4  C   UNL     1       2.088   8.452  19.106  0.00  0.00    +0.000 C 
ATOM      5  C   UNL     1       0.811   9.251  18.799  0.00  0.00    +0.000 C 
ATOM      6  N   UNL     1       0.070   9.649  20.026  0.00  0.00    +0.000 NA
ATOM      7  C   UNL     1      -0.235   8.422  20.842  0.00  0.00    +0.000 C 
ATOM      8  C   UNL     1       1.048   7.675  21.231  0.00  0.00    +0.000 C 
ENDROOT
BRANCH   2   9
ATOM      9  C   UNL     1       3.574   5.881  19.068  0.00  0.00    +0.000 A 
ATOM     10  C   UNL     1       3.492   5.899  17.683  0.00  0.00    +0.000 A 
ATOM     11  C   UNL     1       4.762   5.557  17.144  0.00  0.00    +0.000 A 
ATOM     12  C   UNL     1       5.269   5.405  15.840  0.00  0.00    +0.000 A 
ATOM     13  C   UNL     1       6.605   5.024  15.677  0.00  0.00    +0.000 A 
ATOM     14 CL   UNL     1       7.232   4.798  14.089  0.00  0.00    +0.000 Cl
ATOM     15  C   UNL     1       7.436   4.814  16.776  0.00  0.00    +0.000 A 
ATOM     16  C   UNL     1       6.952   4.963  18.078  0.00  0.00    +0.000 A 
ATOM     17  C   UNL     1       5.608   5.322  18.225  0.00  0.00    +0.000 A 
ATOM     18  N   UNL     1       4.854   5.471  19.363  0.00  0.00    +0.000 N 
ATOM     19  H   UNL     1       5.194   5.276  20.293  0.00  0.00    +0.000 HD
ENDBRANCH   2   9
BRANCH   6  20
ATOM     20  S   UNL     1       0.626  10.976  20.925  0.00  0.00    +0.000 S 
ATOM     21  O   UNL     1       1.359  10.506  22.073  0.00  0.00    +0.000 OA
ATOM     22  O   UNL     1       1.238  11.899  19.991  0.00  0.00    +0.000 OA
BRANCH  20  23
ATOM     23  C   UNL     1      -0.834  11.772  21.554  0.00  0.00    +0.000 A 
ATOM     24  C   UNL     1      -1.262  11.448  22.855  0.00  0.00    +0.000 A 
ATOM     25  C   UNL     1      -2.472  11.950  23.354  0.00  0.00    +0.000 A 
ATOM     26  C   UNL     1      -3.256  12.793  22.557  0.00  0.00    +0.000 A 
ATOM     27  C   UNL     1      -2.858  13.108  21.254  0.00  0.00    +0.000 A 
ATOM     28  C   UNL     1      -1.659  12.566  20.753  0.00  0.00    +0.000 A 
BRANCH  26  29
ATOM     29  N   UNL     1      -4.517  13.334  23.088  0.00  0.00    +0.000 N 
ATOM     30  O   UNL     1      -5.293  12.542  23.640  0.00  0.00    +0.000 OA
ATOM     31  O   UNL     1      -4.716  14.548  22.959  0.00  0.00    +0.000 OA
ENDBRANCH  26  29
BRANCH  28  32
ATOM     32  N   UNL     1      -1.360  12.832  19.358  0.00  0.00    +0.000 N 
ATOM     33  O   UNL     1      -0.803  13.901  19.093  0.00  0.00    +0.000 OA
ATOM     34  O   UNL     1      -1.787  12.009  18.538  0.00  0.00    +0.000 OA
ENDBRANCH  28  32
ENDBRANCH  20  23
ENDBRANCH   6  20
TORSDOF 5
ENDMDL
MODEL 2
REMARK VINA RESULT:      -7.8      1.622      1.956
REMARK  Name = 
REMARK  5 active torsions:
REMARK  status: ('A' for Active; 'I' for Inactive)
REMARK    1  A    between atoms: C_2  and  C_3
REMARK    2  A    between atoms: N_16  and  S_17
REMARK    3  A    between atoms: S_17  and  C_20
REMARK    4  A    between atoms: C_23  and  N_24
REMARK    5  A    between atoms: C_28  and  N_29
REMARK                            x       y       z     vdW  Elec       q    Type
REMARK                         _______ _______ _______ _____ _____    ______ ____
ROOT
ATOM      1  O   UNL     1       1.836   5.865  20.987  0.00  0.00    +0.000 OA
ATOM      2  C   UNL     1       2.243   6.606  20.096  0.00  0.00    +0.000 C 
ATOM      3  N   UNL     1       1.721   7.898  19.958  0.00  0.00    +0.000 N 
ATOM      4  C   UNL     1       1.984   8.819  18.844  0.00  0.00    +0.000 C 
ATOM      5  C   UNL     1       0.763   9.665  18.445  0.00  0.00    +0.000 C 
ATOM      6  N   UNL     1       0.097  10.303  19.612  0.00  0.00    +0.000 NA
ATOM      7  C   UNL     1      -0.275   9.242  20.613  0.00  0.00    +0.000 C 
ATOM      8  C   UNL     1       0.958   8.459  21.084  0.00  0.00    +0.000 C 
ENDROOT
BRANCH   2   9
ATOM      9  C   UNL     1       3.263   6.158  19.168  0.00  0.00    +0.000 A 
ATOM     10  C   UNL     1       3.117   5.901  17.812  0.00  0.00    +0.000 A 
ATOM     11  C   UNL     1       4.350   5.409  17.304  0.00  0.00    +0.000 A 
ATOM     12  C   UNL     1       4.791   4.979  16.038  0.00  0.00    +0.000 A 
ATOM     13  C   UNL     1       6.105   4.521  15.903  0.00  0.00    +0.000 A 
ATOM     14 CL   UNL     1       6.651   3.957  14.370  0.00  0.00    +0.000 Cl
ATOM     15  C   UNL     1       6.980   4.503  16.988  0.00  0.00    +0.000 A 
ATOM     16  C   UNL     1       6.562   4.929  18.251  0.00  0.00    +0.000 A 
ATOM     17  C   UNL     1       5.238   5.362  18.376  0.00  0.00    +0.000 A 
ATOM     18  N   UNL     1       4.542   5.767  19.489  0.00  0.00    +0.000 N 
ATOM     19  H   UNL     1       4.920   5.749  20.425  0.00  0.00    +0.000 HD
ENDBRANCH   2   9
BRANCH   6  20
ATOM     20  S   UNL     1       0.785  11.700  20.285  0.00  0.00    +0.000 S 
ATOM     21  O   UNL     1       1.382  11.377  21.556  0.00  0.00    +0.000 OA
ATOM     22  O   UNL     1       1.568  12.335  19.246  0.00  0.00    +0.000 OA
BRANCH  20  23
ATOM     23  C   UNL     1      -0.582  12.783  20.635  0.00  0.00    +0.000 A 
ATOM     24  C   UNL     1      -1.881  12.340  20.324  0.00  0.00    +0.000 A 
ATOM     25  C   UNL     1      -2.980  13.198  20.463  0.00  0.00    +0.000 A 
ATOM     26  C   UNL     1      -2.788  14.504  20.930  0.00  0.00    +0.000 A 
ATOM     27  C   UNL     1      -1.501  14.969  21.223  0.00  0.00    +0.000 A 
ATOM     28  C   UNL     1      -0.403  14.107  21.042  0.00  0.00    +0.000 A 
BRANCH  26  29
ATOM     29  N   UNL     1      -3.944  15.398  21.093  0.00  0.00    +0.000 N 
ATOM     30  O   UNL     1      -5.067  14.879  21.147  0.00  0.00    +0.000 OA
ATOM     31  O   UNL     1      -3.719  16.611  21.177  0.00  0.00    +0.000 OA
ENDBRANCH  26  29
BRANCH  28  32
ATOM     32  N   UNL     1       0.914  14.683  21.249  0.00  0.00    +0.000 N 
ATOM     33  O   UNL     1       1.422  14.546  22.365  0.00  0.00    +0.000 OA
ATOM     34  O   UNL     1       1.370  15.358  20.317  0.00  0.00    +0.000 OA
ENDBRANCH  28  32
ENDBRANCH  20  23
ENDBRANCH   6  20
TORSDOF 5
ENDMDL
MODEL 3
REMARK VINA RESULT:      -7.7      2.787      4.058
REMARK  Name = 
REMARK  5 active torsions:
REMARK  status: ('A' for Active; 'I' for Inactive)
REMARK    1  A    between atoms: C_2  and  C_3
REMARK    2  A    between atoms: N_16  and  S_17
REMARK    3  A    between atoms: S_17  and  C_20
REMARK    4  A    between atoms: C_23  and  N_24
REMARK    5  A    between atoms: C_28  and  N_29
REMARK                            x       y       z     vdW  Elec       q    Type
REMARK                         _______ _______ _______ _____ _____    ______ ____
ROOT
ATOM      1  O   UNL     1       2.075   9.440  17.526  0.00  0.00    +0.000 OA
ATOM      2  C   UNL     1       1.833   8.903  18.604  0.00  0.00    +0.000 C 
ATOM      3  N   UNL     1       1.222   9.629  19.634  0.00  0.00    +0.000 N 
ATOM      4  C   UNL     1       1.035   9.172  21.017  0.00  0.00    +0.000 C 
ATOM      5  C   UNL     1       1.201  10.288  22.062  0.00  0.00    +0.000 C 
ATOM      6  N   UNL     1       0.431  11.515  21.722  0.00  0.00    +0.000 NA
ATOM      7  C   UNL     1       0.829  11.986  20.349  0.00  0.00    +0.000 C 
ATOM      8  C   UNL     1       0.573  10.904  19.290  0.00  0.00    +0.000 C 
ENDROOT
BRANCH   2   9
ATOM      9  C   UNL     1       2.178   7.514  18.834  0.00  0.00    +0.000 A 
ATOM     10  C   UNL     1       2.524   6.562  17.887  0.00  0.00    +0.000 A 
ATOM     11  C   UNL     1       2.707   5.311  18.538  0.00  0.00    +0.000 A 
ATOM     12  C   UNL     1       3.044   4.016  18.104  0.00  0.00    +0.000 A 
ATOM     13  C   UNL     1       3.113   2.986  19.049  0.00  0.00    +0.000 A 
ATOM     14 CL   UNL     1       3.488   1.387  18.531  0.00  0.00    +0.000 Cl
ATOM     15  C   UNL     1       2.874   3.228  20.400  0.00  0.00    +0.000 A 
ATOM     16  C   UNL     1       2.541   4.508  20.851  0.00  0.00    +0.000 A 
ATOM     17  C   UNL     1       2.454   5.522  19.892  0.00  0.00    +0.000 A 
ATOM     18  N   UNL     1       2.087   6.838  20.029  0.00  0.00    +0.000 N 
ATOM     19  H   UNL     1       1.766   7.245  20.896  0.00  0.00    +0.000 HD
ENDBRANCH   2   9
BRANCH   6  20
ATOM     20  S   UNL     1      -1.237  11.545  22.025  0.00  0.00    +0.000 S 
ATOM     21  O   UNL     1      -1.954  11.469  20.777  0.00  0.00    +0.000 OA
ATOM     22  O   UNL     1      -1.498  10.589  23.081  0.00  0.00    +0.000 OA
BRANCH  20  23
ATOM     23  C   UNL     1      -1.570  13.159  22.696  0.00  0.00    +0.000 A 
ATOM     24  C   UNL     1      -0.505  14.073  22.795  0.00  0.00    +0.000 A 
ATOM     25  C   UNL     1      -0.684  15.311  23.427  0.00  0.00    +0.000 A 
ATOM     26  C   UNL     1      -1.936  15.648  23.954  0.00  0.00    +0.000 A 
ATOM     27  C   UNL     1      -3.001  14.743  23.885  0.00  0.00    +0.000 A 
ATOM     28  C   UNL     1      -2.796  13.488  23.280  0.00  0.00    +0.000 A 
BRANCH  26  29
ATOM     29  N   UNL     1      -2.128  16.954  24.603  0.00  0.00    +0.000 N 
ATOM     30  O   UNL     1      -2.481  17.902  23.888  0.00  0.00    +0.000 OA
ATOM     31  O   UNL     1      -1.935  17.019  25.822  0.00  0.00    +0.000 OA
ENDBRANCH  26  29
BRANCH  28  32
ATOM     32  N   UNL     1      -3.901  12.549  23.345  0.00  0.00    +0.000 N 
ATOM     33  O   UNL     1      -4.625  12.459  22.349  0.00  0.00    +0.000 OA
ATOM     34  O   UNL     1      -4.088  11.995  24.436  0.00  0.00    +0.000 OA
ENDBRANCH  28  32
ENDBRANCH  20  23
ENDBRANCH   6  20
TORSDOF 5
ENDMDL
MODEL 4
REMARK VINA RESULT:      -7.5      1.882      3.166
REMARK  Name = 
REMARK  5 active torsions:
REMARK  status: ('A' for Active; 'I' for Inactive)
REMARK    1  A    between atoms: C_2  and  C_3
REMARK    2  A    between atoms: N_16  and  S_17
REMARK    3  A    between atoms: S_17  and  C_20
REMARK    4  A    between atoms: C_23  and  N_24
REMARK    5  A    between atoms: C_28  and  N_29
REMARK                            x       y       z     vdW  Elec       q    Type
REMARK                         _______ _______ _______ _____ _____    ______ ____
ROOT
ATOM      1  O   UNL     1       1.508   5.193  20.977  0.00  0.00    +0.000 OA
ATOM      2  C   UNL     1       1.989   6.084  20.281  0.00  0.00    +0.000 C 
ATOM      3  N   UNL     1       1.510   7.397  20.383  0.00  0.00    +0.000 N 
ATOM      4  C   UNL     1       1.865   8.514  19.498  0.00  0.00    +0.000 C 
ATOM      5  C   UNL     1       0.694   9.470  19.214  0.00  0.00    +0.000 C 
ATOM      6  N   UNL     1      -0.027   9.881  20.449  0.00  0.00    +0.000 NA
ATOM      7  C   UNL     1      -0.488   8.654  21.187  0.00  0.00    +0.000 C 
ATOM      8  C   UNL     1       0.693   7.745  21.556  0.00  0.00    +0.000 C 
ENDROOT
BRANCH   2   9
ATOM      9  C   UNL     1       3.053   5.797  19.340  0.00  0.00    +0.000 A 
ATOM     10  C   UNL     1       2.927   5.472  17.997  0.00  0.00    +0.000 A 
ATOM     11  C   UNL     1       4.217   5.193  17.470  0.00  0.00    +0.000 A 
ATOM     12  C   UNL     1       4.702   4.806  16.206  0.00  0.00    +0.000 A 
ATOM     13  C   UNL     1       6.074   4.589  16.049  0.00  0.00    +0.000 A 
ATOM     14 CL   UNL     1       6.680   4.080  14.519  0.00  0.00    +0.000 Cl
ATOM     15  C   UNL     1       6.961   4.765  17.110  0.00  0.00    +0.000 A 
ATOM     16  C   UNL     1       6.500   5.152  18.371  0.00  0.00    +0.000 A 
ATOM     17  C   UNL     1       5.122   5.344  18.518  0.00  0.00    +0.000 A 
ATOM     18  N   UNL     1       4.388   5.653  19.637  0.00  0.00    +0.000 N 
ATOM     19  H   UNL     1       4.782   5.736  20.563  0.00  0.00    +0.000 HD
ENDBRANCH   2   9
BRANCH   6  20
ATOM     20  S   UNL     1       0.653  11.085  21.431  0.00  0.00    +0.000 S 
ATOM     21  O   UNL     1      -0.190  11.301  22.580  0.00  0.00    +0.000 OA
ATOM     22  O   UNL     1       2.054  10.759  21.600  0.00  0.00    +0.000 OA
BRANCH  20  23
ATOM     23  C   UNL     1       0.583  12.580  20.471  0.00  0.00    +0.000 A 
ATOM     24  C   UNL     1       1.747  13.366  20.375  0.00  0.00    +0.000 A 
ATOM     25  C   UNL     1       1.715  14.613  19.736  0.00  0.00    +0.000 A 
ATOM     26  C   UNL     1       0.518  15.076  19.175  0.00  0.00    +0.000 A 
ATOM     27  C   UNL     1      -0.653  14.319  19.281  0.00  0.00    +0.000 A 
ATOM     28  C   UNL     1      -0.614  13.086  19.958  0.00  0.00    +0.000 A 
BRANCH  26  29
ATOM     29  N   UNL     1       0.489  16.377  18.489  0.00  0.00    +0.000 N 
ATOM     30  O   UNL     1       1.569  16.964  18.328  0.00  0.00    +0.000 OA
ATOM     31  O   UNL     1      -0.610  16.796  18.107  0.00  0.00    +0.000 OA
ENDBRANCH  26  29
BRANCH  28  32
ATOM     32  N   UNL     1      -1.883  12.404  20.138  0.00  0.00    +0.000 N 
ATOM     33  O   UNL     1      -2.257  11.658  19.229  0.00  0.00    +0.000 OA
ATOM     34  O   UNL     1      -2.535  12.713  21.143  0.00  0.00    +0.000 OA
ENDBRANCH  28  32
ENDBRANCH  20  23
ENDBRANCH   6  20
TORSDOF 5
ENDMDL
MODEL 5
REMARK VINA RESULT:      -7.2      2.878      3.995
REMARK  Name = 
REMARK  5 active torsions:
REMARK  status: ('A' for Active; 'I' for Inactive)
REMARK    1  A    between atoms: C_2  and  C_3
REMARK    2  A    between atoms: N_16  and  S_17
REMARK    3  A    between atoms: S_17  and  C_20
REMARK    4  A    between atoms: C_23  and  N_24
REMARK    5  A    between atoms: C_28  and  N_29
REMARK                            x       y       z     vdW  Elec       q    Type
REMARK                         _______ _______ _______ _____ _____    ______ ____
ROOT
ATOM      1  O   UNL     1       2.095   9.463  17.303  0.00  0.00    +0.000 OA
ATOM      2  C   UNL     1       1.849   8.878  18.355  0.00  0.00    +0.000 C 
ATOM      3  N   UNL     1       1.265   9.566  19.426  0.00  0.00    +0.000 N 
ATOM      4  C   UNL     1       1.079   9.044  20.786  0.00  0.00    +0.000 C 
ATOM      5  C   UNL     1       1.281  10.103  21.884  0.00  0.00    +0.000 C 
ATOM      6  N   UNL     1       0.539  11.363  21.613  0.00  0.00    +0.000 NA
ATOM      7  C   UNL     1       0.935  11.893  20.262  0.00  0.00    +0.000 C 
ATOM      8  C   UNL     1       0.645  10.872  19.152  0.00  0.00    +0.000 C 
ENDROOT
BRANCH   2   9
ATOM      9  C   UNL     1       2.162   7.471  18.512  0.00  0.00    +0.000 A 
ATOM     10  C   UNL     1       3.035   6.897  19.424  0.00  0.00    +0.000 A 
ATOM     11  C   UNL     1       3.100   5.499  19.179  0.00  0.00    +0.000 A 
ATOM     12  C   UNL     1       3.808   4.430  19.760  0.00  0.00    +0.000 A 
ATOM     13  C   UNL     1       3.642   3.146  19.231  0.00  0.00    +0.000 A 
ATOM     14 CL   UNL     1       4.527   1.832  19.906  0.00  0.00    +0.000 Cl
ATOM     15  C   UNL     1       2.782   2.911  18.160  0.00  0.00    +0.000 A 
ATOM     16  C   UNL     1       2.069   3.958  17.572  0.00  0.00    +0.000 A 
ATOM     17  C   UNL     1       2.262   5.240  18.098  0.00  0.00    +0.000 A 
ATOM     18  N   UNL     1       1.756   6.449  17.686  0.00  0.00    +0.000 N 
ATOM     19  H   UNL     1       1.182   6.568  16.863  0.00  0.00    +0.000 HD
ENDBRANCH   2   9
BRANCH   6  20
ATOM     20  S   UNL     1      -1.125  11.418  21.934  0.00  0.00    +0.000 S 
ATOM     21  O   UNL     1      -1.858  11.287  20.700  0.00  0.00    +0.000 OA
ATOM     22  O   UNL     1      -1.379  10.516  23.037  0.00  0.00    +0.000 OA
BRANCH  20  23
ATOM     23  C   UNL     1      -1.442  13.064  22.530  0.00  0.00    +0.000 A 
ATOM     24  C   UNL     1      -0.365  13.967  22.600  0.00  0.00    +0.000 A 
ATOM     25  C   UNL     1      -0.531  15.233  23.176  0.00  0.00    +0.000 A 
ATOM     26  C   UNL     1      -1.784  15.610  23.675  0.00  0.00    +0.000 A 
ATOM     27  C   UNL     1      -2.860  14.718  23.635  0.00  0.00    +0.000 A 
ATOM     28  C   UNL     1      -2.668  13.436  23.087  0.00  0.00    +0.000 A 
BRANCH  26  29
ATOM     29  N   UNL     1      -1.963  16.946  24.264  0.00  0.00    +0.000 N 
ATOM     30  O   UNL     1      -1.966  17.032  25.500  0.00  0.00    +0.000 OA
ATOM     31  O   UNL     1      -2.088  17.900  23.487  0.00  0.00    +0.000 OA
ENDBRANCH  26  29
BRANCH  28  32
ATOM     32  N   UNL     1      -3.787  12.516  23.181  0.00  0.00    +0.000 N 
ATOM     33  O   UNL     1      -4.529  12.426  22.199  0.00  0.00    +0.000 OA
ATOM     34  O   UNL     1      -3.965  11.978  24.282  0.00  0.00    +0.000 OA
ENDBRANCH  28  32
ENDBRANCH  20  23
ENDBRANCH   6  20
TORSDOF 5
ENDMDL
MODEL 6
REMARK VINA RESULT:      -7.2      2.636      3.778
REMARK  Name = 
REMARK  5 active torsions:
REMARK  status: ('A' for Active; 'I' for Inactive)
REMARK    1  A    between atoms: C_2  and  C_3
REMARK    2  A    between atoms: N_16  and  S_17
REMARK    3  A    between atoms: S_17  and  C_20
REMARK    4  A    between atoms: C_23  and  N_24
REMARK    5  A    between atoms: C_28  and  N_29
REMARK                            x       y       z     vdW  Elec       q    Type
REMARK                         _______ _______ _______ _____ _____    ______ ____
ROOT
ATOM      1  O   UNL     1       1.050   6.536  21.020  0.00  0.00    +0.000 OA
ATOM      2  C   UNL     1       1.676   7.294  20.283  0.00  0.00    +0.000 C 
ATOM      3  N   UNL     1       1.343   8.653  20.219  0.00  0.00    +0.000 N 
ATOM      4  C   UNL     1       1.884   9.629  19.263  0.00  0.00    +0.000 C 
ATOM      5  C   UNL     1       0.851  10.668  18.794  0.00  0.00    +0.000 C 
ATOM      6  N   UNL     1       0.097  11.280  19.922  0.00  0.00    +0.000 NA
ATOM      7  C   UNL     1      -0.551  10.192  20.735  0.00  0.00    +0.000 C 
ATOM      8  C   UNL     1       0.491   9.206  21.284  0.00  0.00    +0.000 C 
ENDROOT
BRANCH   2   9
ATOM      9  C   UNL     1       2.764   6.799  19.462  0.00  0.00    +0.000 A 
ATOM     10  C   UNL     1       2.969   7.023  18.108  0.00  0.00    +0.000 A 
ATOM     11  C   UNL     1       4.112   6.287  17.691  0.00  0.00    +0.000 A 
ATOM     12  C   UNL     1       4.778   6.118  16.462  0.00  0.00    +0.000 A 
ATOM     13  C   UNL     1       5.892   5.273  16.412  0.00  0.00    +0.000 A 
ATOM     14 CL   UNL     1       6.697   5.026  14.910  0.00  0.00    +0.000 Cl
ATOM     15  C   UNL     1       6.356   4.620  17.552  0.00  0.00    +0.000 A 
ATOM     16  C   UNL     1       5.711   4.778  18.780  0.00  0.00    +0.000 A 
ATOM     17  C   UNL     1       4.585   5.608  18.810  0.00  0.00    +0.000 A 
ATOM     18  N   UNL     1       3.725   5.892  19.843  0.00  0.00    +0.000 N 
ATOM     19  H   UNL     1       3.781   5.464  20.756  0.00  0.00    +0.000 HD
ENDBRANCH   2   9
BRANCH   6  20
ATOM     20  S   UNL     1       0.839  12.500  20.836  0.00  0.00    +0.000 S 
ATOM     21  O   UNL     1       0.097  12.707  22.054  0.00  0.00    +0.000 OA
ATOM     22  O   UNL     1       2.255  12.200  20.882  0.00  0.00    +0.000 OA
BRANCH  20  23
ATOM     23  C   UNL     1       0.658  13.989  19.880  0.00  0.00    +0.000 A 
ATOM     24  C   UNL     1       1.813  14.571  19.326  0.00  0.00    +0.000 A 
ATOM     25  C   UNL     1       1.745  15.807  18.670  0.00  0.00    +0.000 A 
ATOM     26  C   UNL     1       0.514  16.464  18.551  0.00  0.00    +0.000 A 
ATOM     27  C   UNL     1      -0.641  15.912  19.115  0.00  0.00    +0.000 A 
ATOM     28  C   UNL     1      -0.550  14.688  19.804  0.00  0.00    +0.000 A 
BRANCH  26  29
ATOM     29  N   UNL     1       0.440  17.754  17.847  0.00  0.00    +0.000 N 
ATOM     30  O   UNL     1       1.414  18.514  17.941  0.00  0.00    +0.000 OA
ATOM     31  O   UNL     1      -0.585  17.991  17.198  0.00  0.00    +0.000 OA
ENDBRANCH  26  29
BRANCH  28  32
ATOM     32  N   UNL     1      -1.756  14.226  20.467  0.00  0.00    +0.000 N 
ATOM     33  O   UNL     1      -2.035  14.740  21.554  0.00  0.00    +0.000 OA
ATOM     34  O   UNL     1      -2.346  13.277  19.936  0.00  0.00    +0.000 OA
ENDBRANCH  28  32
ENDBRANCH  20  23
ENDBRANCH   6  20
TORSDOF 5
ENDMDL
MODEL 7
REMARK VINA RESULT:      -7.1      1.110      1.208
REMARK  Name = 
REMARK  5 active torsions:
REMARK  status: ('A' for Active; 'I' for Inactive)
REMARK    1  A    between atoms: C_2  and  C_3
REMARK    2  A    between atoms: N_16  and  S_17
REMARK    3  A    between atoms: S_17  and  C_20
REMARK    4  A    between atoms: C_23  and  N_24
REMARK    5  A    between atoms: C_28  and  N_29
REMARK                            x       y       z     vdW  Elec       q    Type
REMARK                         _______ _______ _______ _____ _____    ______ ____
ROOT
ATOM      1  O   UNL     1       1.973   5.555  20.837  0.00  0.00    +0.000 OA
ATOM      2  C   UNL     1       2.302   6.327  19.940  0.00  0.00    +0.000 C 
ATOM      3  N   UNL     1       1.783   7.628  19.902  0.00  0.00    +0.000 N 
ATOM      4  C   UNL     1       1.949   8.590  18.805  0.00  0.00    +0.000 C 
ATOM      5  C   UNL     1       0.706   9.460  18.556  0.00  0.00    +0.000 C 
ATOM      6  N   UNL     1       0.161  10.056  19.806  0.00  0.00    +0.000 NA
ATOM      7  C   UNL     1      -0.127   8.960  20.795  0.00  0.00    +0.000 C 
ATOM      8  C   UNL     1       1.137   8.149  21.117  0.00  0.00    +0.000 C 
ENDROOT
BRANCH   2   9
ATOM      9  C   UNL     1       3.224   5.909  18.903  0.00  0.00    +0.000 A 
ATOM     10  C   UNL     1       4.032   6.717  18.116  0.00  0.00    +0.000 A 
ATOM     11  C   UNL     1       4.718   5.901  17.175  0.00  0.00    +0.000 A 
ATOM     12  C   UNL     1       5.637   6.154  16.140  0.00  0.00    +0.000 A 
ATOM     13  C   UNL     1       6.101   5.079  15.374  0.00  0.00    +0.000 A 
ATOM     14 CL   UNL     1       7.198   5.374  14.080  0.00  0.00    +0.000 Cl
ATOM     15  C   UNL     1       5.683   3.775  15.631  0.00  0.00    +0.000 A 
ATOM     16  C   UNL     1       4.773   3.503  16.656  0.00  0.00    +0.000 A 
ATOM     17  C   UNL     1       4.302   4.591  17.398  0.00  0.00    +0.000 A 
ATOM     18  N   UNL     1       3.367   4.635  18.403  0.00  0.00    +0.000 N 
ATOM     19  H   UNL     1       2.835   3.834  18.712  0.00  0.00    +0.000 HD
ENDBRANCH   2   9
BRANCH   6  20
ATOM     20  S   UNL     1       0.924  11.420  20.463  0.00  0.00    +0.000 S 
ATOM     21  O   UNL     1       1.661  11.038  21.641  0.00  0.00    +0.000 OA
ATOM     22  O   UNL     1       1.587  12.107  19.374  0.00  0.00    +0.000 OA
BRANCH  20  23
ATOM     23  C   UNL     1      -0.390  12.481  21.018  0.00  0.00    +0.000 A 
ATOM     24  C   UNL     1      -0.677  12.524  22.395  0.00  0.00    +0.000 A 
ATOM     25  C   UNL     1      -1.779  13.246  22.873  0.00  0.00    +0.000 A 
ATOM     26  C   UNL     1      -2.595  13.944  21.974  0.00  0.00    +0.000 A 
ATOM     27  C   UNL     1      -2.339  13.895  20.600  0.00  0.00    +0.000 A 
ATOM     28  C   UNL     1      -1.250  13.135  20.132  0.00  0.00    +0.000 A 
BRANCH  26  29
ATOM     29  N   UNL     1      -3.742  14.716  22.478  0.00  0.00    +0.000 N 
ATOM     30  O   UNL     1      -4.830  14.131  22.570  0.00  0.00    +0.000 OA
ATOM     31  O   UNL     1      -3.542  15.896  22.787  0.00  0.00    +0.000 OA
ENDBRANCH  26  29
BRANCH  28  32
ATOM     32  N   UNL     1      -1.107  13.026  18.691  0.00  0.00    +0.000 N 
ATOM     33  O   UNL     1      -0.444  13.898  18.123  0.00  0.00    +0.000 OA
ATOM     34  O   UNL     1      -1.754  12.126  18.141  0.00  0.00    +0.000 OA
ENDBRANCH  28  32
ENDBRANCH  20  23
ENDBRANCH   6  20
TORSDOF 5
ENDMDL
MODEL 8
REMARK VINA RESULT:      -7.1      1.894      2.345
REMARK  Name = 
REMARK  5 active torsions:
REMARK  status: ('A' for Active; 'I' for Inactive)
REMARK    1  A    between atoms: C_2  and  C_3
REMARK    2  A    between atoms: N_16  and  S_17
REMARK    3  A    between atoms: S_17  and  C_20
REMARK    4  A    between atoms: C_23  and  N_24
REMARK    5  A    between atoms: C_28  and  N_29
REMARK                            x       y       z     vdW  Elec       q    Type
REMARK                         _______ _______ _______ _____ _____    ______ ____
ROOT
ATOM      1  O   UNL     1       1.834   6.367  20.911  0.00  0.00    +0.000 OA
ATOM      2  C   UNL     1       2.023   7.066  19.919  0.00  0.00    +0.000 C 
ATOM      3  N   UNL     1       1.469   8.350  19.843  0.00  0.00    +0.000 N 
ATOM      4  C   UNL     1       1.465   9.218  18.657  0.00  0.00    +0.000 C 
ATOM      5  C   UNL     1       0.177  10.043  18.503  0.00  0.00    +0.000 C 
ATOM      6  N   UNL     1      -0.218  10.735  19.760  0.00  0.00    +0.000 NA
ATOM      7  C   UNL     1      -0.346   9.722  20.866  0.00  0.00    +0.000 C 
ATOM      8  C   UNL     1       0.971   8.962  21.084  0.00  0.00    +0.000 C 
ENDROOT
BRANCH   2   9
ATOM      9  C   UNL     1       2.814   6.576  18.807  0.00  0.00    +0.000 A 
ATOM     10  C   UNL     1       2.977   5.259  18.402  0.00  0.00    +0.000 A 
ATOM     11  C   UNL     1       3.898   5.224  17.320  0.00  0.00    +0.000 A 
ATOM     12  C   UNL     1       4.447   4.197  16.529  0.00  0.00    +0.000 A 
ATOM     13  C   UNL     1       5.372   4.535  15.535  0.00  0.00    +0.000 A 
ATOM     14 CL   UNL     1       6.082   3.288  14.582  0.00  0.00    +0.000 Cl
ATOM     15  C   UNL     1       5.740   5.860  15.309  0.00  0.00    +0.000 A 
ATOM     16  C   UNL     1       5.203   6.893  16.082  0.00  0.00    +0.000 A 
ATOM     17  C   UNL     1       4.297   6.537  17.086  0.00  0.00    +0.000 A 
ATOM     18  N   UNL     1       3.672   7.318  18.028  0.00  0.00    +0.000 N 
ATOM     19  H   UNL     1       3.846   8.306  18.145  0.00  0.00    +0.000 HD
ENDBRANCH   2   9
BRANCH   6  20
ATOM     20  S   UNL     1       0.587  12.162  20.198  0.00  0.00    +0.000 S 
ATOM     21  O   UNL     1       1.516  11.882  21.263  0.00  0.00    +0.000 OA
ATOM     22  O   UNL     1       1.040  12.790  18.975  0.00  0.00    +0.000 OA
BRANCH  20  23
ATOM     23  C   UNL     1      -0.663  13.221  20.890  0.00  0.00    +0.000 A 
ATOM     24  C   UNL     1      -2.011  12.840  20.754  0.00  0.00    +0.000 A 
ATOM     25  C   UNL     1      -3.040  13.695  21.169  0.00  0.00    +0.000 A 
ATOM     26  C   UNL     1      -2.726  14.935  21.739  0.00  0.00    +0.000 A 
ATOM     27  C   UNL     1      -1.393  15.341  21.861  0.00  0.00    +0.000 A 
ATOM     28  C   UNL     1      -0.372  14.487  21.405  0.00  0.00    +0.000 A 
BRANCH  26  29
ATOM     29  N   UNL     1      -3.806  15.825  22.191  0.00  0.00    +0.000 N 
ATOM     30  O   UNL     1      -4.817  15.908  21.479  0.00  0.00    +0.000 OA
ATOM     31  O   UNL     1      -3.641  16.425  23.260  0.00  0.00    +0.000 OA
ENDBRANCH  26  29
BRANCH  28  32
ATOM     32  N   UNL     1       0.981  15.012  21.450  0.00  0.00    +0.000 N 
ATOM     33  O   UNL     1       1.614  14.853  22.497  0.00  0.00    +0.000 OA
ATOM     34  O   UNL     1       1.347  15.671  20.468  0.00  0.00    +0.000 OA
ENDBRANCH  28  32
ENDBRANCH  20  23
ENDBRANCH   6  20
TORSDOF 5
ENDMDL
MODEL 9
REMARK VINA RESULT:      -7.1      2.742      4.114
REMARK  Name = 
REMARK  5 active torsions:
REMARK  status: ('A' for Active; 'I' for Inactive)
REMARK    1  A    between atoms: C_2  and  C_3
REMARK    2  A    between atoms: N_16  and  S_17
REMARK    3  A    between atoms: S_17  and  C_20
REMARK    4  A    between atoms: C_23  and  N_24
REMARK    5  A    between atoms: C_28  and  N_29
REMARK                            x       y       z     vdW  Elec       q    Type
REMARK                         _______ _______ _______ _____ _____    ______ ____
ROOT
ATOM      1  O   UNL     1       1.930  10.045  17.397  0.00  0.00    +0.000 OA
ATOM      2  C   UNL     1       1.751   9.439  18.451  0.00  0.00    +0.000 C 
ATOM      3  N   UNL     1       1.133  10.075  19.535  0.00  0.00    +0.000 N 
ATOM      4  C   UNL     1       1.015   9.536  20.896  0.00  0.00    +0.000 C 
ATOM      5  C   UNL     1       1.151  10.604  21.995  0.00  0.00    +0.000 C 
ATOM      6  N   UNL     1       0.304  11.801  21.742  0.00  0.00    +0.000 NA
ATOM      7  C   UNL     1       0.631  12.365  20.386  0.00  0.00    +0.000 C 
ATOM      8  C   UNL     1       0.404  11.327  19.278  0.00  0.00    +0.000 C 
ENDROOT
BRANCH   2   9
ATOM      9  C   UNL     1       2.180   8.062  18.596  0.00  0.00    +0.000 A 
ATOM     10  C   UNL     1       2.077   7.260  19.723  0.00  0.00    +0.000 A 
ATOM     11  C   UNL     1       2.692   6.007  19.453  0.00  0.00    +0.000 A 
ATOM     12  C   UNL     1       2.901   4.832  20.199  0.00  0.00    +0.000 A 
ATOM     13  C   UNL     1       3.587   3.770  19.602  0.00  0.00    +0.000 A 
ATOM     14 CL   UNL     1       3.884   2.338  20.512  0.00  0.00    +0.000 Cl
ATOM     15  C   UNL     1       4.046   3.851  18.289  0.00  0.00    +0.000 A 
ATOM     16  C   UNL     1       3.846   5.008  17.532  0.00  0.00    +0.000 A 
ATOM     17  C   UNL     1       3.177   6.070  18.149  0.00  0.00    +0.000 A 
ATOM     18  N   UNL     1       2.903   7.332  17.681  0.00  0.00    +0.000 N 
ATOM     19  H   UNL     1       3.219   7.682  16.788  0.00  0.00    +0.000 HD
ENDBRANCH   2   9
BRANCH   6  20
ATOM     20  S   UNL     1      -1.353  11.719  22.094  0.00  0.00    +0.000 S 
ATOM     21  O   UNL     1      -2.105  11.710  20.865  0.00  0.00    +0.000 OA
ATOM     22  O   UNL     1      -1.533  10.667  23.072  0.00  0.00    +0.000 OA
BRANCH  20  23
ATOM     23  C   UNL     1      -1.744  13.252  22.907  0.00  0.00    +0.000 A 
ATOM     24  C   UNL     1      -0.705  14.177  23.123  0.00  0.00    +0.000 A 
ATOM     25  C   UNL     1      -0.930  15.343  23.867  0.00  0.00    +0.000 A 
ATOM     26  C   UNL     1      -2.204  15.599  24.389  0.00  0.00    +0.000 A 
ATOM     27  C   UNL     1      -3.243  14.681  24.204  0.00  0.00    +0.000 A 
ATOM     28  C   UNL     1      -2.992  13.496  23.487  0.00  0.00    +0.000 A 
BRANCH  26  29
ATOM     29  N   UNL     1      -2.444  16.831  25.155  0.00  0.00    +0.000 N 
ATOM     30  O   UNL     1      -3.595  17.292  25.152  0.00  0.00    +0.000 OA
ATOM     31  O   UNL     1      -1.485  17.323  25.761  0.00  0.00    +0.000 OA
ENDBRANCH  26  29
BRANCH  28  32
ATOM     32  N   UNL     1      -4.074  12.530  23.431  0.00  0.00    +0.000 N 
ATOM     33  O   UNL     1      -4.222  11.790  24.407  0.00  0.00    +0.000 OA
ATOM     34  O   UNL     1      -4.691  12.458  22.360  0.00  0.00    +0.000 OA
ENDBRANCH  28  32
ENDBRANCH  20  23
ENDBRANCH   6  20
TORSDOF 5
ENDMDL
