MODEL 1
REMARK VINA RESULT:      -6.8      0.000      0.000
REMARK  Name = 
REMARK  1 active torsions:
REMARK  status: ('A' for Active; 'I' for Inactive)
REMARK    1  A    between atoms: C_17  and  O_18
REMARK                            x       y       z     vdW  Elec       q    Type
REMARK                         _______ _______ _______ _____ _____    ______ ____
ROOT
ATOM      1  O   UNL     1      11.372  16.245  16.508  0.00  0.00    +0.000 OA
ATOM      2  C   UNL     1      11.004  15.442  17.373  0.00  0.00    +0.000 C 
ATOM      3  C   UNL     1      10.546  14.039  17.009  0.00  0.00    +0.000 C 
ATOM      4  C   UNL     1      11.587  12.943  17.321  0.00  0.00    +0.000 C 
ATOM      5  C   UNL     1      11.144  12.162  18.534  0.00  0.00    +0.000 A 
ATOM      6  C   UNL     1      10.272  11.071  18.401  0.00  0.00    +0.000 A 
ATOM      7  C   UNL     1       9.485  10.667  19.483  0.00  0.00    +0.000 A 
ATOM      8  C   UNL     1       9.589  11.343  20.695  0.00  0.00    +0.000 A 
ATOM      9  C   UNL     1      10.641  12.253  20.888  0.00  0.00    +0.000 A 
ATOM     10  C   UNL     1      11.405  12.676  19.804  0.00  0.00    +0.000 A 
ATOM     11  O   UNL     1       8.561  11.156  21.615  0.00  0.00    +0.000 OA
ATOM     12  C   UNL     1       8.247  12.281  22.369  0.00  0.00    +0.000 A 
ATOM     13  C   UNL     1       8.065  13.515  21.744  0.00  0.00    +0.000 A 
ATOM     14  C   UNL     1       8.390  14.693  22.423  0.00  0.00    +0.000 A 
ATOM     15  C   UNL     1       8.500  14.631  23.820  0.00  0.00    +0.000 A 
ATOM     16  C   UNL     1       8.412  13.393  24.489  0.00  0.00    +0.000 A 
ATOM     17  C   UNL     1       8.343  12.212  23.754  0.00  0.00    +0.000 A 
ATOM     18  C   UNL     1       8.822  15.938  21.635  0.00  0.00    +0.000 C 
ATOM     19  C   UNL     1       9.080  15.637  20.125  0.00  0.00    +0.000 C 
ATOM     20  C   UNL     1      10.041  16.549  19.368  0.00  0.00    +0.000 C 
ATOM     21  N   UNL     1      11.126  15.804  18.695  0.00  0.00    +0.000 N 
ATOM     22  H   UNL     1      11.915  16.437  18.700  0.00  0.00    +0.000 HD
ENDROOT
BRANCH  17  23
ATOM     23  O   UNL     1       8.433  10.986  24.343  0.00  0.00    +0.000 OA
ATOM     24  H   UNL     1       9.056  10.439  23.836  0.00  0.00    +0.000 HD
ENDBRANCH  17  23
TORSDOF 1
ENDMDL
MODEL 2
REMARK VINA RESULT:      -6.5     11.547     12.768
REMARK  Name = 
REMARK  1 active torsions:
REMARK  status: ('A' for Active; 'I' for Inactive)
REMARK    1  A    between atoms: C_17  and  O_18
REMARK                            x       y       z     vdW  Elec       q    Type
REMARK                         _______ _______ _______ _____ _____    ______ ____
ROOT
ATOM      1  O   UNL     1      -4.155  10.230  15.724  0.00  0.00    +0.000 OA
ATOM      2  C   UNL     1      -3.660  10.604  16.792  0.00  0.00    +0.000 C 
ATOM      3  C   UNL     1      -2.718   9.713  17.585  0.00  0.00    +0.000 C 
ATOM      4  C   UNL     1      -1.233  10.117  17.472  0.00  0.00    +0.000 C 
ATOM      5  C   UNL     1      -0.792  10.768  18.761  0.00  0.00    +0.000 A 
ATOM      6  C   UNL     1      -0.331   9.988  19.833  0.00  0.00    +0.000 A 
ATOM      7  C   UNL     1      -0.394  10.485  21.139  0.00  0.00    +0.000 A 
ATOM      8  C   UNL     1      -0.897  11.763  21.360  0.00  0.00    +0.000 A 
ATOM      9  C   UNL     1      -1.107  12.620  20.268  0.00  0.00    +0.000 A 
ATOM     10  C   UNL     1      -1.073  12.118  18.971  0.00  0.00    +0.000 A 
ATOM     11  O   UNL     1      -1.273  12.078  22.664  0.00  0.00    +0.000 OA
ATOM     12  C   UNL     1      -2.384  12.908  22.760  0.00  0.00    +0.000 A 
ATOM     13  C   UNL     1      -3.533  12.630  22.022  0.00  0.00    +0.000 A 
ATOM     14  C   UNL     1      -4.351  13.677  21.587  0.00  0.00    +0.000 A 
ATOM     15  C   UNL     1      -4.223  14.915  22.232  0.00  0.00    +0.000 A 
ATOM     16  C   UNL     1      -3.213  15.118  23.194  0.00  0.00    +0.000 A 
ATOM     17  C   UNL     1      -2.258  14.128  23.414  0.00  0.00    +0.000 A 
ATOM     18  C   UNL     1      -5.186  13.518  20.307  0.00  0.00    +0.000 C 
ATOM     19  C   UNL     1      -4.812  12.236  19.499  0.00  0.00    +0.000 C 
ATOM     20  C   UNL     1      -5.084  12.233  17.998  0.00  0.00    +0.000 C 
ATOM     21  N   UNL     1      -3.885  11.899  17.199  0.00  0.00    +0.000 N 
ATOM     22  H   UNL     1      -4.003  12.408  16.333  0.00  0.00    +0.000 HD
ENDROOT
BRANCH  17  23
ATOM     23  O   UNL     1      -1.163  14.340  24.200  0.00  0.00    +0.000 OA
ATOM     24  H   UNL     1      -1.297  13.892  25.052  0.00  0.00    +0.000 HD
ENDBRANCH  17  23
TORSDOF 1
ENDMDL
MODEL 3
REMARK VINA RESULT:      -6.5     12.484     13.793
REMARK  Name = 
REMARK  1 active torsions:
REMARK  status: ('A' for Active; 'I' for Inactive)
REMARK    1  A    between atoms: C_17  and  O_18
REMARK                            x       y       z     vdW  Elec       q    Type
REMARK                         _______ _______ _______ _____ _____    ______ ____
ROOT
ATOM      1  O   UNL     1      -2.292  10.270  15.988  0.00  0.00    +0.000 OA
ATOM      2  C   UNL     1      -2.480  10.755  17.109  0.00  0.00    +0.000 C 
ATOM      3  C   UNL     1      -1.741  10.236  18.332  0.00  0.00    +0.000 C 
ATOM      4  C   UNL     1      -0.598  11.156  18.807  0.00  0.00    +0.000 C 
ATOM      5  C   UNL     1      -1.021  11.871  20.068  0.00  0.00    +0.000 A 
ATOM      6  C   UNL     1      -0.843  11.269  21.323  0.00  0.00    +0.000 A 
ATOM      7  C   UNL     1      -1.640  11.657  22.405  0.00  0.00    +0.000 A 
ATOM      8  C   UNL     1      -2.593  12.655  22.230  0.00  0.00    +0.000 A 
ATOM      9  C   UNL     1      -2.581  13.420  21.053  0.00  0.00    +0.000 A 
ATOM     10  C   UNL     1      -1.810  13.017  19.966  0.00  0.00    +0.000 A 
ATOM     11  O   UNL     1      -3.587  12.760  23.200  0.00  0.00    +0.000 OA
ATOM     12  C   UNL     1      -4.836  13.125  22.711  0.00  0.00    +0.000 A 
ATOM     13  C   UNL     1      -5.370  12.478  21.598  0.00  0.00    +0.000 A 
ATOM     14  C   UNL     1      -6.216  13.173  20.729  0.00  0.00    +0.000 A 
ATOM     15  C   UNL     1      -6.818  14.346  21.205  0.00  0.00    +0.000 A 
ATOM     16  C   UNL     1      -6.472  14.864  22.470  0.00  0.00    +0.000 A 
ATOM     17  C   UNL     1      -5.437  14.280  23.197  0.00  0.00    +0.000 A 
ATOM     18  C   UNL     1      -6.291  12.772  19.248  0.00  0.00    +0.000 C 
ATOM     19  C   UNL     1      -5.186  11.747  18.843  0.00  0.00    +0.000 C 
ATOM     20  C   UNL     1      -4.751  11.706  17.381  0.00  0.00    +0.000 C 
ATOM     21  N   UNL     1      -3.290  11.863  17.215  0.00  0.00    +0.000 N 
ATOM     22  H   UNL     1      -3.181  12.328  16.323  0.00  0.00    +0.000 HD
ENDROOT
BRANCH  17  23
ATOM     23  O   UNL     1      -4.947  14.843  24.338  0.00  0.00    +0.000 OA
ATOM     24  H   UNL     1      -5.691  15.157  24.879  0.00  0.00    +0.000 HD
ENDBRANCH  17  23
TORSDOF 1
ENDMDL
MODEL 4
REMARK VINA RESULT:      -6.5      2.959      5.920
REMARK  Name = 
REMARK  1 active torsions:
REMARK  status: ('A' for Active; 'I' for Inactive)
REMARK    1  A    between atoms: C_17  and  O_18
REMARK                            x       y       z     vdW  Elec       q    Type
REMARK                         _______ _______ _______ _____ _____    ______ ____
ROOT
ATOM      1  O   UNL     1       4.698  14.535  23.756  0.00  0.00    +0.000 OA
ATOM      2  C   UNL     1       5.412  14.357  22.763  0.00  0.00    +0.000 C 
ATOM      3  C   UNL     1       4.825  14.308  21.362  0.00  0.00    +0.000 C 
ATOM      4  C   UNL     1       5.069  15.590  20.538  0.00  0.00    +0.000 C 
ATOM      5  C   UNL     1       6.125  15.319  19.493  0.00  0.00    +0.000 A 
ATOM      6  C   UNL     1       5.773  14.777  18.247  0.00  0.00    +0.000 A 
ATOM      7  C   UNL     1       6.722  14.081  17.493  0.00  0.00    +0.000 A 
ATOM      8  C   UNL     1       8.019  13.948  17.980  0.00  0.00    +0.000 A 
ATOM      9  C   UNL     1       8.419  14.709  19.090  0.00  0.00    +0.000 A 
ATOM     10  C   UNL     1       7.470  15.377  19.856  0.00  0.00    +0.000 A 
ATOM     11  O   UNL     1       8.817  12.968  17.396  0.00  0.00    +0.000 OA
ATOM     12  C   UNL     1       9.688  12.332  18.273  0.00  0.00    +0.000 A 
ATOM     13  C   UNL     1       9.224  11.854  19.498  0.00  0.00    +0.000 A 
ATOM     14  C   UNL     1      10.082  11.822  20.602  0.00  0.00    +0.000 A 
ATOM     15  C   UNL     1      11.461  11.884  20.358  0.00  0.00    +0.000 A 
ATOM     16  C   UNL     1      11.946  12.102  19.052  0.00  0.00    +0.000 A 
ATOM     17  C   UNL     1      11.054  12.382  18.020  0.00  0.00    +0.000 A 
ATOM     18  C   UNL     1       9.508  11.940  22.022  0.00  0.00    +0.000 C 
ATOM     19  C   UNL     1       7.998  12.334  22.032  0.00  0.00    +0.000 C 
ATOM     20  C   UNL     1       7.453  13.048  23.265  0.00  0.00    +0.000 C 
ATOM     21  N   UNL     1       6.777  14.321  22.938  0.00  0.00    +0.000 N 
ATOM     22  H   UNL     1       6.933  14.911  23.745  0.00  0.00    +0.000 HD
ENDROOT
BRANCH  17  23
ATOM     23  O   UNL     1      11.477  12.772  16.784  0.00  0.00    +0.000 OA
ATOM     24  H   UNL     1      11.129  13.660  16.598  0.00  0.00    +0.000 HD
ENDBRANCH  17  23
TORSDOF 1
ENDMDL
MODEL 5
REMARK VINA RESULT:      -6.4     11.419     13.549
REMARK  Name = 
REMARK  1 active torsions:
REMARK  status: ('A' for Active; 'I' for Inactive)
REMARK    1  A    between atoms: C_17  and  O_18
REMARK                            x       y       z     vdW  Elec       q    Type
REMARK                         _______ _______ _______ _____ _____    ______ ____
ROOT
ATOM      1  O   UNL     1      -6.840  13.781  23.402  0.00  0.00    +0.000 OA
ATOM      2  C   UNL     1      -5.719  13.518  22.953  0.00  0.00    +0.000 C 
ATOM      3  C   UNL     1      -4.504  14.359  23.308  0.00  0.00    +0.000 C 
ATOM      4  C   UNL     1      -3.565  13.695  24.337  0.00  0.00    +0.000 C 
ATOM      5  C   UNL     1      -2.318  13.209  23.637  0.00  0.00    +0.000 A 
ATOM      6  C   UNL     1      -1.229  14.072  23.439  0.00  0.00    +0.000 A 
ATOM      7  C   UNL     1      -0.317  13.824  22.409  0.00  0.00    +0.000 A 
ATOM      8  C   UNL     1      -0.489  12.707  21.597  0.00  0.00    +0.000 A 
ATOM      9  C   UNL     1      -1.421  11.724  21.967  0.00  0.00    +0.000 A 
ATOM     10  C   UNL     1      -2.347  11.984  22.973  0.00  0.00    +0.000 A 
ATOM     11  O   UNL     1       0.204  12.688  20.390  0.00  0.00    +0.000 OA
ATOM     12  C   UNL     1      -0.480  12.088  19.339  0.00  0.00    +0.000 A 
ATOM     13  C   UNL     1      -1.808  12.427  19.083  0.00  0.00    +0.000 A 
ATOM     14  C   UNL     1      -2.676  11.474  18.540  0.00  0.00    +0.000 A 
ATOM     15  C   UNL     1      -2.107  10.362  17.904  0.00  0.00    +0.000 A 
ATOM     16  C   UNL     1      -0.712  10.159  17.932  0.00  0.00    +0.000 A 
ATOM     17  C   UNL     1       0.094  10.995  18.700  0.00  0.00    +0.000 A 
ATOM     18  C   UNL     1      -4.181  11.552  18.837  0.00  0.00    +0.000 C 
ATOM     19  C   UNL     1      -4.524  12.594  19.947  0.00  0.00    +0.000 C 
ATOM     20  C   UNL     1      -5.804  12.385  20.752  0.00  0.00    +0.000 C 
ATOM     21  N   UNL     1      -5.566  12.369  22.211  0.00  0.00    +0.000 N 
ATOM     22  H   UNL     1      -6.273  11.746  22.580  0.00  0.00    +0.000 HD
ENDROOT
BRANCH  17  23
ATOM     23  O   UNL     1       1.417  10.738  18.903  0.00  0.00    +0.000 OA
ATOM     24  H   UNL     1       1.934  11.508  18.612  0.00  0.00    +0.000 HD
ENDBRANCH  17  23
TORSDOF 1
ENDMDL
MODEL 6
REMARK VINA RESULT:      -6.4     12.296     13.923
REMARK  Name = 
REMARK  1 active torsions:
REMARK  status: ('A' for Active; 'I' for Inactive)
REMARK    1  A    between atoms: C_17  and  O_18
REMARK                            x       y       z     vdW  Elec       q    Type
REMARK                         _______ _______ _______ _____ _____    ______ ____
ROOT
ATOM      1  O   UNL     1       1.111   9.417  18.796  0.00  0.00    +0.000 OA
ATOM      2  C   UNL     1       0.108  10.052  19.138  0.00  0.00    +0.000 C 
ATOM      3  C   UNL     1      -0.319  10.138  20.594  0.00  0.00    +0.000 C 
ATOM      4  C   UNL     1       0.003  11.492  21.260  0.00  0.00    +0.000 C 
ATOM      5  C   UNL     1      -1.272  12.283  21.428  0.00  0.00    +0.000 A 
ATOM      6  C   UNL     1      -2.081  12.100  22.561  0.00  0.00    +0.000 A 
ATOM      7  C   UNL     1      -3.441  12.420  22.509  0.00  0.00    +0.000 A 
ATOM      8  C   UNL     1      -3.978  12.937  21.335  0.00  0.00    +0.000 A 
ATOM      9  C   UNL     1      -3.116  13.354  20.308  0.00  0.00    +0.000 A 
ATOM     10  C   UNL     1      -1.768  13.010  20.346  0.00  0.00    +0.000 A 
ATOM     11  O   UNL     1      -5.364  12.903  21.203  0.00  0.00    +0.000 OA
ATOM     12  C   UNL     1      -5.817  12.669  19.910  0.00  0.00    +0.000 A 
ATOM     13  C   UNL     1      -5.275  11.630  19.155  0.00  0.00    +0.000 A 
ATOM     14  C   UNL     1      -5.197  11.748  17.764  0.00  0.00    +0.000 A 
ATOM     15  C   UNL     1      -6.015  12.704  17.144  0.00  0.00    +0.000 A 
ATOM     16  C   UNL     1      -6.786  13.594  17.919  0.00  0.00    +0.000 A 
ATOM     17  C   UNL     1      -6.641  13.611  19.304  0.00  0.00    +0.000 A 
ATOM     18  C   UNL     1      -4.093  11.009  16.992  0.00  0.00    +0.000 C 
ATOM     19  C   UNL     1      -3.014  10.385  17.932  0.00  0.00    +0.000 C 
ATOM     20  C   UNL     1      -1.617  10.159  17.363  0.00  0.00    +0.000 C 
ATOM     21  N   UNL     1      -0.557  10.786  18.182  0.00  0.00    +0.000 N 
ATOM     22  H   UNL     1       0.167  11.035  17.521  0.00  0.00    +0.000 HD
ENDROOT
BRANCH  17  23
ATOM     23  O   UNL     1      -7.227  14.565  20.082  0.00  0.00    +0.000 OA
ATOM     24  H   UNL     1      -7.491  15.311  19.518  0.00  0.00    +0.000 HD
ENDBRANCH  17  23
TORSDOF 1
ENDMDL
MODEL 7
REMARK VINA RESULT:      -6.3      1.689      6.524
REMARK  Name = 
REMARK  1 active torsions:
REMARK  status: ('A' for Active; 'I' for Inactive)
REMARK    1  A    between atoms: C_17  and  O_18
REMARK                            x       y       z     vdW  Elec       q    Type
REMARK                         _______ _______ _______ _____ _____    ______ ____
ROOT
ATOM      1  O   UNL     1       7.955  11.130  23.810  0.00  0.00    +0.000 OA
ATOM      2  C   UNL     1       8.244  12.015  22.998  0.00  0.00    +0.000 C 
ATOM      3  C   UNL     1       7.446  13.306  22.914  0.00  0.00    +0.000 C 
ATOM      4  C   UNL     1       8.157  14.520  23.548  0.00  0.00    +0.000 C 
ATOM      5  C   UNL     1       8.667  15.429  22.455  0.00  0.00    +0.000 A 
ATOM      6  C   UNL     1       7.834  16.411  21.898  0.00  0.00    +0.000 A 
ATOM      7  C   UNL     1       8.090  16.900  20.613  0.00  0.00    +0.000 A 
ATOM      8  C   UNL     1       9.186  16.418  19.904  0.00  0.00    +0.000 A 
ATOM      9  C   UNL     1      10.147  15.639  20.567  0.00  0.00    +0.000 A 
ATOM     10  C   UNL     1       9.879  15.129  21.834  0.00  0.00    +0.000 A 
ATOM     11  O   UNL     1       9.203  16.648  18.530  0.00  0.00    +0.000 OA
ATOM     12  C   UNL     1       9.762  15.622  17.779  0.00  0.00    +0.000 A 
ATOM     13  C   UNL     1       9.379  14.300  18.002  0.00  0.00    +0.000 A 
ATOM     14  C   UNL     1      10.295  13.265  17.788  0.00  0.00    +0.000 A 
ATOM     15  C   UNL     1      11.412  13.538  16.986  0.00  0.00    +0.000 A 
ATOM     16  C   UNL     1      11.657  14.848  16.526  0.00  0.00    +0.000 A 
ATOM     17  C   UNL     1      10.860  15.899  16.972  0.00  0.00    +0.000 A 
ATOM     18  C   UNL     1      10.178  11.960  18.590  0.00  0.00    +0.000 C 
ATOM     19  C   UNL     1       9.147  12.059  19.758  0.00  0.00    +0.000 C 
ATOM     20  C   UNL     1       9.332  11.132  20.955  0.00  0.00    +0.000 C 
ATOM     21  N   UNL     1       9.383  11.861  22.240  0.00  0.00    +0.000 N 
ATOM     22  H   UNL     1       9.990  11.305  22.828  0.00  0.00    +0.000 HD
ENDROOT
BRANCH  17  23
ATOM     23  O   UNL     1      11.160  17.201  16.700  0.00  0.00    +0.000 OA
ATOM     24  H   UNL     1      11.502  17.262  15.793  0.00  0.00    +0.000 HD
ENDBRANCH  17  23
TORSDOF 1
ENDMDL
MODEL 8
REMARK VINA RESULT:      -6.2     11.664     13.827
REMARK  Name = 
REMARK  1 active torsions:
REMARK  status: ('A' for Active; 'I' for Inactive)
REMARK    1  A    between atoms: C_17  and  O_18
REMARK                            x       y       z     vdW  Elec       q    Type
REMARK                         _______ _______ _______ _____ _____    ______ ____
ROOT
ATOM      1  O   UNL     1      -7.895  12.832  22.265  0.00  0.00    +0.000 OA
ATOM      2  C   UNL     1      -6.660  12.884  22.278  0.00  0.00    +0.000 C 
ATOM      3  C   UNL     1      -5.919  13.900  23.132  0.00  0.00    +0.000 C 
ATOM      4  C   UNL     1      -5.287  13.302  24.406  0.00  0.00    +0.000 C 
ATOM      5  C   UNL     1      -3.791  13.205  24.226  0.00  0.00    +0.000 A 
ATOM      6  C   UNL     1      -2.965  14.300  24.524  0.00  0.00    +0.000 A 
ATOM      7  C   UNL     1      -1.707  14.412  23.922  0.00  0.00    +0.000 A 
ATOM      8  C   UNL     1      -1.278  13.422  23.044  0.00  0.00    +0.000 A 
ATOM      9  C   UNL     1      -1.996  12.218  22.959  0.00  0.00    +0.000 A 
ATOM     10  C   UNL     1      -3.260  12.118  23.533  0.00  0.00    +0.000 A 
ATOM     11  O   UNL     1      -0.210  13.736  22.208  0.00  0.00    +0.000 OA
ATOM     12  C   UNL     1      -0.283  13.172  20.940  0.00  0.00    +0.000 A 
ATOM     13  C   UNL     1      -1.463  13.256  20.202  0.00  0.00    +0.000 A 
ATOM     14  C   UNL     1      -1.797  12.235  19.306  0.00  0.00    +0.000 A 
ATOM     15  C   UNL     1      -0.771  11.380  18.881  0.00  0.00    +0.000 A 
ATOM     16  C   UNL     1       0.519  11.476  19.443  0.00  0.00    +0.000 A 
ATOM     17  C   UNL     1       0.744  12.337  20.514  0.00  0.00    +0.000 A 
ATOM     18  C   UNL     1      -3.272  11.944  18.991  0.00  0.00    +0.000 C 
ATOM     19  C   UNL     1      -4.253  12.707  19.936  0.00  0.00    +0.000 C 
ATOM     20  C   UNL     1      -5.639  12.111  20.159  0.00  0.00    +0.000 C 
ATOM     21  N   UNL     1      -5.958  11.922  21.590  0.00  0.00    +0.000 N 
ATOM     22  H   UNL     1      -6.567  11.114  21.614  0.00  0.00    +0.000 HD
ENDROOT
BRANCH  17  23
ATOM     23  O   UNL     1       1.919  12.340  21.206  0.00  0.00    +0.000 OA
ATOM     24  H   UNL     1       2.656  12.333  20.573  0.00  0.00    +0.000 HD
ENDBRANCH  17  23
TORSDOF 1
ENDMDL
MODEL 9
REMARK VINA RESULT:      -6.1      2.160      6.233
REMARK  Name = 
REMARK  1 active torsions:
REMARK  status: ('A' for Active; 'I' for Inactive)
REMARK    1  A    between atoms: C_17  and  O_18
REMARK                            x       y       z     vdW  Elec       q    Type
REMARK                         _______ _______ _______ _____ _____    ______ ____
ROOT
ATOM      1  O   UNL     1       6.946  14.231  25.058  0.00  0.00    +0.000 OA
ATOM      2  C   UNL     1       7.368  14.353  23.903  0.00  0.00    +0.000 C 
ATOM      3  C   UNL     1       6.651  15.222  22.884  0.00  0.00    +0.000 C 
ATOM      4  C   UNL     1       7.346  16.574  22.617  0.00  0.00    +0.000 C 
ATOM      5  C   UNL     1       8.021  16.533  21.267  0.00  0.00    +0.000 A 
ATOM      6  C   UNL     1       7.306  16.853  20.103  0.00  0.00    +0.000 A 
ATOM      7  C   UNL     1       7.729  16.363  18.864  0.00  0.00    +0.000 A 
ATOM      8  C   UNL     1       8.872  15.573  18.795  0.00  0.00    +0.000 A 
ATOM      9  C   UNL     1       9.713  15.479  19.916  0.00  0.00    +0.000 A 
ATOM     10  C   UNL     1       9.278  15.941  21.155  0.00  0.00    +0.000 A 
ATOM     11  O   UNL     1       9.056  14.822  17.637  0.00  0.00    +0.000 OA
ATOM     12  C   UNL     1       9.644  13.580  17.840  0.00  0.00    +0.000 A 
ATOM     13  C   UNL     1       9.173  12.736  18.844  0.00  0.00    +0.000 A 
ATOM     14  C   UNL     1      10.053  11.862  19.489  0.00  0.00    +0.000 A 
ATOM     15  C   UNL     1      11.266  11.569  18.849  0.00  0.00    +0.000 A 
ATOM     16  C   UNL     1      11.627  12.240  17.662  0.00  0.00    +0.000 A 
ATOM     17  C   UNL     1      10.839  13.286  17.191  0.00  0.00    +0.000 A 
ATOM     18  C   UNL     1       9.781  11.429  20.937  0.00  0.00    +0.000 C 
ATOM     19  C   UNL     1       8.632  12.246  21.605  0.00  0.00    +0.000 C 
ATOM     20  C   UNL     1       8.634  12.371  23.126  0.00  0.00    +0.000 C 
ATOM     21  N   UNL     1       8.576  13.774  23.586  0.00  0.00    +0.000 N 
ATOM     22  H   UNL     1       9.085  13.781  24.460  0.00  0.00    +0.000 HD
ENDROOT
BRANCH  17  23
ATOM     23  O   UNL     1      11.232  14.080  16.154  0.00  0.00    +0.000 OA
ATOM     24  H   UNL     1      12.046  13.714  15.770  0.00  0.00    +0.000 HD
ENDBRANCH  17  23
TORSDOF 1
ENDMDL
