MODEL 1
REMARK VINA RESULT:      -7.1      0.000      0.000
REMARK  Name = 
REMARK  14 active torsions:
REMARK  status: ('A' for Active; 'I' for Inactive)
REMARK    1  A    between atoms: C_1  and  C_2
REMARK    2  A    between atoms: C_2  and  C_3
REMARK    3  A    between atoms: C_3  and  C_4
REMARK    4  A    between atoms: C_4  and  O_5
REMARK    5  A    between atoms: O_5  and  C_6
REMARK    6  A    between atoms: N_8  and  CA_9
REMARK    7  A    between atoms: CA_9  and  C_10
REMARK    8  A    between atoms: CA_9  and  C_27
REMARK    9  A    between atoms: C_10  and  N_11
REMARK   10  A    between atoms: C_12  and  C_14
REMARK   11  A    between atoms: C_14  and  C_15
REMARK   12  A    between atoms: C_17  and  C_18
REMARK   13  A    between atoms: C_18  and  C_19
REMARK   14  A    between atoms: C_27  and  OXT_29
REMARK                            x       y       z     vdW  Elec       q    Type
REMARK                         _______ _______ _______ _____ _____    ______ ____
ROOT
ATOM      1  N   UNL     1       2.594   6.462  19.920  0.00  0.00    +0.000 N 
ATOM      2  C   UNL     1       2.362   6.770  18.599  0.00  0.00    +0.000 C 
ATOM      3  O   UNL     1       1.692   6.045  17.869  0.00  0.00    +0.000 OA
ATOM      4  H   UNL     1       3.055   7.130  20.528  0.00  0.00    +0.000 HD
ENDROOT
BRANCH   1   5
ATOM      5  C   UNL     1       2.011   5.246  20.479  0.00  0.00    +0.000 C 
BRANCH   5   6
ATOM      6  CA  UNL     1       2.900   4.002  20.370  0.00  0.00    +0.000 C 
BRANCH   6   9
ATOM      7  C   UNL     1       4.480   3.698  18.493  0.00  0.00    +0.000 C 
ATOM      8  O   UNL     1       5.469   3.866  19.186  0.00  0.00    +0.000 OA
ATOM      9  N   UNL     1       3.199   3.659  18.967  0.00  0.00    +0.000 N 
ATOM     10  H   UNL     1       2.485   3.785  18.258  0.00  0.00    +0.000 HD
BRANCH   7  11
ATOM     11  O   UNL     1       4.460   3.624  17.143  0.00  0.00    +0.000 OA
BRANCH  11  12
ATOM     12  C   UNL     1       5.413   4.458  16.462  0.00  0.00    +0.000 C 
BRANCH  12  13
ATOM     13  C   UNL     1       6.209   3.690  15.408  0.00  0.00    +0.000 C 
BRANCH  13  15
ATOM     14  C   UNL     1       6.121   3.589  12.867  0.00  0.00    +0.000 C 
ATOM     15  C   UNL     1       6.216   4.479  14.095  0.00  0.00    +0.000 C 
ENDBRANCH  13  15
ENDBRANCH  12  13
ENDBRANCH  11  12
ENDBRANCH   7  11
ENDBRANCH   6   9
BRANCH   6  16
ATOM     16  C   UNL     1       2.201   2.848  21.089  0.00  0.00    +0.000 C 
ATOM     17  O   UNL     1       2.151   2.720  22.304  0.00  0.00    +0.000 OA
BRANCH  16  18
ATOM     18  OXT UNL     1       1.615   1.962  20.247  0.00  0.00    +0.000 OA
ATOM     19  HXT UNL     1       0.872   2.387  19.770  0.00  0.00    +0.000 HD
ENDBRANCH  16  18
ENDBRANCH   6  16
ENDBRANCH   5   6
ENDBRANCH   1   5
BRANCH   2  20
ATOM     20  C   UNL     1       3.014   8.033  18.085  0.00  0.00    +0.000 C 
BRANCH  20  21
ATOM     21  C   UNL     1       2.146   9.241  18.454  0.00  0.00    +0.000 C 
ATOM     22  C   UNL     1       0.970   9.436  17.518  0.00  0.00    +0.000 C 
ATOM     23  C   UNL     1      -0.008   9.980  18.490  0.00  0.00    +0.000 C 
ATOM     24  N   UNL     1       0.292   9.756  19.730  0.00  0.00    +0.000 NA
ATOM     25  O   UNL     1       1.531   9.049  19.738  0.00  0.00    +0.000 OA
BRANCH  23  26
ATOM     26  C   UNL     1      -1.327  10.570  18.036  0.00  0.00    +0.000 C 
BRANCH  26  27
ATOM     27  C   UNL     1      -2.456   9.715  17.422  0.00  0.00    +0.000 C 
ATOM     28  C   UNL     1      -2.608   9.767  15.901  0.00  0.00    +0.000 C 
ATOM     29  C   UNL     1      -3.342  11.013  15.410  0.00  0.00    +0.000 C 
ATOM     30  N   UNL     1      -4.591  11.309  16.107  0.00  0.00    +0.000 NA
ATOM     31  C   UNL     1      -4.524  11.183  17.564  0.00  0.00    +0.000 C 
ATOM     32  C   UNL     1      -3.840   9.908  18.043  0.00  0.00    +0.000 C 
ATOM     33  H   UNL     1      -5.332  10.710  15.749  0.00  0.00    +0.000 HD
ENDBRANCH  26  27
ENDBRANCH  23  26
ENDBRANCH  20  21
ENDBRANCH   2  20
TORSDOF 13
ENDMDL
MODEL 2
REMARK VINA RESULT:      -7.1      2.619      3.857
REMARK  Name = 
REMARK  14 active torsions:
REMARK  status: ('A' for Active; 'I' for Inactive)
REMARK    1  A    between atoms: C_1  and  C_2
REMARK    2  A    between atoms: C_2  and  C_3
REMARK    3  A    between atoms: C_3  and  C_4
REMARK    4  A    between atoms: C_4  and  O_5
REMARK    5  A    between atoms: O_5  and  C_6
REMARK    6  A    between atoms: N_8  and  CA_9
REMARK    7  A    between atoms: CA_9  and  C_10
REMARK    8  A    between atoms: CA_9  and  C_27
REMARK    9  A    between atoms: C_10  and  N_11
REMARK   10  A    between atoms: C_12  and  C_14
REMARK   11  A    between atoms: C_14  and  C_15
REMARK   12  A    between atoms: C_17  and  C_18
REMARK   13  A    between atoms: C_18  and  C_19
REMARK   14  A    between atoms: C_27  and  OXT_29
REMARK                            x       y       z     vdW  Elec       q    Type
REMARK                         _______ _______ _______ _____ _____    ______ ____
ROOT
ATOM      1  N   UNL     1       4.244   5.573  19.438  0.00  0.00    +0.000 N 
ATOM      2  C   UNL     1       3.437   5.479  18.328  0.00  0.00    +0.000 C 
ATOM      3  O   UNL     1       3.768   4.835  17.335  0.00  0.00    +0.000 OA
ATOM      4  H   UNL     1       3.900   6.016  20.284  0.00  0.00    +0.000 HD
ENDROOT
BRANCH   1   5
ATOM      5  C   UNL     1       5.524   4.873  19.449  0.00  0.00    +0.000 C 
BRANCH   5   6
ATOM      6  CA  UNL     1       6.631   5.555  18.637  0.00  0.00    +0.000 C 
BRANCH   6   9
ATOM      7  C   UNL     1       7.387   5.339  16.292  0.00  0.00    +0.000 C 
ATOM      8  O   UNL     1       7.532   6.540  16.139  0.00  0.00    +0.000 OA
ATOM      9  N   UNL     1       7.040   4.745  17.473  0.00  0.00    +0.000 N 
ATOM     10  H   UNL     1       6.699   3.794  17.380  0.00  0.00    +0.000 HD
BRANCH   7  11
ATOM     11  O   UNL     1       7.442   4.401  15.319  0.00  0.00    +0.000 OA
BRANCH  11  12
ATOM     12  C   UNL     1       6.201   3.735  15.030  0.00  0.00    +0.000 C 
BRANCH  12  13
ATOM     13  C   UNL     1       5.578   4.211  13.719  0.00  0.00    +0.000 C 
BRANCH  13  15
ATOM     14  C   UNL     1       5.436   2.685  11.688  0.00  0.00    +0.000 C 
ATOM     15  C   UNL     1       6.322   3.579  12.538  0.00  0.00    +0.000 C 
ENDBRANCH  13  15
ENDBRANCH  12  13
ENDBRANCH  11  12
ENDBRANCH   7  11
ENDBRANCH   6   9
BRANCH   6  16
ATOM     16  C   UNL     1       7.813   5.825  19.569  0.00  0.00    +0.000 C 
ATOM     17  O   UNL     1       8.057   5.181  20.579  0.00  0.00    +0.000 OA
BRANCH  16  18
ATOM     18  OXT UNL     1       8.594   6.857  19.167  0.00  0.00    +0.000 OA
ATOM     19  HXT UNL     1       9.468   6.813  19.605  0.00  0.00    +0.000 HD
ENDBRANCH  16  18
ENDBRANCH   6  16
ENDBRANCH   5   6
ENDBRANCH   1   5
BRANCH   2  20
ATOM     20  C   UNL     1       2.136   6.246  18.382  0.00  0.00    +0.000 C 
BRANCH  20  21
ATOM     21  C   UNL     1       2.271   7.410  19.370  0.00  0.00    +0.000 C 
ATOM     22  C   UNL     1       1.598   8.679  18.888  0.00  0.00    +0.000 C 
ATOM     23  C   UNL     1       1.165   9.220  20.199  0.00  0.00    +0.000 C 
ATOM     24  N   UNL     1       1.147   8.346  21.156  0.00  0.00    +0.000 NA
ATOM     25  O   UNL     1       1.593   7.110  20.600  0.00  0.00    +0.000 OA
BRANCH  23  26
ATOM     26  C   UNL     1       0.615  10.624  20.331  0.00  0.00    +0.000 C 
BRANCH  26  27
ATOM     27  C   UNL     1      -0.897  10.934  20.309  0.00  0.00    +0.000 C 
ATOM     28  C   UNL     1      -1.542  11.113  18.934  0.00  0.00    +0.000 C 
ATOM     29  C   UNL     1      -1.294  12.492  18.326  0.00  0.00    +0.000 C 
ATOM     30  N   UNL     1      -1.560  13.617  19.219  0.00  0.00    +0.000 NA
ATOM     31  C   UNL     1      -1.043  13.455  20.578  0.00  0.00    +0.000 C 
ATOM     32  C   UNL     1      -1.345  12.095  21.197  0.00  0.00    +0.000 C 
ATOM     33  H   UNL     1      -2.562  13.794  19.257  0.00  0.00    +0.000 HD
ENDBRANCH  26  27
ENDBRANCH  23  26
ENDBRANCH  20  21
ENDBRANCH   2  20
TORSDOF 13
ENDMDL
MODEL 3
REMARK VINA RESULT:      -7.0      4.247      6.173
REMARK  Name = 
REMARK  14 active torsions:
REMARK  status: ('A' for Active; 'I' for Inactive)
REMARK    1  A    between atoms: C_1  and  C_2
REMARK    2  A    between atoms: C_2  and  C_3
REMARK    3  A    between atoms: C_3  and  C_4
REMARK    4  A    between atoms: C_4  and  O_5
REMARK    5  A    between atoms: O_5  and  C_6
REMARK    6  A    between atoms: N_8  and  CA_9
REMARK    7  A    between atoms: CA_9  and  C_10
REMARK    8  A    between atoms: CA_9  and  C_27
REMARK    9  A    between atoms: C_10  and  N_11
REMARK   10  A    between atoms: C_12  and  C_14
REMARK   11  A    between atoms: C_14  and  C_15
REMARK   12  A    between atoms: C_17  and  C_18
REMARK   13  A    between atoms: C_18  and  C_19
REMARK   14  A    between atoms: C_27  and  OXT_29
REMARK                            x       y       z     vdW  Elec       q    Type
REMARK                         _______ _______ _______ _____ _____    ______ ____
ROOT
ATOM      1  N   UNL     1       6.068   7.257  17.808  0.00  0.00    +0.000 N 
ATOM      2  C   UNL     1       4.860   7.116  17.164  0.00  0.00    +0.000 C 
ATOM      3  O   UNL     1       4.755   6.508  16.102  0.00  0.00    +0.000 OA
ATOM      4  H   UNL     1       6.109   7.665  18.736  0.00  0.00    +0.000 HD
ENDROOT
BRANCH   1   5
ATOM      5  C   UNL     1       7.260   6.651  17.223  0.00  0.00    +0.000 C 
BRANCH   5   6
ATOM      6  CA  UNL     1       7.534   5.213  17.675  0.00  0.00    +0.000 C 
BRANCH   6   9
ATOM      7  C   UNL     1       7.066   4.330  15.414  0.00  0.00    +0.000 C 
ATOM      8  O   UNL     1       7.803   5.125  14.858  0.00  0.00    +0.000 OA
ATOM      9  N   UNL     1       6.921   4.223  16.769  0.00  0.00    +0.000 N 
ATOM     10  H   UNL     1       6.091   3.720  17.064  0.00  0.00    +0.000 HD
BRANCH   7  11
ATOM     11  O   UNL     1       6.195   3.492  14.805  0.00  0.00    +0.000 OA
BRANCH  11  12
ATOM     12  C   UNL     1       5.580   4.000  13.609  0.00  0.00    +0.000 C 
BRANCH  12  13
ATOM     13  C   UNL     1       6.291   3.526  12.342  0.00  0.00    +0.000 C 
BRANCH  13  15
ATOM     14  C   UNL     1       6.103   1.226  11.269  0.00  0.00    +0.000 C 
ATOM     15  C   UNL     1       5.397   2.531  11.595  0.00  0.00    +0.000 C 
ENDBRANCH  13  15
ENDBRANCH  12  13
ENDBRANCH  11  12
ENDBRANCH   7  11
ENDBRANCH   6   9
BRANCH   6  16
ATOM     16  C   UNL     1       7.016   5.053  19.105  0.00  0.00    +0.000 C 
ATOM     17  O   UNL     1       6.017   4.419  19.411  0.00  0.00    +0.000 OA
BRANCH  16  18
ATOM     18  OXT UNL     1       7.782   5.680  20.031  0.00  0.00    +0.000 OA
ATOM     19  HXT UNL     1       7.305   5.740  20.884  0.00  0.00    +0.000 HD
ENDBRANCH  16  18
ENDBRANCH   6  16
ENDBRANCH   5   6
ENDBRANCH   1   5
BRANCH   2  20
ATOM     20  C   UNL     1       3.674   7.786  17.818  0.00  0.00    +0.000 C 
BRANCH  20  21
ATOM     21  C   UNL     1       2.751   6.719  18.416  0.00  0.00    +0.000 C 
ATOM     22  C   UNL     1       3.506   5.586  19.081  0.00  0.00    +0.000 C 
ATOM     23  C   UNL     1       2.546   5.277  20.168  0.00  0.00    +0.000 C 
ATOM     24  N   UNL     1       1.689   6.220  20.405  0.00  0.00    +0.000 NA
ATOM     25  O   UNL     1       1.961   7.272  19.481  0.00  0.00    +0.000 OA
BRANCH  23  26
ATOM     26  C   UNL     1       2.702   4.044  21.032  0.00  0.00    +0.000 C 
BRANCH  26  27
ATOM     27  C   UNL     1       2.249   2.640  20.574  0.00  0.00    +0.000 C 
ATOM     28  C   UNL     1       3.268   1.810  19.792  0.00  0.00    +0.000 C 
ATOM     29  C   UNL     1       3.372   2.210  18.322  0.00  0.00    +0.000 C 
ATOM     30  N   UNL     1       2.095   2.330  17.624  0.00  0.00    +0.000 NA
ATOM     31  C   UNL     1       1.053   3.038  18.369  0.00  0.00    +0.000 C 
ATOM     32  C   UNL     1       0.920   2.591  19.820  0.00  0.00    +0.000 C 
ATOM     33  H   UNL     1       1.758   1.404  17.366  0.00  0.00    +0.000 HD
ENDBRANCH  26  27
ENDBRANCH  23  26
ENDBRANCH  20  21
ENDBRANCH   2  20
TORSDOF 13
ENDMDL
MODEL 4
REMARK VINA RESULT:      -7.0      5.529      8.030
REMARK  Name = 
REMARK  14 active torsions:
REMARK  status: ('A' for Active; 'I' for Inactive)
REMARK    1  A    between atoms: C_1  and  C_2
REMARK    2  A    between atoms: C_2  and  C_3
REMARK    3  A    between atoms: C_3  and  C_4
REMARK    4  A    between atoms: C_4  and  O_5
REMARK    5  A    between atoms: O_5  and  C_6
REMARK    6  A    between atoms: N_8  and  CA_9
REMARK    7  A    between atoms: CA_9  and  C_10
REMARK    8  A    between atoms: CA_9  and  C_27
REMARK    9  A    between atoms: C_10  and  N_11
REMARK   10  A    between atoms: C_12  and  C_14
REMARK   11  A    between atoms: C_14  and  C_15
REMARK   12  A    between atoms: C_17  and  C_18
REMARK   13  A    between atoms: C_18  and  C_19
REMARK   14  A    between atoms: C_27  and  OXT_29
REMARK                            x       y       z     vdW  Elec       q    Type
REMARK                         _______ _______ _______ _____ _____    ______ ____
ROOT
ATOM      1  N   UNL     1       6.462   6.272  16.401  0.00  0.00    +0.000 N 
ATOM      2  C   UNL     1       6.577   5.231  15.509  0.00  0.00    +0.000 C 
ATOM      3  O   UNL     1       7.669   4.791  15.158  0.00  0.00    +0.000 OA
ATOM      4  H   UNL     1       5.551   6.540  16.759  0.00  0.00    +0.000 HD
ENDROOT
BRANCH   1   5
ATOM      5  C   UNL     1       7.671   6.863  16.964  0.00  0.00    +0.000 C 
BRANCH   5   6
ATOM      6  CA  UNL     1       7.658   7.013  18.490  0.00  0.00    +0.000 C 
BRANCH   6   9
ATOM      7  C   UNL     1       8.582   9.306  18.531  0.00  0.00    +0.000 C 
ATOM      8  O   UNL     1       7.665   9.779  17.882  0.00  0.00    +0.000 OA
ATOM      9  N   UNL     1       8.643   8.008  18.954  0.00  0.00    +0.000 N 
ATOM     10  H   UNL     1       9.568   7.703  19.238  0.00  0.00    +0.000 HD
BRANCH   7  11
ATOM     11  O   UNL     1       9.732   9.938  18.859  0.00  0.00    +0.000 OA
BRANCH  11  12
ATOM     12  C   UNL     1      10.087  11.054  18.025  0.00  0.00    +0.000 C 
BRANCH  12  13
ATOM     13  C   UNL     1      10.687  12.210  18.822  0.00  0.00    +0.000 C 
BRANCH  13  15
ATOM     14  C   UNL     1       8.558  13.231  17.873  0.00  0.00    +0.000 C 
ATOM     15  C   UNL     1       9.898  13.492  18.540  0.00  0.00    +0.000 C 
ENDBRANCH  13  15
ENDBRANCH  12  13
ENDBRANCH  11  12
ENDBRANCH   7  11
ENDBRANCH   6   9
BRANCH   6  16
ATOM     16  C   UNL     1       7.919   5.640  19.110  0.00  0.00    +0.000 C 
ATOM     17  O   UNL     1       8.049   4.607  18.469  0.00  0.00    +0.000 OA
BRANCH  16  18
ATOM     18  OXT UNL     1       8.009   5.665  20.462  0.00  0.00    +0.000 OA
ATOM     19  HXT UNL     1       8.943   5.771  20.739  0.00  0.00    +0.000 HD
ENDBRANCH  16  18
ENDBRANCH   6  16
ENDBRANCH   5   6
ENDBRANCH   1   5
BRANCH   2  20
ATOM     20  C   UNL     1       5.283   4.683  14.952  0.00  0.00    +0.000 C 
BRANCH  20  21
ATOM     21  C   UNL     1       4.335   4.343  16.108  0.00  0.00    +0.000 C 
ATOM     22  C   UNL     1       4.922   3.342  17.082  0.00  0.00    +0.000 C 
ATOM     23  C   UNL     1       4.294   3.841  18.329  0.00  0.00    +0.000 C 
ATOM     24  N   UNL     1       3.839   5.052  18.248  0.00  0.00    +0.000 NA
ATOM     25  O   UNL     1       4.088   5.503  16.918  0.00  0.00    +0.000 OA
BRANCH  23  26
ATOM     26  C   UNL     1       4.368   3.054  19.620  0.00  0.00    +0.000 C 
BRANCH  26  27
ATOM     27  C   UNL     1       3.175   2.246  20.175  0.00  0.00    +0.000 C 
ATOM     28  C   UNL     1       2.085   1.856  19.176  0.00  0.00    +0.000 C 
ATOM     29  C   UNL     1       1.116   2.994  18.865  0.00  0.00    +0.000 C 
ATOM     30  N   UNL     1       0.580   3.686  20.034  0.00  0.00    +0.000 NA
ATOM     31  C   UNL     1       1.569   4.001  21.065  0.00  0.00    +0.000 C 
ATOM     32  C   UNL     1       2.495   2.841  21.409  0.00  0.00    +0.000 C 
ATOM     33  H   UNL     1      -0.172   3.134  20.443  0.00  0.00    +0.000 HD
ENDBRANCH  26  27
ENDBRANCH  23  26
ENDBRANCH  20  21
ENDBRANCH   2  20
TORSDOF 13
ENDMDL
MODEL 5
REMARK VINA RESULT:      -7.0      6.643      9.560
REMARK  Name = 
REMARK  14 active torsions:
REMARK  status: ('A' for Active; 'I' for Inactive)
REMARK    1  A    between atoms: C_1  and  C_2
REMARK    2  A    between atoms: C_2  and  C_3
REMARK    3  A    between atoms: C_3  and  C_4
REMARK    4  A    between atoms: C_4  and  O_5
REMARK    5  A    between atoms: O_5  and  C_6
REMARK    6  A    between atoms: N_8  and  CA_9
REMARK    7  A    between atoms: CA_9  and  C_10
REMARK    8  A    between atoms: CA_9  and  C_27
REMARK    9  A    between atoms: C_10  and  N_11
REMARK   10  A    between atoms: C_12  and  C_14
REMARK   11  A    between atoms: C_14  and  C_15
REMARK   12  A    between atoms: C_17  and  C_18
REMARK   13  A    between atoms: C_18  and  C_19
REMARK   14  A    between atoms: C_27  and  OXT_29
REMARK                            x       y       z     vdW  Elec       q    Type
REMARK                         _______ _______ _______ _____ _____    ______ ____
ROOT
ATOM      1  N   UNL     1       7.351   7.710  17.089  0.00  0.00    +0.000 N 
ATOM      2  C   UNL     1       8.134   8.216  18.101  0.00  0.00    +0.000 C 
ATOM      3  O   UNL     1       8.622   7.498  18.969  0.00  0.00    +0.000 OA
ATOM      4  H   UNL     1       7.054   8.307  16.325  0.00  0.00    +0.000 HD
ENDROOT
BRANCH   1   5
ATOM      5  C   UNL     1       7.107   6.272  17.032  0.00  0.00    +0.000 C 
BRANCH   5   6
ATOM      6  CA  UNL     1       6.002   5.851  16.055  0.00  0.00    +0.000 C 
BRANCH   6   9
ATOM      7  C   UNL     1       3.978   6.111  17.452  0.00  0.00    +0.000 C 
ATOM      8  O   UNL     1       4.020   7.329  17.435  0.00  0.00    +0.000 OA
ATOM      9  N   UNL     1       4.828   5.297  16.757  0.00  0.00    +0.000 N 
ATOM     10  H   UNL     1       4.844   4.335  17.078  0.00  0.00    +0.000 HD
BRANCH   7  11
ATOM     11  O   UNL     1       3.167   5.354  18.224  0.00  0.00    +0.000 OA
BRANCH  11  12
ATOM     12  C   UNL     1       3.720   4.939  19.484  0.00  0.00    +0.000 C 
BRANCH  12  13
ATOM     13  C   UNL     1       3.477   3.458  19.767  0.00  0.00    +0.000 C 
BRANCH  13  15
ATOM     14  C   UNL     1       1.071   3.597  20.586  0.00  0.00    +0.000 C 
ATOM     15  C   UNL     1       2.518   3.313  20.953  0.00  0.00    +0.000 C 
ENDBRANCH  13  15
ENDBRANCH  12  13
ENDBRANCH  11  12
ENDBRANCH   7  11
ENDBRANCH   6   9
BRANCH   6  16
ATOM     16  C   UNL     1       6.592   4.838  15.072  0.00  0.00    +0.000 C 
ATOM     17  O   UNL     1       6.167   3.704  14.912  0.00  0.00    +0.000 OA
BRANCH  16  18
ATOM     18  OXT UNL     1       7.645   5.320  14.368  0.00  0.00    +0.000 OA
ATOM     19  HXT UNL     1       8.418   4.725  14.462  0.00  0.00    +0.000 HD
ENDBRANCH  16  18
ENDBRANCH   6  16
ENDBRANCH   5   6
ENDBRANCH   1   5
BRANCH   2  20
ATOM     20  C   UNL     1       8.327   9.716  18.108  0.00  0.00    +0.000 C 
BRANCH  20  21
ATOM     21  C   UNL     1       9.504  10.074  19.021  0.00  0.00    +0.000 C 
ATOM     22  C   UNL     1      10.394  11.157  18.446  0.00  0.00    +0.000 C 
ATOM     23  C   UNL     1      10.797  11.818  19.711  0.00  0.00    +0.000 C 
ATOM     24  N   UNL     1      10.034  11.544  20.721  0.00  0.00    +0.000 NA
ATOM     25  O   UNL     1       9.034  10.639  20.255  0.00  0.00    +0.000 OA
BRANCH  23  26
ATOM     26  C   UNL     1      11.890  12.865  19.740  0.00  0.00    +0.000 C 
BRANCH  26  27
ATOM     27  C   UNL     1      11.608  14.371  19.551  0.00  0.00    +0.000 C 
ATOM     28  C   UNL     1      10.154  14.822  19.699  0.00  0.00    +0.000 C 
ATOM     29  C   UNL     1       9.309  14.552  18.457  0.00  0.00    +0.000 C 
ATOM     30  N   UNL     1       9.905  14.990  17.197  0.00  0.00    +0.000 NA
ATOM     31  C   UNL     1      11.323  14.663  17.044  0.00  0.00    +0.000 C 
ATOM     32  C   UNL     1      12.168  14.991  18.270  0.00  0.00    +0.000 C 
ATOM     33  H   UNL     1       9.775  15.994  17.088  0.00  0.00    +0.000 HD
ENDBRANCH  26  27
ENDBRANCH  23  26
ENDBRANCH  20  21
ENDBRANCH   2  20
TORSDOF 13
ENDMDL
MODEL 6
REMARK VINA RESULT:      -6.7      4.211      7.397
REMARK  Name = 
REMARK  14 active torsions:
REMARK  status: ('A' for Active; 'I' for Inactive)
REMARK    1  A    between atoms: C_1  and  C_2
REMARK    2  A    between atoms: C_2  and  C_3
REMARK    3  A    between atoms: C_3  and  C_4
REMARK    4  A    between atoms: C_4  and  O_5
REMARK    5  A    between atoms: O_5  and  C_6
REMARK    6  A    between atoms: N_8  and  CA_9
REMARK    7  A    between atoms: CA_9  and  C_10
REMARK    8  A    between atoms: CA_9  and  C_27
REMARK    9  A    between atoms: C_10  and  N_11
REMARK   10  A    between atoms: C_12  and  C_14
REMARK   11  A    between atoms: C_14  and  C_15
REMARK   12  A    between atoms: C_17  and  C_18
REMARK   13  A    between atoms: C_18  and  C_19
REMARK   14  A    between atoms: C_27  and  OXT_29
REMARK                            x       y       z     vdW  Elec       q    Type
REMARK                         _______ _______ _______ _____ _____    ______ ____
ROOT
ATOM      1  N   UNL     1       5.330   6.213  18.200  0.00  0.00    +0.000 N 
ATOM      2  C   UNL     1       4.236   6.206  17.365  0.00  0.00    +0.000 C 
ATOM      3  O   UNL     1       4.099   5.370  16.476  0.00  0.00    +0.000 OA
ATOM      4  H   UNL     1       5.364   6.843  18.994  0.00  0.00    +0.000 HD
ENDROOT
BRANCH   1   5
ATOM      5  C   UNL     1       6.352   5.184  18.039  0.00  0.00    +0.000 C 
BRANCH   5   6
ATOM      6  CA  UNL     1       7.486   5.554  17.077  0.00  0.00    +0.000 C 
BRANCH   6   9
ATOM      7  C   UNL     1       8.169   7.736  18.020  0.00  0.00    +0.000 C 
ATOM      8  O   UNL     1       8.635   7.248  19.035  0.00  0.00    +0.000 OA
ATOM      9  N   UNL     1       7.666   7.015  16.973  0.00  0.00    +0.000 N 
ATOM     10  H   UNL     1       7.080   7.548  16.339  0.00  0.00    +0.000 HD
BRANCH   7  11
ATOM     11  O   UNL     1       7.973   9.054  17.789  0.00  0.00    +0.000 OA
BRANCH  11  12
ATOM     12  C   UNL     1       8.686   9.949  18.660  0.00  0.00    +0.000 C 
BRANCH  12  13
ATOM     13  C   UNL     1       8.974  11.296  18.000  0.00  0.00    +0.000 C 
BRANCH  13  15
ATOM     14  C   UNL     1      10.957  12.839  17.597  0.00  0.00    +0.000 C 
ATOM     15  C   UNL     1      10.469  11.403  17.683  0.00  0.00    +0.000 C 
ENDBRANCH  13  15
ENDBRANCH  12  13
ENDBRANCH  11  12
ENDBRANCH   7  11
ENDBRANCH   6   9
BRANCH   6  16
ATOM     16  C   UNL     1       7.181   4.933  15.714  0.00  0.00    +0.000 C 
ATOM     17  O   UNL     1       7.596   5.365  14.649  0.00  0.00    +0.000 OA
BRANCH  16  18
ATOM     18  OXT UNL     1       6.400   3.827  15.787  0.00  0.00    +0.000 OA
ATOM     19  HXT UNL     1       6.736   3.218  16.476  0.00  0.00    +0.000 HD
ENDBRANCH  16  18
ENDBRANCH   6  16
ENDBRANCH   5   6
ENDBRANCH   1   5
BRANCH   2  20
ATOM     20  C   UNL     1       3.229   7.314  17.578  0.00  0.00    +0.000 C 
BRANCH  20  21
ATOM     21  C   UNL     1       2.166   6.850  18.579  0.00  0.00    +0.000 C 
ATOM     22  C   UNL     1       1.795   5.390  18.419  0.00  0.00    +0.000 C 
ATOM     23  C   UNL     1       1.519   5.066  19.839  0.00  0.00    +0.000 C 
ATOM     24  N   UNL     1       2.015   5.914  20.684  0.00  0.00    +0.000 NA
ATOM     25  O   UNL     1       2.668   6.929  19.923  0.00  0.00    +0.000 OA
BRANCH  23  26
ATOM     26  C   UNL     1       0.881   3.754  20.240  0.00  0.00    +0.000 C 
BRANCH  26  27
ATOM     27  C   UNL     1       1.645   2.412  20.218  0.00  0.00    +0.000 C 
ATOM     28  C   UNL     1       3.082   2.432  20.742  0.00  0.00    +0.000 C 
ATOM     29  C   UNL     1       4.087   2.972  19.727  0.00  0.00    +0.000 C 
ATOM     30  N   UNL     1       3.987   2.393  18.391  0.00  0.00    +0.000 NA
ATOM     31  C   UNL     1       2.622   2.266  17.878  0.00  0.00    +0.000 C 
ATOM     32  C   UNL     1       1.639   1.672  18.880  0.00  0.00    +0.000 C 
ATOM     33  H   UNL     1       4.439   1.480  18.379  0.00  0.00    +0.000 HD
ENDBRANCH  26  27
ENDBRANCH  23  26
ENDBRANCH  20  21
ENDBRANCH   2  20
TORSDOF 13
ENDMDL
MODEL 7
REMARK VINA RESULT:      -6.6      3.067      3.704
REMARK  Name = 
REMARK  14 active torsions:
REMARK  status: ('A' for Active; 'I' for Inactive)
REMARK    1  A    between atoms: C_1  and  C_2
REMARK    2  A    between atoms: C_2  and  C_3
REMARK    3  A    between atoms: C_3  and  C_4
REMARK    4  A    between atoms: C_4  and  O_5
REMARK    5  A    between atoms: O_5  and  C_6
REMARK    6  A    between atoms: N_8  and  CA_9
REMARK    7  A    between atoms: CA_9  and  C_10
REMARK    8  A    between atoms: CA_9  and  C_27
REMARK    9  A    between atoms: C_10  and  N_11
REMARK   10  A    between atoms: C_12  and  C_14
REMARK   11  A    between atoms: C_14  and  C_15
REMARK   12  A    between atoms: C_17  and  C_18
REMARK   13  A    between atoms: C_18  and  C_19
REMARK   14  A    between atoms: C_27  and  OXT_29
REMARK                            x       y       z     vdW  Elec       q    Type
REMARK                         _______ _______ _______ _____ _____    ______ ____
ROOT
ATOM      1  N   UNL     1       3.468   5.914  19.864  0.00  0.00    +0.000 N 
ATOM      2  C   UNL     1       2.393   6.701  19.520  0.00  0.00    +0.000 C 
ATOM      3  O   UNL     1       2.226   7.112  18.375  0.00  0.00    +0.000 OA
ATOM      4  H   UNL     1       3.522   5.496  20.787  0.00  0.00    +0.000 HD
ENDROOT
BRANCH   1   5
ATOM      5  C   UNL     1       4.432   5.538  18.835  0.00  0.00    +0.000 C 
BRANCH   5   6
ATOM      6  CA  UNL     1       5.262   4.292  19.162  0.00  0.00    +0.000 C 
BRANCH   6   9
ATOM      7  C   UNL     1       7.335   4.687  17.873  0.00  0.00    +0.000 C 
ATOM      8  O   UNL     1       7.740   5.555  18.626  0.00  0.00    +0.000 OA
ATOM      9  N   UNL     1       6.200   3.953  18.074  0.00  0.00    +0.000 N 
ATOM     10  H   UNL     1       5.856   3.475  17.247  0.00  0.00    +0.000 HD
BRANCH   7  11
ATOM     11  O   UNL     1       7.867   4.366  16.671  0.00  0.00    +0.000 OA
BRANCH  11  12
ATOM     12  C   UNL     1       7.128   4.821  15.525  0.00  0.00    +0.000 C 
BRANCH  12  13
ATOM     13  C   UNL     1       6.358   3.691  14.844  0.00  0.00    +0.000 C 
BRANCH  13  15
ATOM     14  C   UNL     1       5.915   3.317  12.366  0.00  0.00    +0.000 C 
ATOM     15  C   UNL     1       5.694   4.220  13.568  0.00  0.00    +0.000 C 
ENDBRANCH  13  15
ENDBRANCH  12  13
ENDBRANCH  11  12
ENDBRANCH   7  11
ENDBRANCH   6   9
BRANCH   6  16
ATOM     16  C   UNL     1       4.302   3.137  19.448  0.00  0.00    +0.000 C 
ATOM     17  O   UNL     1       3.584   3.064  20.435  0.00  0.00    +0.000 OA
BRANCH  16  18
ATOM     18  OXT UNL     1       4.304   2.181  18.487  0.00  0.00    +0.000 OA
ATOM     19  HXT UNL     1       3.566   1.553  18.631  0.00  0.00    +0.000 HD
ENDBRANCH  16  18
ENDBRANCH   6  16
ENDBRANCH   5   6
ENDBRANCH   1   5
BRANCH   2  20
ATOM     20  C   UNL     1       1.448   7.066  20.643  0.00  0.00    +0.000 C 
BRANCH  20  21
ATOM     21  C   UNL     1       1.606   8.552  20.978  0.00  0.00    +0.000 C 
ATOM     22  C   UNL     1       0.580   9.429  20.289  0.00  0.00    +0.000 C 
ATOM     23  C   UNL     1       0.421  10.464  21.339  0.00  0.00    +0.000 C 
ATOM     24  N   UNL     1       0.846  10.105  22.509  0.00  0.00    +0.000 NA
ATOM     25  O   UNL     1       1.368   8.784  22.376  0.00  0.00    +0.000 OA
BRANCH  23  26
ATOM     26  C   UNL     1      -0.350  11.741  21.078  0.00  0.00    +0.000 C 
BRANCH  26  27
ATOM     27  C   UNL     1      -1.774  11.983  21.623  0.00  0.00    +0.000 C 
ATOM     28  C   UNL     1      -2.641  12.985  20.859  0.00  0.00    +0.000 C 
ATOM     29  C   UNL     1      -2.314  14.440  21.187  0.00  0.00    +0.000 C 
ATOM     30  N   UNL     1      -2.229  14.747  22.612  0.00  0.00    +0.000 NA
ATOM     31  C   UNL     1      -1.486  13.768  23.407  0.00  0.00    +0.000 C 
ATOM     32  C   UNL     1      -1.861  12.321  23.112  0.00  0.00    +0.000 C 
ATOM     33  H   UNL     1      -3.166  14.853  22.996  0.00  0.00    +0.000 HD
ENDBRANCH  26  27
ENDBRANCH  23  26
ENDBRANCH  20  21
ENDBRANCH   2  20
TORSDOF 13
ENDMDL
MODEL 8
REMARK VINA RESULT:      -6.6      3.279      5.596
REMARK  Name = 
REMARK  14 active torsions:
REMARK  status: ('A' for Active; 'I' for Inactive)
REMARK    1  A    between atoms: C_1  and  C_2
REMARK    2  A    between atoms: C_2  and  C_3
REMARK    3  A    between atoms: C_3  and  C_4
REMARK    4  A    between atoms: C_4  and  O_5
REMARK    5  A    between atoms: O_5  and  C_6
REMARK    6  A    between atoms: N_8  and  CA_9
REMARK    7  A    between atoms: CA_9  and  C_10
REMARK    8  A    between atoms: CA_9  and  C_27
REMARK    9  A    between atoms: C_10  and  N_11
REMARK   10  A    between atoms: C_12  and  C_14
REMARK   11  A    between atoms: C_14  and  C_15
REMARK   12  A    between atoms: C_17  and  C_18
REMARK   13  A    between atoms: C_18  and  C_19
REMARK   14  A    between atoms: C_27  and  OXT_29
REMARK                            x       y       z     vdW  Elec       q    Type
REMARK                         _______ _______ _______ _____ _____    ______ ____
ROOT
ATOM      1  N   UNL     1       4.865   3.305  18.885  0.00  0.00    +0.000 N 
ATOM      2  C   UNL     1       4.525   2.208  19.643  0.00  0.00    +0.000 C 
ATOM      3  O   UNL     1       5.189   1.855  20.614  0.00  0.00    +0.000 OA
ATOM      4  H   UNL     1       4.239   3.640  18.160  0.00  0.00    +0.000 HD
ENDROOT
BRANCH   1   5
ATOM      5  C   UNL     1       6.040   4.087  19.255  0.00  0.00    +0.000 C 
BRANCH   5   6
ATOM      6  CA  UNL     1       6.426   5.176  18.247  0.00  0.00    +0.000 C 
BRANCH   6   9
ATOM      7  C   UNL     1       5.756   4.239  16.059  0.00  0.00    +0.000 C 
ATOM      8  O   UNL     1       4.571   4.464  16.229  0.00  0.00    +0.000 OA
ATOM      9  N   UNL     1       6.748   4.613  16.922  0.00  0.00    +0.000 N 
ATOM     10  H   UNL     1       7.629   4.128  16.785  0.00  0.00    +0.000 HD
BRANCH   7  11
ATOM     11  O   UNL     1       6.290   3.504  15.056  0.00  0.00    +0.000 OA
BRANCH  11  12
ATOM     12  C   UNL     1       6.472   4.196  13.809  0.00  0.00    +0.000 C 
BRANCH  12  13
ATOM     13  C   UNL     1       5.741   3.515  12.654  0.00  0.00    +0.000 C 
BRANCH  13  15
ATOM     14  C   UNL     1       6.353   1.500  11.225  0.00  0.00    +0.000 C 
ATOM     15  C   UNL     1       6.762   2.883  11.703  0.00  0.00    +0.000 C 
ENDBRANCH  13  15
ENDBRANCH  12  13
ENDBRANCH  11  12
ENDBRANCH   7  11
ENDBRANCH   6   9
BRANCH   6  16
ATOM     16  C   UNL     1       7.605   5.963  18.819  0.00  0.00    +0.000 C 
ATOM     17  O   UNL     1       8.030   7.009  18.350  0.00  0.00    +0.000 OA
BRANCH  16  18
ATOM     18  OXT UNL     1       8.147   5.397  19.926  0.00  0.00    +0.000 OA
ATOM     19  HXT UNL     1       7.983   4.432  19.929  0.00  0.00    +0.000 HD
ENDBRANCH  16  18
ENDBRANCH   6  16
ENDBRANCH   5   6
ENDBRANCH   1   5
BRANCH   2  20
ATOM     20  C   UNL     1       3.307   1.436  19.189  0.00  0.00    +0.000 C 
BRANCH  20  21
ATOM     21  C   UNL     1       2.081   2.355  19.217  0.00  0.00    +0.000 C 
ATOM     22  C   UNL     1       2.156   3.412  20.300  0.00  0.00    +0.000 C 
ATOM     23  C   UNL     1       1.438   4.506  19.602  0.00  0.00    +0.000 C 
ATOM     24  N   UNL     1       1.354   4.353  18.318  0.00  0.00    +0.000 NA
ATOM     25  O   UNL     1       1.991   3.116  18.002  0.00  0.00    +0.000 OA
BRANCH  23  26
ATOM     26  C   UNL     1       1.022   5.767  20.329  0.00  0.00    +0.000 C 
BRANCH  26  27
ATOM     27  C   UNL     1       1.972   6.968  20.528  0.00  0.00    +0.000 C 
ATOM     28  C   UNL     1       1.373   8.219  21.171  0.00  0.00    +0.000 C 
ATOM     29  C   UNL     1       0.566   9.072  20.196  0.00  0.00    +0.000 C 
ATOM     30  N   UNL     1       1.234   9.361  18.930  0.00  0.00    +0.000 NA
ATOM     31  C   UNL     1       1.904   8.214  18.316  0.00  0.00    +0.000 C 
ATOM     32  C   UNL     1       2.753   7.402  19.287  0.00  0.00    +0.000 C 
ATOM     33  H   UNL     1       1.905  10.115  19.061  0.00  0.00    +0.000 HD
ENDBRANCH  26  27
ENDBRANCH  23  26
ENDBRANCH  20  21
ENDBRANCH   2  20
TORSDOF 13
ENDMDL
MODEL 9
REMARK VINA RESULT:      -6.6      2.574      3.368
REMARK  Name = 
REMARK  14 active torsions:
REMARK  status: ('A' for Active; 'I' for Inactive)
REMARK    1  A    between atoms: C_1  and  C_2
REMARK    2  A    between atoms: C_2  and  C_3
REMARK    3  A    between atoms: C_3  and  C_4
REMARK    4  A    between atoms: C_4  and  O_5
REMARK    5  A    between atoms: O_5  and  C_6
REMARK    6  A    between atoms: N_8  and  CA_9
REMARK    7  A    between atoms: CA_9  and  C_10
REMARK    8  A    between atoms: CA_9  and  C_27
REMARK    9  A    between atoms: C_10  and  N_11
REMARK   10  A    between atoms: C_12  and  C_14
REMARK   11  A    between atoms: C_14  and  C_15
REMARK   12  A    between atoms: C_17  and  C_18
REMARK   13  A    between atoms: C_18  and  C_19
REMARK   14  A    between atoms: C_27  and  OXT_29
REMARK                            x       y       z     vdW  Elec       q    Type
REMARK                         _______ _______ _______ _____ _____    ______ ____
ROOT
ATOM      1  N   UNL     1       2.477   5.435  19.404  0.00  0.00    +0.000 N 
ATOM      2  C   UNL     1       2.192   6.760  19.638  0.00  0.00    +0.000 C 
ATOM      3  O   UNL     1       2.617   7.656  18.915  0.00  0.00    +0.000 OA
ATOM      4  H   UNL     1       2.023   4.709  19.949  0.00  0.00    +0.000 HD
ENDROOT
BRANCH   1   5
ATOM      5  C   UNL     1       3.296   5.077  18.249  0.00  0.00    +0.000 C 
BRANCH   5   6
ATOM      6  CA  UNL     1       4.595   4.339  18.591  0.00  0.00    +0.000 C 
BRANCH   6   9
ATOM      7  C   UNL     1       6.819   4.367  17.512  0.00  0.00    +0.000 C 
ATOM      8  O   UNL     1       7.421   4.517  18.561  0.00  0.00    +0.000 OA
ATOM      9  N   UNL     1       5.468   4.185  17.412  0.00  0.00    +0.000 N 
ATOM     10  H   UNL     1       5.090   4.346  16.484  0.00  0.00    +0.000 HD
BRANCH   7  11
ATOM     11  O   UNL     1       7.351   4.453  16.271  0.00  0.00    +0.000 OA
BRANCH  11  12
ATOM     12  C   UNL     1       6.527   5.100  15.287  0.00  0.00    +0.000 C 
BRANCH  12  13
ATOM     13  C   UNL     1       5.801   4.102  14.387  0.00  0.00    +0.000 C 
BRANCH  13  15
ATOM     14  C   UNL     1       5.833   3.075  12.059  0.00  0.00    +0.000 C 
ATOM     15  C   UNL     1       6.530   3.999  13.043  0.00  0.00    +0.000 C 
ENDBRANCH  13  15
ENDBRANCH  12  13
ENDBRANCH  11  12
ENDBRANCH   7  11
ENDBRANCH   6   9
BRANCH   6  16
ATOM     16  C   UNL     1       4.231   2.982  19.195  0.00  0.00    +0.000 C 
ATOM     17  O   UNL     1       3.159   2.418  19.029  0.00  0.00    +0.000 OA
BRANCH  16  18
ATOM     18  OXT UNL     1       5.224   2.438  19.940  0.00  0.00    +0.000 OA
ATOM     19  HXT UNL     1       4.855   2.017  20.744  0.00  0.00    +0.000 HD
ENDBRANCH  16  18
ENDBRANCH   6  16
ENDBRANCH   5   6
ENDBRANCH   1   5
BRANCH   2  20
ATOM     20  C   UNL     1       1.356   7.055  20.863  0.00  0.00    +0.000 C 
BRANCH  20  21
ATOM     21  C   UNL     1       1.285   8.571  21.079  0.00  0.00    +0.000 C 
ATOM     22  C   UNL     1      -0.093   9.144  20.819  0.00  0.00    +0.000 C 
ATOM     23  C   UNL     1      -0.082  10.233  21.825  0.00  0.00    +0.000 C 
ATOM     24  N   UNL     1       0.816  10.095  22.749  0.00  0.00    +0.000 NA
ATOM     25  O   UNL     1       1.537   8.899  22.455  0.00  0.00    +0.000 OA
BRANCH  23  26
ATOM     26  C   UNL     1      -1.162  11.293  21.853  0.00  0.00    +0.000 C 
BRANCH  26  27
ATOM     27  C   UNL     1      -1.100  12.572  20.990  0.00  0.00    +0.000 C 
ATOM     28  C   UNL     1      -1.797  12.517  19.630  0.00  0.00    +0.000 C 
ATOM     29  C   UNL     1      -0.975  11.805  18.558  0.00  0.00    +0.000 C 
ATOM     30  N   UNL     1       0.415  12.239  18.456  0.00  0.00    +0.000 NA
ATOM     31  C   UNL     1       1.104  12.396  19.738  0.00  0.00    +0.000 C 
ATOM     32  C   UNL     1       0.297  13.159  20.783  0.00  0.00    +0.000 C 
ATOM     33  H   UNL     1       0.464  13.113  17.937  0.00  0.00    +0.000 HD
ENDBRANCH  26  27
ENDBRANCH  23  26
ENDBRANCH  20  21
ENDBRANCH   2  20
TORSDOF 13
ENDMDL
