MODEL 1
REMARK VINA RESULT:      -8.2      0.000      0.000
REMARK  Name = 
REMARK  6 active torsions:
REMARK  status: ('A' for Active; 'I' for Inactive)
REMARK    1  A    between atoms: C_2  and  C_10
REMARK    2  A    between atoms: N_3  and  C_4
REMARK    3  A    between atoms: C_4  and  C_5
REMARK    4  A    between atoms: C_13  and  C_14
REMARK    5  A    between atoms: C_14  and  O_15
REMARK    6  A    between atoms: O_15  and  C_16
REMARK                            x       y       z     vdW  Elec       q    Type
REMARK                         _______ _______ _______ _____ _____    ______ ____
ROOT
ATOM      1  C   UNL     1       6.318   5.540  18.017  0.00  0.00    +0.000 A 
ATOM      2  C   UNL     1       7.485   5.675  18.773  0.00  0.00    +0.000 A 
ATOM      3  C   UNL     1       8.202   6.877  18.746  0.00  0.00    +0.000 A 
ATOM      4  C   UNL     1       7.756   7.964  17.980  0.00  0.00    +0.000 A 
ATOM      5  C   UNL     1       6.593   7.820  17.214  0.00  0.00    +0.000 A 
ATOM      6  C   UNL     1       5.874   6.619  17.241  0.00  0.00    +0.000 A 
ENDROOT
BRANCH   1   8
ATOM      7  O   UNL     1       4.986   3.894  16.992  0.00  0.00    +0.000 OA
ATOM      8  C   UNL     1       5.490   4.301  18.032  0.00  0.00    +0.000 C 
ATOM      9  N   UNL     1       5.336   3.656  19.239  0.00  0.00    +0.000 N 
ATOM     10  H   UNL     1       5.752   4.010  20.088  0.00  0.00    +0.000 HD
BRANCH   9  11
ATOM     11  C   UNL     1       4.464   2.512  19.366  0.00  0.00    +0.000 C 
BRANCH  11  12
ATOM     12  C   UNL     1       3.190   2.924  20.005  0.00  0.00    +0.000 A 
ATOM     13  C   UNL     1       2.108   3.653  19.555  0.00  0.00    +0.000 A 
ATOM     14  C   UNL     1       1.218   3.768  20.648  0.00  0.00    +0.000 A 
ATOM     15  C   UNL     1       1.802   3.087  21.690  0.00  0.00    +0.000 A 
ATOM     16  O   UNL     1       2.999   2.566  21.309  0.00  0.00    +0.000 OA
ENDBRANCH  11  12
ENDBRANCH   9  11
ENDBRANCH   1   8
BRANCH   4  17
ATOM     17  C   UNL     1       8.522   9.267  17.992  0.00  0.00    +0.000 C 
BRANCH  17  18
ATOM     18  O   UNL     1       9.134   9.424  19.264  0.00  0.00    +0.000 OA
BRANCH  18  19
ATOM     19  C   UNL     1       9.524  10.662  19.699  0.00  0.00    +0.000 A 
ATOM     20  C   UNL     1       9.057  10.908  21.004  0.00  0.00    +0.000 A 
ATOM     21  C   UNL     1       9.322  12.111  21.656  0.00  0.00    +0.000 A 
ATOM     22 CL   UNL     1       8.727  12.378  23.247  0.00  0.00    +0.000 Cl
ATOM     23  C   UNL     1      10.065  13.098  21.024  0.00  0.00    +0.000 A 
ATOM     24  C   UNL     1      10.543  12.871  19.735  0.00  0.00    +0.000 A 
ATOM     25  C   UNL     1      10.283  11.661  19.067  0.00  0.00    +0.000 A 
ATOM     26 CL   UNL     1      10.977  11.552  17.487  0.00  0.00    +0.000 Cl
ENDBRANCH  18  19
ENDBRANCH  17  18
ENDBRANCH   4  17
TORSDOF 6
ENDMDL
MODEL 2
REMARK VINA RESULT:      -8.1      0.859      2.365
REMARK  Name = 
REMARK  6 active torsions:
REMARK  status: ('A' for Active; 'I' for Inactive)
REMARK    1  A    between atoms: C_2  and  C_10
REMARK    2  A    between atoms: N_3  and  C_4
REMARK    3  A    between atoms: C_4  and  C_5
REMARK    4  A    between atoms: C_13  and  C_14
REMARK    5  A    between atoms: C_14  and  O_15
REMARK    6  A    between atoms: O_15  and  C_16
REMARK                            x       y       z     vdW  Elec       q    Type
REMARK                         _______ _______ _______ _____ _____    ______ ____
ROOT
ATOM      1  C   UNL     1       6.351   5.689  18.006  0.00  0.00    +0.000 A 
ATOM      2  C   UNL     1       5.953   6.765  17.206  0.00  0.00    +0.000 A 
ATOM      3  C   UNL     1       6.698   7.949  17.204  0.00  0.00    +0.000 A 
ATOM      4  C   UNL     1       7.858   8.072  17.985  0.00  0.00    +0.000 A 
ATOM      5  C   UNL     1       8.245   6.997  18.793  0.00  0.00    +0.000 A 
ATOM      6  C   UNL     1       7.502   5.810  18.796  0.00  0.00    +0.000 A 
ENDROOT
BRANCH   1   8
ATOM      7  O   UNL     1       5.320   3.847  16.967  0.00  0.00    +0.000 OA
ATOM      8  C   UNL     1       5.622   4.389  18.024  0.00  0.00    +0.000 C 
ATOM      9  N   UNL     1       5.327   3.845  19.254  0.00  0.00    +0.000 N 
ATOM     10  H   UNL     1       5.577   4.309  20.115  0.00  0.00    +0.000 HD
BRANCH   9  11
ATOM     11  C   UNL     1       4.531   2.645  19.365  0.00  0.00    +0.000 C 
BRANCH  11  12
ATOM     12  C   UNL     1       3.131   3.005  19.705  0.00  0.00    +0.000 A 
ATOM     13  C   UNL     1       2.574   4.078  20.368  0.00  0.00    +0.000 A 
ATOM     14  C   UNL     1       1.183   3.831  20.434  0.00  0.00    +0.000 A 
ATOM     15  C   UNL     1       0.976   2.633  19.792  0.00  0.00    +0.000 A 
ATOM     16  O   UNL     1       2.153   2.124  19.340  0.00  0.00    +0.000 OA
ENDBRANCH  11  12
ENDBRANCH   9  11
ENDBRANCH   1   8
BRANCH   4  17
ATOM     17  C   UNL     1       8.671   9.344  17.942  0.00  0.00    +0.000 C 
BRANCH  17  18
ATOM     18  O   UNL     1       9.006   9.716  19.272  0.00  0.00    +0.000 OA
BRANCH  18  19
ATOM     19  C   UNL     1       9.626  10.909  19.526  0.00  0.00    +0.000 A 
ATOM     20  C   UNL     1      10.402  11.319  18.425  0.00  0.00    +0.000 A 
ATOM     21  C   UNL     1      11.136  12.504  18.455  0.00  0.00    +0.000 A 
ATOM     22 CL   UNL     1      12.078  12.968  17.093  0.00  0.00    +0.000 Cl
ATOM     23  C   UNL     1      11.111  13.312  19.582  0.00  0.00    +0.000 A 
ATOM     24  C   UNL     1      10.343  12.927  20.679  0.00  0.00    +0.000 A 
ATOM     25  C   UNL     1       9.598  11.735  20.661  0.00  0.00    +0.000 A 
ATOM     26 CL   UNL     1       8.690  11.438  22.102  0.00  0.00    +0.000 Cl
ENDBRANCH  18  19
ENDBRANCH  17  18
ENDBRANCH   4  17
TORSDOF 6
ENDMDL
MODEL 3
REMARK VINA RESULT:      -7.8      7.058      9.370
REMARK  Name = 
REMARK  6 active torsions:
REMARK  status: ('A' for Active; 'I' for Inactive)
REMARK    1  A    between atoms: C_2  and  C_10
REMARK    2  A    between atoms: N_3  and  C_4
REMARK    3  A    between atoms: C_4  and  C_5
REMARK    4  A    between atoms: C_13  and  C_14
REMARK    5  A    between atoms: C_14  and  O_15
REMARK    6  A    between atoms: O_15  and  C_16
REMARK                            x       y       z     vdW  Elec       q    Type
REMARK                         _______ _______ _______ _____ _____    ______ ____
ROOT
ATOM      1  C   UNL     1       2.071   7.456  19.460  0.00  0.00    +0.000 A 
ATOM      2  C   UNL     1       1.407   8.128  20.490  0.00  0.00    +0.000 A 
ATOM      3  C   UNL     1       0.793   9.360  20.241  0.00  0.00    +0.000 A 
ATOM      4  C   UNL     1       0.816   9.929  18.959  0.00  0.00    +0.000 A 
ATOM      5  C   UNL     1       1.492   9.259  17.933  0.00  0.00    +0.000 A 
ATOM      6  C   UNL     1       2.106   8.026  18.180  0.00  0.00    +0.000 A 
ENDROOT
BRANCH   1   8
ATOM      7  O   UNL     1       2.497   5.488  20.678  0.00  0.00    +0.000 OA
ATOM      8  C   UNL     1       2.712   6.124  19.652  0.00  0.00    +0.000 C 
ATOM      9  N   UNL     1       3.525   5.661  18.642  0.00  0.00    +0.000 N 
ATOM     10  H   UNL     1       3.697   6.202  17.807  0.00  0.00    +0.000 HD
BRANCH   9  11
ATOM     11  C   UNL     1       4.270   4.432  18.791  0.00  0.00    +0.000 C 
BRANCH  11  12
ATOM     12  C   UNL     1       5.498   4.490  17.959  0.00  0.00    +0.000 A 
ATOM     13  C   UNL     1       5.713   4.421  16.598  0.00  0.00    +0.000 A 
ATOM     14  C   UNL     1       7.113   4.472  16.409  0.00  0.00    +0.000 A 
ATOM     15  C   UNL     1       7.665   4.587  17.663  0.00  0.00    +0.000 A 
ATOM     16  O   UNL     1       6.692   4.603  18.613  0.00  0.00    +0.000 OA
ENDBRANCH  11  12
ENDBRANCH   9  11
ENDBRANCH   1   8
BRANCH   4  17
ATOM     17  C   UNL     1       0.115  11.243  18.698  0.00  0.00    +0.000 C 
BRANCH  17  18
ATOM     18  O   UNL     1      -1.173  11.198  19.295  0.00  0.00    +0.000 OA
BRANCH  18  19
ATOM     19  C   UNL     1      -2.300  11.301  18.526  0.00  0.00    +0.000 A 
ATOM     20  C   UNL     1      -2.092  10.747  17.248  0.00  0.00    +0.000 A 
ATOM     21  C   UNL     1      -3.099  10.745  16.284  0.00  0.00    +0.000 A 
ATOM     22 CL   UNL     1      -2.804  10.065  14.732  0.00  0.00    +0.000 Cl
ATOM     23  C   UNL     1      -4.341  11.292  16.572  0.00  0.00    +0.000 A 
ATOM     24  C   UNL     1      -4.569  11.839  17.833  0.00  0.00    +0.000 A 
ATOM     25  C   UNL     1      -3.562  11.846  18.814  0.00  0.00    +0.000 A 
ATOM     26 CL   UNL     1      -4.038  12.545  20.322  0.00  0.00    +0.000 Cl
ENDBRANCH  18  19
ENDBRANCH  17  18
ENDBRANCH   4  17
TORSDOF 6
ENDMDL
MODEL 4
REMARK VINA RESULT:      -7.7      7.223      9.259
REMARK  Name = 
REMARK  6 active torsions:
REMARK  status: ('A' for Active; 'I' for Inactive)
REMARK    1  A    between atoms: C_2  and  C_10
REMARK    2  A    between atoms: N_3  and  C_4
REMARK    3  A    between atoms: C_4  and  C_5
REMARK    4  A    between atoms: C_13  and  C_14
REMARK    5  A    between atoms: C_14  and  O_15
REMARK    6  A    between atoms: O_15  and  C_16
REMARK                            x       y       z     vdW  Elec       q    Type
REMARK                         _______ _______ _______ _____ _____    ______ ____
ROOT
ATOM      1  C   UNL     1       2.261   7.945  18.836  0.00  0.00    +0.000 A 
ATOM      2  C   UNL     1       1.798   8.864  17.891  0.00  0.00    +0.000 A 
ATOM      3  C   UNL     1       0.826   9.806  18.247  0.00  0.00    +0.000 A 
ATOM      4  C   UNL     1       0.316   9.855  19.553  0.00  0.00    +0.000 A 
ATOM      5  C   UNL     1       0.773   8.924  20.493  0.00  0.00    +0.000 A 
ATOM      6  C   UNL     1       1.746   7.982  20.139  0.00  0.00    +0.000 A 
ENDROOT
BRANCH   1   8
ATOM      7  O   UNL     1       3.924   7.002  17.464  0.00  0.00    +0.000 OA
ATOM      8  C   UNL     1       3.321   6.942  18.530  0.00  0.00    +0.000 C 
ATOM      9  N   UNL     1       3.582   5.985  19.485  0.00  0.00    +0.000 N 
ATOM     10  H   UNL     1       3.071   5.947  20.354  0.00  0.00    +0.000 HD
BRANCH   9  11
ATOM     11  C   UNL     1       4.516   4.913  19.228  0.00  0.00    +0.000 C 
BRANCH  11  12
ATOM     12  C   UNL     1       3.785   3.728  18.714  0.00  0.00    +0.000 A 
ATOM     13  C   UNL     1       2.832   3.568  17.729  0.00  0.00    +0.000 A 
ATOM     14  C   UNL     1       2.467   2.202  17.741  0.00  0.00    +0.000 A 
ATOM     15  C   UNL     1       3.232   1.610  18.719  0.00  0.00    +0.000 A 
ATOM     16  O   UNL     1       4.040   2.528  19.314  0.00  0.00    +0.000 OA
ENDBRANCH  11  12
ENDBRANCH   9  11
ENDBRANCH   1   8
BRANCH   4  17
ATOM     17  C   UNL     1      -0.707  10.902  19.930  0.00  0.00    +0.000 C 
BRANCH  17  18
ATOM     18  O   UNL     1      -1.045  11.648  18.770  0.00  0.00    +0.000 OA
BRANCH  18  19
ATOM     19  C   UNL     1      -2.308  11.587  18.247  0.00  0.00    +0.000 A 
ATOM     20  C   UNL     1      -2.288  11.072  16.937  0.00  0.00    +0.000 A 
ATOM     21  C   UNL     1      -3.459  10.926  16.196  0.00  0.00    +0.000 A 
ATOM     22 CL   UNL     1      -3.394  10.300  14.595  0.00  0.00    +0.000 Cl
ATOM     23  C   UNL     1      -4.682  11.287  16.745  0.00  0.00    +0.000 A 
ATOM     24  C   UNL     1      -4.723  11.792  18.043  0.00  0.00    +0.000 A 
ATOM     25  C   UNL     1      -3.549  11.943  18.801  0.00  0.00    +0.000 A 
ATOM     26 CL   UNL     1      -3.801  12.561  20.395  0.00  0.00    +0.000 Cl
ENDBRANCH  18  19
ENDBRANCH  17  18
ENDBRANCH   4  17
TORSDOF 6
ENDMDL
MODEL 5
REMARK VINA RESULT:      -7.7      7.027      9.182
REMARK  Name = 
REMARK  6 active torsions:
REMARK  status: ('A' for Active; 'I' for Inactive)
REMARK    1  A    between atoms: C_2  and  C_10
REMARK    2  A    between atoms: N_3  and  C_4
REMARK    3  A    between atoms: C_4  and  C_5
REMARK    4  A    between atoms: C_13  and  C_14
REMARK    5  A    between atoms: C_14  and  O_15
REMARK    6  A    between atoms: O_15  and  C_16
REMARK                            x       y       z     vdW  Elec       q    Type
REMARK                         _______ _______ _______ _____ _____    ______ ____
ROOT
ATOM      1  C   UNL     1       2.120   7.611  19.068  0.00  0.00    +0.000 A 
ATOM      2  C   UNL     1       1.947   8.597  18.092  0.00  0.00    +0.000 A 
ATOM      3  C   UNL     1       1.273   9.782  18.406  0.00  0.00    +0.000 A 
ATOM      4  C   UNL     1       0.777  10.007  19.699  0.00  0.00    +0.000 A 
ATOM      5  C   UNL     1       0.941   9.012  20.669  0.00  0.00    +0.000 A 
ATOM      6  C   UNL     1       1.616   7.826  20.358  0.00  0.00    +0.000 A 
ENDROOT
BRANCH   1   8
ATOM      7  O   UNL     1       2.655   5.721  17.772  0.00  0.00    +0.000 OA
ATOM      8  C   UNL     1       2.861   6.344  18.807  0.00  0.00    +0.000 C 
ATOM      9  N   UNL     1       3.766   5.933  19.760  0.00  0.00    +0.000 N 
ATOM     10  H   UNL     1       3.917   6.454  20.611  0.00  0.00    +0.000 HD
BRANCH   9  11
ATOM     11  C   UNL     1       4.447   4.664  19.640  0.00  0.00    +0.000 C 
BRANCH  11  12
ATOM     12  C   UNL     1       5.788   4.873  19.039  0.00  0.00    +0.000 A 
ATOM     13  C   UNL     1       6.319   4.567  17.803  0.00  0.00    +0.000 A 
ATOM     14  C   UNL     1       7.677   4.960  17.840  0.00  0.00    +0.000 A 
ATOM     15  C   UNL     1       7.885   5.497  19.089  0.00  0.00    +0.000 A 
ATOM     16  O   UNL     1       6.743   5.453  19.825  0.00  0.00    +0.000 OA
ENDBRANCH  11  12
ENDBRANCH   9  11
ENDBRANCH   1   8
BRANCH   4  17
ATOM     17  C   UNL     1       0.084  11.309  20.030  0.00  0.00    +0.000 C 
BRANCH  17  18
ATOM     18  O   UNL     1      -0.443  11.863  18.833  0.00  0.00    +0.000 OA
BRANCH  18  19
ATOM     19  C   UNL     1      -1.773  11.740  18.536  0.00  0.00    +0.000 A 
ATOM     20  C   UNL     1      -1.955  11.169  17.262  0.00  0.00    +0.000 A 
ATOM     21  C   UNL     1      -3.229  10.954  16.738  0.00  0.00    +0.000 A 
ATOM     22 CL   UNL     1      -3.410  10.261  15.174  0.00  0.00    +0.000 Cl
ATOM     23  C   UNL     1      -4.353  11.301  17.473  0.00  0.00    +0.000 A 
ATOM     24  C   UNL     1      -4.194  11.861  18.738  0.00  0.00    +0.000 A 
ATOM     25  C   UNL     1      -2.915  12.081  19.279  0.00  0.00    +0.000 A 
ATOM     26 CL   UNL     1      -2.918  12.761  20.868  0.00  0.00    +0.000 Cl
ENDBRANCH  18  19
ENDBRANCH  17  18
ENDBRANCH   4  17
TORSDOF 6
ENDMDL
MODEL 6
REMARK VINA RESULT:      -7.6      7.017      9.271
REMARK  Name = 
REMARK  6 active torsions:
REMARK  status: ('A' for Active; 'I' for Inactive)
REMARK    1  A    between atoms: C_2  and  C_10
REMARK    2  A    between atoms: N_3  and  C_4
REMARK    3  A    between atoms: C_4  and  C_5
REMARK    4  A    between atoms: C_13  and  C_14
REMARK    5  A    between atoms: C_14  and  O_15
REMARK    6  A    between atoms: O_15  and  C_16
REMARK                            x       y       z     vdW  Elec       q    Type
REMARK                         _______ _______ _______ _____ _____    ______ ____
ROOT
ATOM      1  C   UNL     1       2.080   7.569  19.151  0.00  0.00    +0.000 A 
ATOM      2  C   UNL     1       1.586   7.866  20.424  0.00  0.00    +0.000 A 
ATOM      3  C   UNL     1       0.887   9.058  20.644  0.00  0.00    +0.000 A 
ATOM      4  C   UNL     1       0.654   9.960  19.595  0.00  0.00    +0.000 A 
ATOM      5  C   UNL     1       1.161   9.663  18.324  0.00  0.00    +0.000 A 
ATOM      6  C   UNL     1       1.861   8.471  18.102  0.00  0.00    +0.000 A 
ENDROOT
BRANCH   1   8
ATOM      7  O   UNL     1       2.541   5.687  17.815  0.00  0.00    +0.000 OA
ATOM      8  C   UNL     1       2.800   6.300  18.845  0.00  0.00    +0.000 C 
ATOM      9  N   UNL     1       3.747   5.875  19.749  0.00  0.00    +0.000 N 
ATOM     10  H   UNL     1       3.942   6.387  20.596  0.00  0.00    +0.000 HD
BRANCH   9  11
ATOM     11  C   UNL     1       4.413   4.604  19.586  0.00  0.00    +0.000 C 
BRANCH  11  12
ATOM     12  C   UNL     1       5.747   4.815  18.971  0.00  0.00    +0.000 A 
ATOM     13  C   UNL     1       6.882   5.475  19.396  0.00  0.00    +0.000 A 
ATOM     14  C   UNL     1       7.820   5.382  18.341  0.00  0.00    +0.000 A 
ATOM     15  C   UNL     1       7.206   4.657  17.347  0.00  0.00    +0.000 A 
ATOM     16  O   UNL     1       5.948   4.303  17.720  0.00  0.00    +0.000 OA
ENDBRANCH  11  12
ENDBRANCH   9  11
ENDBRANCH   1   8
BRANCH   4  17
ATOM     17  C   UNL     1      -0.135  11.225  19.840  0.00  0.00    +0.000 C 
BRANCH  17  18
ATOM     18  O   UNL     1      -0.604  11.719  18.594  0.00  0.00    +0.000 OA
BRANCH  18  19
ATOM     19  C   UNL     1      -1.917  11.572  18.236  0.00  0.00    +0.000 A 
ATOM     20  C   UNL     1      -2.030  10.964  16.972  0.00  0.00    +0.000 A 
ATOM     21  C   UNL     1      -3.275  10.719  16.393  0.00  0.00    +0.000 A 
ATOM     22 CL   UNL     1      -3.373   9.980  14.843  0.00  0.00    +0.000 Cl
ATOM     23  C   UNL     1      -4.437  11.074  17.062  0.00  0.00    +0.000 A 
ATOM     24  C   UNL     1      -4.346  11.671  18.317  0.00  0.00    +0.000 A 
ATOM     25  C   UNL     1      -3.097  11.921  18.913  0.00  0.00    +0.000 A 
ATOM     26 CL   UNL     1      -3.184  12.646  20.480  0.00  0.00    +0.000 Cl
ENDBRANCH  18  19
ENDBRANCH  17  18
ENDBRANCH   4  17
TORSDOF 6
ENDMDL
MODEL 7
REMARK VINA RESULT:      -7.6      7.062      9.056
REMARK  Name = 
REMARK  6 active torsions:
REMARK  status: ('A' for Active; 'I' for Inactive)
REMARK    1  A    between atoms: C_2  and  C_10
REMARK    2  A    between atoms: N_3  and  C_4
REMARK    3  A    between atoms: C_4  and  C_5
REMARK    4  A    between atoms: C_13  and  C_14
REMARK    5  A    between atoms: C_14  and  O_15
REMARK    6  A    between atoms: O_15  and  C_16
REMARK                            x       y       z     vdW  Elec       q    Type
REMARK                         _______ _______ _______ _____ _____    ______ ____
ROOT
ATOM      1  C   UNL     1       2.132   7.581  19.153  0.00  0.00    +0.000 A 
ATOM      2  C   UNL     1       1.873   8.589  18.220  0.00  0.00    +0.000 A 
ATOM      3  C   UNL     1       1.169   9.735  18.605  0.00  0.00    +0.000 A 
ATOM      4  C   UNL     1       0.728   9.900  19.927  0.00  0.00    +0.000 A 
ATOM      5  C   UNL     1       0.979   8.882  20.854  0.00  0.00    +0.000 A 
ATOM      6  C   UNL     1       1.684   7.735  20.472  0.00  0.00    +0.000 A 
ENDROOT
BRANCH   1   8
ATOM      7  O   UNL     1       2.829   5.875  17.691  0.00  0.00    +0.000 OA
ATOM      8  C   UNL     1       2.909   6.354  18.816  0.00  0.00    +0.000 C 
ATOM      9  N   UNL     1       3.702   5.815  19.804  0.00  0.00    +0.000 N 
ATOM     10  H   UNL     1       3.749   6.219  20.728  0.00  0.00    +0.000 HD
BRANCH   9  11
ATOM     11  C   UNL     1       4.403   4.569  19.598  0.00  0.00    +0.000 C 
BRANCH  11  12
ATOM     12  C   UNL     1       5.735   4.839  19.003  0.00  0.00    +0.000 A 
ATOM     13  C   UNL     1       6.263   4.619  17.747  0.00  0.00    +0.000 A 
ATOM     14  C   UNL     1       7.614   5.034  17.801  0.00  0.00    +0.000 A 
ATOM     15  C   UNL     1       7.821   5.497  19.079  0.00  0.00    +0.000 A 
ATOM     16  O   UNL     1       6.685   5.388  19.817  0.00  0.00    +0.000 OA
ENDBRANCH  11  12
ENDBRANCH   9  11
ENDBRANCH   1   8
BRANCH   4  17
ATOM     17  C   UNL     1       0.002  11.161  20.334  0.00  0.00    +0.000 C 
BRANCH  17  18
ATOM     18  O   UNL     1      -0.568  11.753  19.175  0.00  0.00    +0.000 OA
BRANCH  18  19
ATOM     19  C   UNL     1      -1.921  11.722  18.971  0.00  0.00    +0.000 A 
ATOM     20  C   UNL     1      -2.594  12.513  19.921  0.00  0.00    +0.000 A 
ATOM     21  C   UNL     1      -3.983  12.627  19.918  0.00  0.00    +0.000 A 
ATOM     22 CL   UNL     1      -4.770  13.597  21.100  0.00  0.00    +0.000 Cl
ATOM     23  C   UNL     1      -4.736  11.957  18.964  0.00  0.00    +0.000 A 
ATOM     24  C   UNL     1      -4.088  11.175  18.011  0.00  0.00    +0.000 A 
ATOM     25  C   UNL     1      -2.687  11.053  18.003  0.00  0.00    +0.000 A 
ATOM     26 CL   UNL     1      -2.063  10.061  16.731  0.00  0.00    +0.000 Cl
ENDBRANCH  18  19
ENDBRANCH  17  18
ENDBRANCH   4  17
TORSDOF 6
ENDMDL
MODEL 8
REMARK VINA RESULT:      -7.6      6.711      9.145
REMARK  Name = 
REMARK  6 active torsions:
REMARK  status: ('A' for Active; 'I' for Inactive)
REMARK    1  A    between atoms: C_2  and  C_10
REMARK    2  A    between atoms: N_3  and  C_4
REMARK    3  A    between atoms: C_4  and  C_5
REMARK    4  A    between atoms: C_13  and  C_14
REMARK    5  A    between atoms: C_14  and  O_15
REMARK    6  A    between atoms: O_15  and  C_16
REMARK                            x       y       z     vdW  Elec       q    Type
REMARK                         _______ _______ _______ _____ _____    ______ ____
ROOT
ATOM      1  C   UNL     1       2.862   7.032  18.678  0.00  0.00    +0.000 A 
ATOM      2  C   UNL     1       2.721   7.932  17.618  0.00  0.00    +0.000 A 
ATOM      3  C   UNL     1       1.924   9.072  17.768  0.00  0.00    +0.000 A 
ATOM      4  C   UNL     1       1.273   9.341  18.981  0.00  0.00    +0.000 A 
ATOM      5  C   UNL     1       1.407   8.430  20.036  0.00  0.00    +0.000 A 
ATOM      6  C   UNL     1       2.204   7.290  19.889  0.00  0.00    +0.000 A 
ENDROOT
BRANCH   1   8
ATOM      7  O   UNL     1       4.649   5.676  19.386  0.00  0.00    +0.000 OA
ATOM      8  C   UNL     1       3.725   5.820  18.594  0.00  0.00    +0.000 C 
ATOM      9  N   UNL     1       3.429   4.898  17.615  0.00  0.00    +0.000 N 
ATOM     10  H   UNL     1       2.669   5.037  16.965  0.00  0.00    +0.000 HD
BRANCH   9  11
ATOM     11  C   UNL     1       4.277   3.750  17.393  0.00  0.00    +0.000 C 
BRANCH  11  12
ATOM     12  C   UNL     1       5.357   4.105  16.438  0.00  0.00    +0.000 A 
ATOM     13  C   UNL     1       6.692   4.410  16.604  0.00  0.00    +0.000 A 
ATOM     14  C   UNL     1       7.195   4.723  15.319  0.00  0.00    +0.000 A 
ATOM     15  C   UNL     1       6.142   4.572  14.449  0.00  0.00    +0.000 A 
ATOM     16  O   UNL     1       5.020   4.192  15.117  0.00  0.00    +0.000 OA
ENDBRANCH  11  12
ENDBRANCH   9  11
ENDBRANCH   1   8
BRANCH   4  17
ATOM     17  C   UNL     1       0.446  10.596  19.138  0.00  0.00    +0.000 C 
BRANCH  17  18
ATOM     18  O   UNL     1      -0.888  10.227  19.456  0.00  0.00    +0.000 OA
BRANCH  18  19
ATOM     19  C   UNL     1      -1.935  10.694  18.709  0.00  0.00    +0.000 A 
ATOM     20  C   UNL     1      -1.992  10.049  17.459  0.00  0.00    +0.000 A 
ATOM     21  C   UNL     1      -2.973  10.367  16.521  0.00  0.00    +0.000 A 
ATOM     22 CL   UNL     1      -3.006   9.562  15.002  0.00  0.00    +0.000 Cl
ATOM     23  C   UNL     1      -3.924  11.336  16.808  0.00  0.00    +0.000 A 
ATOM     24  C   UNL     1      -3.889  11.981  18.042  0.00  0.00    +0.000 A 
ATOM     25  C   UNL     1      -2.906  11.668  18.997  0.00  0.00    +0.000 A 
ATOM     26 CL   UNL     1      -3.037  12.554  20.476  0.00  0.00    +0.000 Cl
ENDBRANCH  18  19
ENDBRANCH  17  18
ENDBRANCH   4  17
TORSDOF 6
ENDMDL
MODEL 9
REMARK VINA RESULT:      -7.6      6.221      8.674
REMARK  Name = 
REMARK  6 active torsions:
REMARK  status: ('A' for Active; 'I' for Inactive)
REMARK    1  A    between atoms: C_2  and  C_10
REMARK    2  A    between atoms: N_3  and  C_4
REMARK    3  A    between atoms: C_4  and  C_5
REMARK    4  A    between atoms: C_13  and  C_14
REMARK    5  A    between atoms: C_14  and  O_15
REMARK    6  A    between atoms: O_15  and  C_16
REMARK                            x       y       z     vdW  Elec       q    Type
REMARK                         _______ _______ _______ _____ _____    ______ ____
ROOT
ATOM      1  C   UNL     1       3.737   6.024  18.277  0.00  0.00    +0.000 A 
ATOM      2  C   UNL     1       3.532   7.183  17.523  0.00  0.00    +0.000 A 
ATOM      3  C   UNL     1       2.679   8.186  17.996  0.00  0.00    +0.000 A 
ATOM      4  C   UNL     1       2.035   8.056  19.236  0.00  0.00    +0.000 A 
ATOM      5  C   UNL     1       2.233   6.889  19.982  0.00  0.00    +0.000 A 
ATOM      6  C   UNL     1       3.087   5.885  19.511  0.00  0.00    +0.000 A 
ENDROOT
BRANCH   1   8
ATOM      7  O   UNL     1       4.798   3.941  18.547  0.00  0.00    +0.000 OA
ATOM      8  C   UNL     1       4.662   4.937  17.846  0.00  0.00    +0.000 C 
ATOM      9  N   UNL     1       5.324   5.107  16.650  0.00  0.00    +0.000 N 
ATOM     10  H   UNL     1       5.206   5.937  16.090  0.00  0.00    +0.000 HD
BRANCH   9  11
ATOM     11  C   UNL     1       6.318   4.155  16.210  0.00  0.00    +0.000 C 
BRANCH  11  12
ATOM     12  C   UNL     1       6.631   4.388  14.778  0.00  0.00    +0.000 A 
ATOM     13  C   UNL     1       6.165   3.817  13.611  0.00  0.00    +0.000 A 
ATOM     14  C   UNL     1       6.888   4.417  12.554  0.00  0.00    +0.000 A 
ATOM     15  C   UNL     1       7.736   5.328  13.138  0.00  0.00    +0.000 A 
ATOM     16  O   UNL     1       7.585   5.322  14.490  0.00  0.00    +0.000 OA
ENDBRANCH  11  12
ENDBRANCH   9  11
ENDBRANCH   1   8
BRANCH   4  17
ATOM     17  C   UNL     1       1.146   9.165  19.750  0.00  0.00    +0.000 C 
BRANCH  17  18
ATOM     18  O   UNL     1       0.840  10.040  18.674  0.00  0.00    +0.000 OA
BRANCH  18  19
ATOM     19  C   UNL     1      -0.422  10.547  18.526  0.00  0.00    +0.000 A 
ATOM     20  C   UNL     1      -1.074   9.966  17.422  0.00  0.00    +0.000 A 
ATOM     21  C   UNL     1      -2.371  10.334  17.068  0.00  0.00    +0.000 A 
ATOM     22 CL   UNL     1      -3.132   9.606  15.708  0.00  0.00    +0.000 Cl
ATOM     23  C   UNL     1      -3.052  11.289  17.809  0.00  0.00    +0.000 A 
ATOM     24  C   UNL     1      -2.427  11.871  18.910  0.00  0.00    +0.000 A 
ATOM     25  C   UNL     1      -1.119  11.508  19.277  0.00  0.00    +0.000 A 
ATOM     26 CL   UNL     1      -0.520  12.318  20.682  0.00  0.00    +0.000 Cl
ENDBRANCH  18  19
ENDBRANCH  17  18
ENDBRANCH   4  17
TORSDOF 6
ENDMDL
