MODEL 1
REMARK VINA RESULT:      -7.8      0.000      0.000
REMARK  Name = 
REMARK  4 active torsions:
REMARK  status: ('A' for Active; 'I' for Inactive)
REMARK    1  A    between atoms: C_2  and  C_3
REMARK    2  A    between atoms: N_8  and  C_9
REMARK    3  A    between atoms: C_16  and  C_17
REMARK    4  A    between atoms: C_17  and  C_19
REMARK                            x       y       z     vdW  Elec       q    Type
REMARK                         _______ _______ _______ _____ _____    ______ ____
ROOT
ATOM      1  C   UNL     1      -1.378  13.143  23.322  0.00  0.00    +0.000 A 
ATOM      2  C   UNL     1      -0.572  13.401  22.225  0.00  0.00    +0.000 A 
ATOM      3  C   UNL     1      -0.083  12.341  21.476  0.00  0.00    +0.000 A 
ATOM      4  N   UNL     1       0.704  12.565  20.408  0.00  0.00    +0.000 NA
ATOM      5  C   UNL     1       1.209  11.481  19.747  0.00  0.00    +0.000 A 
ATOM      6  N   UNL     1       2.094  11.726  18.663  0.00  0.00    +0.000 N 
ATOM      7  C   UNL     1       0.922  10.146  20.177  0.00  0.00    +0.000 A 
ATOM      8  N   UNL     1       1.363   8.961  19.588  0.00  0.00    +0.000 N 
ATOM      9  C   UNL     1       1.963   8.935  18.263  0.00  0.00    +0.000 C 
ATOM     10  C   UNL     1       1.805   7.550  17.638  0.00  0.00    +0.000 C 
ATOM     11  C   UNL     1       2.338   6.413  18.527  0.00  0.00    +0.000 C 
ATOM     12  C   UNL     1       1.642   6.507  19.888  0.00  0.00    +0.000 C 
ATOM     13  C   UNL     1       1.719   7.890  20.533  0.00  0.00    +0.000 C 
ATOM     14  N   UNL     1       0.099   9.963  21.240  0.00  0.00    +0.000 NA
ATOM     15  C   UNL     1      -0.402  11.036  21.867  0.00  0.00    +0.000 A 
ATOM     16  C   UNL     1      -1.247  10.885  22.950  0.00  0.00    +0.000 A 
ATOM     17  N   UNL     1      -1.743  11.901  23.696  0.00  0.00    +0.000 NA
ATOM     18  H   UNL     1       2.999  11.342  18.925  0.00  0.00    +0.000 HD
ENDROOT
BRANCH   6  19
ATOM     19  C   UNL     1       2.133  13.032  17.998  0.00  0.00    +0.000 C 
ATOM     20  C   UNL     1       2.347  14.261  18.847  0.00  0.00    +0.000 C 
ATOM     21  C   UNL     1       3.412  13.818  17.890  0.00  0.00    +0.000 C 
ENDBRANCH   6  19
BRANCH   1  23
ATOM     22  N   UNL     1      -2.268  15.082  24.804  0.00  0.00    +0.000 NA
ATOM     23  C   UNL     1      -1.858  14.206  24.159  0.00  0.00    +0.000 C 
ENDBRANCH   1  23
BRANCH  11  24
ATOM     24  C   UNL     1       3.880   6.418  18.610  0.00  0.00    +0.000 C 
ATOM     25  F   UNL     1       4.260   5.883  19.810  0.00  0.00    +0.000 F 
BRANCH  24  26
ATOM     26  C   UNL     1       4.599   5.745  17.461  0.00  0.00    +0.000 A 
ATOM     27  C   UNL     1       5.141   6.512  16.416  0.00  0.00    +0.000 A 
ATOM     28  C   UNL     1       5.711   5.891  15.302  0.00  0.00    +0.000 A 
ATOM     29  C   UNL     1       5.750   4.503  15.234  0.00  0.00    +0.000 A 
ATOM     30  F   UNL     1       6.271   3.911  14.152  0.00  0.00    +0.000 F 
ATOM     31  C   UNL     1       5.243   3.723  16.264  0.00  0.00    +0.000 A 
ATOM     32  C   UNL     1       4.669   4.350  17.364  0.00  0.00    +0.000 A 
ATOM     33  F   UNL     1       4.145   3.587  18.333  0.00  0.00    +0.000 F 
ENDBRANCH  24  26
ENDBRANCH  11  24
TORSDOF 4
ENDMDL
MODEL 2
REMARK VINA RESULT:      -7.8      0.727      1.174
REMARK  Name = 
REMARK  4 active torsions:
REMARK  status: ('A' for Active; 'I' for Inactive)
REMARK    1  A    between atoms: C_2  and  C_3
REMARK    2  A    between atoms: N_8  and  C_9
REMARK    3  A    between atoms: C_16  and  C_17
REMARK    4  A    between atoms: C_17  and  C_19
REMARK                            x       y       z     vdW  Elec       q    Type
REMARK                         _______ _______ _______ _____ _____    ______ ____
ROOT
ATOM      1  C   UNL     1      -1.457  13.127  23.219  0.00  0.00    +0.000 A 
ATOM      2  C   UNL     1      -0.621  13.386  22.144  0.00  0.00    +0.000 A 
ATOM      3  C   UNL     1      -0.100  12.327  21.417  0.00  0.00    +0.000 A 
ATOM      4  N   UNL     1       0.716  12.551  20.371  0.00  0.00    +0.000 NA
ATOM      5  C   UNL     1       1.251  11.468  19.732  0.00  0.00    +0.000 A 
ATOM      6  N   UNL     1       2.165  11.715  18.674  0.00  0.00    +0.000 N 
ATOM      7  C   UNL     1       0.966  10.133  20.164  0.00  0.00    +0.000 A 
ATOM      8  N   UNL     1       1.435   8.949  19.596  0.00  0.00    +0.000 N 
ATOM      9  C   UNL     1       2.074   8.920  18.289  0.00  0.00    +0.000 C 
ATOM     10  C   UNL     1       1.949   7.529  17.670  0.00  0.00    +0.000 C 
ATOM     11  C   UNL     1       2.467   6.405  18.581  0.00  0.00    +0.000 C 
ATOM     12  C   UNL     1       1.730   6.500  19.920  0.00  0.00    +0.000 C 
ATOM     13  C   UNL     1       1.774   7.888  20.559  0.00  0.00    +0.000 C 
ATOM     14  N   UNL     1       0.113   9.948  21.203  0.00  0.00    +0.000 NA
ATOM     15  C   UNL     1      -0.417  11.020  21.808  0.00  0.00    +0.000 A 
ATOM     16  C   UNL     1      -1.292  10.868  22.866  0.00  0.00    +0.000 A 
ATOM     17  N   UNL     1      -1.820  11.884  23.590  0.00  0.00    +0.000 NA
ATOM     18  H   UNL     1       3.066  11.343  18.965  0.00  0.00    +0.000 HD
ENDROOT
BRANCH   6  19
ATOM     19  C   UNL     1       2.211  13.017  18.002  0.00  0.00    +0.000 C 
ATOM     20  C   UNL     1       2.378  14.254  18.848  0.00  0.00    +0.000 C 
ATOM     21  C   UNL     1       3.482  13.820  17.933  0.00  0.00    +0.000 C 
ENDBRANCH   6  19
BRANCH   1  23
ATOM     22  N   UNL     1      -2.426  15.049  24.674  0.00  0.00    +0.000 NA
ATOM     23  C   UNL     1      -1.972  14.190  24.034  0.00  0.00    +0.000 C 
ENDBRANCH   1  23
BRANCH  11  24
ATOM     24  C   UNL     1       4.006   6.425  18.710  0.00  0.00    +0.000 C 
ATOM     25  F   UNL     1       4.360   5.809  19.878  0.00  0.00    +0.000 F 
BRANCH  24  26
ATOM     26  C   UNL     1       4.768   5.850  17.536  0.00  0.00    +0.000 A 
ATOM     27  C   UNL     1       4.341   4.657  16.929  0.00  0.00    +0.000 A 
ATOM     28  C   UNL     1       5.100   4.067  15.915  0.00  0.00    +0.000 A 
ATOM     29  C   UNL     1       6.282   4.670  15.501  0.00  0.00    +0.000 A 
ATOM     30  F   UNL     1       7.021   4.086  14.549  0.00  0.00    +0.000 F 
ATOM     31  C   UNL     1       6.713   5.861  16.068  0.00  0.00    +0.000 A 
ATOM     32  C   UNL     1       5.956   6.437  17.083  0.00  0.00    +0.000 A 
ATOM     33  F   UNL     1       6.404   7.563  17.653  0.00  0.00    +0.000 F 
ENDBRANCH  24  26
ENDBRANCH  11  24
TORSDOF 4
ENDMDL
MODEL 3
REMARK VINA RESULT:      -7.5      2.093      3.674
REMARK  Name = 
REMARK  4 active torsions:
REMARK  status: ('A' for Active; 'I' for Inactive)
REMARK    1  A    between atoms: C_2  and  C_3
REMARK    2  A    between atoms: N_8  and  C_9
REMARK    3  A    between atoms: C_16  and  C_17
REMARK    4  A    between atoms: C_17  and  C_19
REMARK                            x       y       z     vdW  Elec       q    Type
REMARK                         _______ _______ _______ _____ _____    ______ ____
ROOT
ATOM      1  C   UNL     1      -1.631  16.453  24.609  0.00  0.00    +0.000 A 
ATOM      2  C   UNL     1      -0.668  16.384  23.615  0.00  0.00    +0.000 A 
ATOM      3  C   UNL     1      -0.470  15.187  22.942  0.00  0.00    +0.000 A 
ATOM      4  N   UNL     1       0.460  15.093  21.975  0.00  0.00    +0.000 NA
ATOM      5  C   UNL     1       0.655  13.873  21.391  0.00  0.00    +0.000 A 
ATOM      6  N   UNL     1       1.686  13.766  20.420  0.00  0.00    +0.000 N 
ATOM      7  C   UNL     1      -0.096  12.724  21.798  0.00  0.00    +0.000 A 
ATOM      8  N   UNL     1      -0.003  11.433  21.280  0.00  0.00    +0.000 N 
ATOM      9  C   UNL     1       0.700  11.149  20.037  0.00  0.00    +0.000 C 
ATOM     10  C   UNL     1       0.171   9.859  19.413  0.00  0.00    +0.000 C 
ATOM     11  C   UNL     1       0.203   8.658  20.371  0.00  0.00    +0.000 C 
ATOM     12  C   UNL     1      -0.572   9.037  21.637  0.00  0.00    +0.000 C 
ATOM     13  C   UNL     1      -0.121  10.352  22.272  0.00  0.00    +0.000 C 
ATOM     14  N   UNL     1      -1.047  12.868  22.755  0.00  0.00    +0.000 NA
ATOM     15  C   UNL     1      -1.238  14.075  23.306  0.00  0.00    +0.000 A 
ATOM     16  C   UNL     1      -2.201  14.257  24.279  0.00  0.00    +0.000 A 
ATOM     17  N   UNL     1      -2.419  15.415  24.949  0.00  0.00    +0.000 NA
ATOM     18  H   UNL     1       2.383  13.125  20.794  0.00  0.00    +0.000 HD
ENDROOT
BRANCH   6  19
ATOM     19  C   UNL     1       2.222  14.956  19.751  0.00  0.00    +0.000 C 
ATOM     20  C   UNL     1       2.828  14.793  18.380  0.00  0.00    +0.000 C 
ATOM     21  C   UNL     1       1.545  15.548  18.545  0.00  0.00    +0.000 C 
ENDBRANCH   6  19
BRANCH   1  23
ATOM     22  N   UNL     1      -2.028  18.630  25.971  0.00  0.00    +0.000 NA
ATOM     23  C   UNL     1      -1.829  17.654  25.370  0.00  0.00    +0.000 C 
ENDBRANCH   1  23
BRANCH  11  24
ATOM     24  C   UNL     1       1.643   8.170  20.641  0.00  0.00    +0.000 C 
ATOM     25  F   UNL     1       1.834   8.080  21.992  0.00  0.00    +0.000 F 
BRANCH  24  26
ATOM     26  C   UNL     1       2.039   6.885  19.947  0.00  0.00    +0.000 A 
ATOM     27  C   UNL     1       1.949   5.656  20.624  0.00  0.00    +0.000 A 
ATOM     28  C   UNL     1       2.412   4.482  20.025  0.00  0.00    +0.000 A 
ATOM     29  C   UNL     1       2.958   4.531  18.747  0.00  0.00    +0.000 A 
ATOM     30  F   UNL     1       3.428   3.408  18.189  0.00  0.00    +0.000 F 
ATOM     31  C   UNL     1       3.037   5.727  18.049  0.00  0.00    +0.000 A 
ATOM     32  C   UNL     1       2.582   6.893  18.657  0.00  0.00    +0.000 A 
ATOM     33  F   UNL     1       2.701   8.049  17.990  0.00  0.00    +0.000 F 
ENDBRANCH  24  26
ENDBRANCH  11  24
TORSDOF 4
ENDMDL
MODEL 4
REMARK VINA RESULT:      -7.2      5.313      9.970
REMARK  Name = 
REMARK  4 active torsions:
REMARK  status: ('A' for Active; 'I' for Inactive)
REMARK    1  A    between atoms: C_2  and  C_3
REMARK    2  A    between atoms: N_8  and  C_9
REMARK    3  A    between atoms: C_16  and  C_17
REMARK    4  A    between atoms: C_17  and  C_19
REMARK                            x       y       z     vdW  Elec       q    Type
REMARK                         _______ _______ _______ _____ _____    ______ ____
ROOT
ATOM      1  C   UNL     1       1.466   9.161  19.279  0.00  0.00    +0.000 A 
ATOM      2  C   UNL     1       1.171  10.457  18.886  0.00  0.00    +0.000 A 
ATOM      3  C   UNL     1       0.371  11.248  19.696  0.00  0.00    +0.000 A 
ATOM      4  N   UNL     1       0.068  12.508  19.336  0.00  0.00    +0.000 NA
ATOM      5  C   UNL     1      -0.777  13.218  20.142  0.00  0.00    +0.000 A 
ATOM      6  N   UNL     1      -1.147  14.523  19.718  0.00  0.00    +0.000 N 
ATOM      7  C   UNL     1      -1.335  12.643  21.328  0.00  0.00    +0.000 A 
ATOM      8  N   UNL     1      -2.195  13.259  22.236  0.00  0.00    +0.000 N 
ATOM      9  C   UNL     1      -2.421  14.697  22.231  0.00  0.00    +0.000 C 
ATOM     10  C   UNL     1      -2.886  15.164  23.609  0.00  0.00    +0.000 C 
ATOM     11  C   UNL     1      -4.111  14.397  24.134  0.00  0.00    +0.000 C 
ATOM     12  C   UNL     1      -3.779  12.902  24.122  0.00  0.00    +0.000 C 
ATOM     13  C   UNL     1      -3.253  12.392  22.781  0.00  0.00    +0.000 C 
ATOM     14  N   UNL     1      -0.979  11.379  21.673  0.00  0.00    +0.000 NA
ATOM     15  C   UNL     1      -0.136  10.702  20.882  0.00  0.00    +0.000 A 
ATOM     16  C   UNL     1       0.250   9.416  21.206  0.00  0.00    +0.000 A 
ATOM     17  N   UNL     1       1.034   8.623  20.437  0.00  0.00    +0.000 NA
ATOM     18  H   UNL     1      -2.150  14.508  19.548  0.00  0.00    +0.000 HD
ENDROOT
BRANCH   6  19
ATOM     19  C   UNL     1      -0.351  15.250  18.725  0.00  0.00    +0.000 C 
ATOM     20  C   UNL     1      -0.521  16.745  18.627  0.00  0.00    +0.000 C 
ATOM     21  C   UNL     1       0.765  16.171  19.136  0.00  0.00    +0.000 C 
ENDBRANCH   6  19
BRANCH   1  23
ATOM     22  N   UNL     1       2.902   7.585  17.795  0.00  0.00    +0.000 NA
ATOM     23  C   UNL     1       2.242   8.289  18.444  0.00  0.00    +0.000 C 
ENDBRANCH   1  23
BRANCH  11  24
ATOM     24  C   UNL     1      -5.397  14.759  23.359  0.00  0.00    +0.000 C 
ATOM     25  F   UNL     1      -5.151  15.858  22.583  0.00  0.00    +0.000 F 
BRANCH  24  26
ATOM     26  C   UNL     1      -6.006  13.640  22.543  0.00  0.00    +0.000 A 
ATOM     27  C   UNL     1      -5.705  13.513  21.176  0.00  0.00    +0.000 A 
ATOM     28  C   UNL     1      -6.346  12.548  20.396  0.00  0.00    +0.000 A 
ATOM     29  C   UNL     1      -7.282  11.702  20.980  0.00  0.00    +0.000 A 
ATOM     30  F   UNL     1      -7.915  10.797  20.223  0.00  0.00    +0.000 F 
ATOM     31  C   UNL     1      -7.580  11.792  22.332  0.00  0.00    +0.000 A 
ATOM     32  C   UNL     1      -6.944  12.762  23.099  0.00  0.00    +0.000 A 
ATOM     33  F   UNL     1      -7.270  12.867  24.394  0.00  0.00    +0.000 F 
ENDBRANCH  24  26
ENDBRANCH  11  24
TORSDOF 4
ENDMDL
MODEL 5
REMARK VINA RESULT:      -7.1      5.207      7.445
REMARK  Name = 
REMARK  4 active torsions:
REMARK  status: ('A' for Active; 'I' for Inactive)
REMARK    1  A    between atoms: C_2  and  C_3
REMARK    2  A    between atoms: N_8  and  C_9
REMARK    3  A    between atoms: C_16  and  C_17
REMARK    4  A    between atoms: C_17  and  C_19
REMARK                            x       y       z     vdW  Elec       q    Type
REMARK                         _______ _______ _______ _____ _____    ______ ____
ROOT
ATOM      1  C   UNL     1      -5.590  13.061  23.328  0.00  0.00    +0.000 A 
ATOM      2  C   UNL     1      -5.454  12.777  21.979  0.00  0.00    +0.000 A 
ATOM      3  C   UNL     1      -4.184  12.667  21.433  0.00  0.00    +0.000 A 
ATOM      4  N   UNL     1      -4.023  12.395  20.125  0.00  0.00    +0.000 NA
ATOM      5  C   UNL     1      -2.750  12.363  19.629  0.00  0.00    +0.000 A 
ATOM      6  N   UNL     1      -2.594  12.144  18.235  0.00  0.00    +0.000 N 
ATOM      7  C   UNL     1      -1.618  12.620  20.467  0.00  0.00    +0.000 A 
ATOM      8  N   UNL     1      -0.276  12.607  20.091  0.00  0.00    +0.000 N 
ATOM      9  C   UNL     1       0.165  12.046  18.822  0.00  0.00    +0.000 C 
ATOM     10  C   UNL     1       1.631  11.624  18.911  0.00  0.00    +0.000 C 
ATOM     11  C   UNL     1       2.564  12.748  19.391  0.00  0.00    +0.000 C 
ATOM     12  C   UNL     1       2.037  13.263  20.734  0.00  0.00    +0.000 C 
ATOM     13  C   UNL     1       0.558  13.647  20.717  0.00  0.00    +0.000 C 
ATOM     14  N   UNL     1      -1.820  12.859  21.787  0.00  0.00    +0.000 NA
ATOM     15  C   UNL     1      -3.074  12.870  22.261  0.00  0.00    +0.000 A 
ATOM     16  C   UNL     1      -3.315  13.106  23.601  0.00  0.00    +0.000 A 
ATOM     17  N   UNL     1      -4.543  13.213  24.162  0.00  0.00    +0.000 NA
ATOM     18  H   UNL     1      -2.174  12.985  17.846  0.00  0.00    +0.000 HD
ENDROOT
BRANCH   6  19
ATOM     19  C   UNL     1      -3.671  11.552  17.436  0.00  0.00    +0.000 C 
ATOM     20  C   UNL     1      -3.436  11.341  15.961  0.00  0.00    +0.000 C 
ATOM     21  C   UNL     1      -3.557  10.161  16.875  0.00  0.00    +0.000 C 
ENDBRANCH   6  19
BRANCH   1  23
ATOM     22  N   UNL     1      -7.917  13.413  24.431  0.00  0.00    +0.000 NA
ATOM     23  C   UNL     1      -6.885  13.240  23.923  0.00  0.00    +0.000 C 
ENDBRANCH   1  23
BRANCH  11  24
ATOM     24  C   UNL     1       2.741  13.850  18.323  0.00  0.00    +0.000 C 
ATOM     25  F   UNL     1       1.530  14.443  18.095  0.00  0.00    +0.000 F 
BRANCH  24  26
ATOM     26  C   UNL     1       3.807  14.881  18.618  0.00  0.00    +0.000 A 
ATOM     27  C   UNL     1       3.474  16.081  19.270  0.00  0.00    +0.000 A 
ATOM     28  C   UNL     1       4.433  17.080  19.450  0.00  0.00    +0.000 A 
ATOM     29  C   UNL     1       5.728  16.881  18.986  0.00  0.00    +0.000 A 
ATOM     30  F   UNL     1       6.637  17.853  19.134  0.00  0.00    +0.000 F 
ATOM     31  C   UNL     1       6.089  15.697  18.360  0.00  0.00    +0.000 A 
ATOM     32  C   UNL     1       5.125  14.711  18.177  0.00  0.00    +0.000 A 
ATOM     33  F   UNL     1       5.474  13.588  17.533  0.00  0.00    +0.000 F 
ENDBRANCH  24  26
ENDBRANCH  11  24
TORSDOF 4
ENDMDL
MODEL 6
REMARK VINA RESULT:      -7.0      2.364      4.719
REMARK  Name = 
REMARK  4 active torsions:
REMARK  status: ('A' for Active; 'I' for Inactive)
REMARK    1  A    between atoms: C_2  and  C_3
REMARK    2  A    between atoms: N_8  and  C_9
REMARK    3  A    between atoms: C_16  and  C_17
REMARK    4  A    between atoms: C_17  and  C_19
REMARK                            x       y       z     vdW  Elec       q    Type
REMARK                         _______ _______ _______ _____ _____    ______ ____
ROOT
ATOM      1  C   UNL     1      -0.103  14.315  19.118  0.00  0.00    +0.000 A 
ATOM      2  C   UNL     1      -0.439  13.272  19.967  0.00  0.00    +0.000 A 
ATOM      3  C   UNL     1       0.218  12.057  19.844  0.00  0.00    +0.000 A 
ATOM      4  N   UNL     1      -0.091  11.027  20.653  0.00  0.00    +0.000 NA
ATOM      5  C   UNL     1       0.543   9.835  20.443  0.00  0.00    +0.000 A 
ATOM      6  N   UNL     1       0.161   8.736  21.257  0.00  0.00    +0.000 N 
ATOM      7  C   UNL     1       1.500   9.676  19.390  0.00  0.00    +0.000 A 
ATOM      8  N   UNL     1       2.220   8.524  19.078  0.00  0.00    +0.000 N 
ATOM      9  C   UNL     1       2.289   7.387  19.985  0.00  0.00    +0.000 C 
ATOM     10  C   UNL     1       3.547   6.566  19.708  0.00  0.00    +0.000 C 
ATOM     11  C   UNL     1       3.684   6.131  18.240  0.00  0.00    +0.000 C 
ATOM     12  C   UNL     1       3.620   7.386  17.364  0.00  0.00    +0.000 C 
ATOM     13  C   UNL     1       2.408   8.276  17.639  0.00  0.00    +0.000 C 
ATOM     14  N   UNL     1       1.807  10.747  18.616  0.00  0.00    +0.000 NA
ATOM     15  C   UNL     1       1.189  11.914  18.845  0.00  0.00    +0.000 A 
ATOM     16  C   UNL     1       1.481  13.025  18.078  0.00  0.00    +0.000 A 
ATOM     17  N   UNL     1       0.860  14.225  18.180  0.00  0.00    +0.000 NA
ATOM     18  H   UNL     1      -0.251   8.038  20.641  0.00  0.00    +0.000 HD
ENDROOT
BRANCH   6  19
ATOM     19  C   UNL     1      -0.538   8.943  22.529  0.00  0.00    +0.000 C 
ATOM     20  C   UNL     1       0.271   9.362  23.730  0.00  0.00    +0.000 C 
ATOM     21  C   UNL     1      -0.705  10.317  23.117  0.00  0.00    +0.000 C 
ENDBRANCH   6  19
BRANCH   1  23
ATOM     22  N   UNL     1      -1.370  16.579  19.255  0.00  0.00    +0.000 NA
ATOM     23  C   UNL     1      -0.797  15.571  19.173  0.00  0.00    +0.000 C 
ENDBRANCH   1  23
BRANCH  11  24
ATOM     24  C   UNL     1       2.652   5.047  17.858  0.00  0.00    +0.000 C 
ATOM     25  F   UNL     1       3.091   4.394  16.739  0.00  0.00    +0.000 F 
BRANCH  24  26
ATOM     26  C   UNL     1       2.295   4.069  18.956  0.00  0.00    +0.000 A 
ATOM     27  C   UNL     1       0.990   4.034  19.478  0.00  0.00    +0.000 A 
ATOM     28  C   UNL     1       0.682   3.208  20.561  0.00  0.00    +0.000 A 
ATOM     29  C   UNL     1       1.674   2.410  21.121  0.00  0.00    +0.000 A 
ATOM     30  F   UNL     1       1.382   1.642  22.178  0.00  0.00    +0.000 F 
ATOM     31  C   UNL     1       2.963   2.409  20.609  0.00  0.00    +0.000 A 
ATOM     32  C   UNL     1       3.263   3.241  19.536  0.00  0.00    +0.000 A 
ATOM     33  F   UNL     1       4.522   3.262  19.077  0.00  0.00    +0.000 F 
ENDBRANCH  24  26
ENDBRANCH  11  24
TORSDOF 4
ENDMDL
MODEL 7
REMARK VINA RESULT:      -7.0      1.153      1.557
REMARK  Name = 
REMARK  4 active torsions:
REMARK  status: ('A' for Active; 'I' for Inactive)
REMARK    1  A    between atoms: C_2  and  C_3
REMARK    2  A    between atoms: N_8  and  C_9
REMARK    3  A    between atoms: C_16  and  C_17
REMARK    4  A    between atoms: C_17  and  C_19
REMARK                            x       y       z     vdW  Elec       q    Type
REMARK                         _______ _______ _______ _____ _____    ______ ____
ROOT
ATOM      1  C   UNL     1      -1.730  13.726  23.594  0.00  0.00    +0.000 A 
ATOM      2  C   UNL     1      -0.666  14.052  22.767  0.00  0.00    +0.000 A 
ATOM      3  C   UNL     1      -0.166  13.098  21.894  0.00  0.00    +0.000 A 
ATOM      4  N   UNL     1       0.867  13.388  21.083  0.00  0.00    +0.000 NA
ATOM      5  C   UNL     1       1.359  12.389  20.291  0.00  0.00    +0.000 A 
ATOM      6  N   UNL     1       2.493  12.686  19.489  0.00  0.00    +0.000 N 
ATOM      7  C   UNL     1       0.804  11.070  20.325  0.00  0.00    +0.000 A 
ATOM      8  N   UNL     1       1.204   9.971  19.565  0.00  0.00    +0.000 N 
ATOM      9  C   UNL     1       2.083  10.109  18.413  0.00  0.00    +0.000 C 
ATOM     10  C   UNL     1       1.887   8.934  17.456  0.00  0.00    +0.000 C 
ATOM     11  C   UNL     1       2.044   7.562  18.131  0.00  0.00    +0.000 C 
ATOM     12  C   UNL     1       1.074   7.499  19.314  0.00  0.00    +0.000 C 
ATOM     13  C   UNL     1       1.187   8.682  20.275  0.00  0.00    +0.000 C 
ATOM     14  N   UNL     1      -0.258  10.826  21.134  0.00  0.00    +0.000 NA
ATOM     15  C   UNL     1      -0.739  11.820  21.892  0.00  0.00    +0.000 A 
ATOM     16  C   UNL     1      -1.822  11.607  22.723  0.00  0.00    +0.000 A 
ATOM     17  N   UNL     1      -2.335  12.522  23.581  0.00  0.00    +0.000 NA
ATOM     18  H   UNL     1       3.254  12.097  19.820  0.00  0.00    +0.000 HD
ENDROOT
BRANCH   6  19
ATOM     19  C   UNL     1       2.859  14.071  19.177  0.00  0.00    +0.000 C 
ATOM     20  C   UNL     1       4.024  14.312  18.250  0.00  0.00    +0.000 C 
ATOM     21  C   UNL     1       2.634  14.652  17.808  0.00  0.00    +0.000 C 
ENDBRANCH   6  19
BRANCH   1  23
ATOM     22  N   UNL     1      -2.623  15.448  25.322  0.00  0.00    +0.000 NA
ATOM     23  C   UNL     1      -2.241  14.664  24.553  0.00  0.00    +0.000 C 
ENDBRANCH   1  23
BRANCH  11  24
ATOM     24  C   UNL     1       3.513   7.266  18.507  0.00  0.00    +0.000 C 
ATOM     25  F   UNL     1       3.562   6.867  19.815  0.00  0.00    +0.000 F 
BRANCH  24  26
ATOM     26  C   UNL     1       4.234   6.285  17.610  0.00  0.00    +0.000 A 
ATOM     27  C   UNL     1       3.696   5.007  17.379  0.00  0.00    +0.000 A 
ATOM     28  C   UNL     1       4.408   4.061  16.638  0.00  0.00    +0.000 A 
ATOM     29  C   UNL     1       5.655   4.392  16.119  0.00  0.00    +0.000 A 
ATOM     30  F   UNL     1       6.348   3.473  15.434  0.00  0.00    +0.000 F 
ATOM     31  C   UNL     1       6.197   5.654  16.313  0.00  0.00    +0.000 A 
ATOM     32  C   UNL     1       5.485   6.586  17.060  0.00  0.00    +0.000 A 
ATOM     33  F   UNL     1       6.037   7.788  17.276  0.00  0.00    +0.000 F 
ENDBRANCH  24  26
ENDBRANCH  11  24
TORSDOF 4
ENDMDL
MODEL 8
REMARK VINA RESULT:      -6.9      5.011      7.870
REMARK  Name = 
REMARK  4 active torsions:
REMARK  status: ('A' for Active; 'I' for Inactive)
REMARK    1  A    between atoms: C_2  and  C_3
REMARK    2  A    between atoms: N_8  and  C_9
REMARK    3  A    between atoms: C_16  and  C_17
REMARK    4  A    between atoms: C_17  and  C_19
REMARK                            x       y       z     vdW  Elec       q    Type
REMARK                         _______ _______ _______ _____ _____    ______ ____
ROOT
ATOM      1  C   UNL     1      -4.952  12.577  20.088  0.00  0.00    +0.000 A 
ATOM      2  C   UNL     1      -3.914  11.816  19.574  0.00  0.00    +0.000 A 
ATOM      3  C   UNL     1      -2.617  12.302  19.642  0.00  0.00    +0.000 A 
ATOM      4  N   UNL     1      -1.591  11.585  19.148  0.00  0.00    +0.000 NA
ATOM      5  C   UNL     1      -0.344  12.142  19.185  0.00  0.00    +0.000 A 
ATOM      6  N   UNL     1       0.721  11.407  18.599  0.00  0.00    +0.000 N 
ATOM      7  C   UNL     1      -0.129  13.452  19.721  0.00  0.00    +0.000 A 
ATOM      8  N   UNL     1       1.086  14.127  19.826  0.00  0.00    +0.000 N 
ATOM      9  C   UNL     1       2.363  13.450  19.647  0.00  0.00    +0.000 C 
ATOM     10  C   UNL     1       3.472  14.214  20.369  0.00  0.00    +0.000 C 
ATOM     11  C   UNL     1       3.553  15.696  19.971  0.00  0.00    +0.000 C 
ATOM     12  C   UNL     1       2.179  16.329  20.209  0.00  0.00    +0.000 C 
ATOM     13  C   UNL     1       1.023  15.572  19.555  0.00  0.00    +0.000 C 
ATOM     14  N   UNL     1      -1.185  14.130  20.238  0.00  0.00    +0.000 NA
ATOM     15  C   UNL     1      -2.398  13.563  20.210  0.00  0.00    +0.000 A 
ATOM     16  C   UNL     1      -3.493  14.224  20.732  0.00  0.00    +0.000 A 
ATOM     17  N   UNL     1      -4.770  13.771  20.684  0.00  0.00    +0.000 NA
ATOM     18  H   UNL     1       1.061  11.953  17.811  0.00  0.00    +0.000 HD
ENDROOT
BRANCH   6  19
ATOM     19  C   UNL     1       0.605   9.965  18.362  0.00  0.00    +0.000 C 
ATOM     20  C   UNL     1       1.830   9.215  17.902  0.00  0.00    +0.000 C 
ATOM     21  C   UNL     1       1.270   8.966  19.269  0.00  0.00    +0.000 C 
ENDBRANCH   6  19
BRANCH   1  23
ATOM     22  N   UNL     1      -7.431  11.824  19.897  0.00  0.00    +0.000 NA
ATOM     23  C   UNL     1      -6.316  12.139  19.987  0.00  0.00    +0.000 C 
ENDBRANCH   1  23
BRANCH  11  24
ATOM     24  C   UNL     1       4.089  15.882  18.534  0.00  0.00    +0.000 C 
ATOM     25  F   UNL     1       3.648  17.082  18.050  0.00  0.00    +0.000 F 
BRANCH  24  26
ATOM     26  C   UNL     1       5.587  15.746  18.372  0.00  0.00    +0.000 A 
ATOM     27  C   UNL     1       6.136  14.587  17.796  0.00  0.00    +0.000 A 
ATOM     28  C   UNL     1       7.520  14.410  17.740  0.00  0.00    +0.000 A 
ATOM     29  C   UNL     1       8.360  15.393  18.252  0.00  0.00    +0.000 A 
ATOM     30  F   UNL     1       9.686  15.208  18.224  0.00  0.00    +0.000 F 
ATOM     31  C   UNL     1       7.843  16.557  18.805  0.00  0.00    +0.000 A 
ATOM     32  C   UNL     1       6.463  16.720  18.865  0.00  0.00    +0.000 A 
ATOM     33  F   UNL     1       5.976  17.827  19.439  0.00  0.00    +0.000 F 
ENDBRANCH  24  26
ENDBRANCH  11  24
TORSDOF 4
ENDMDL
MODEL 9
REMARK VINA RESULT:      -6.9      5.250      7.977
REMARK  Name = 
REMARK  4 active torsions:
REMARK  status: ('A' for Active; 'I' for Inactive)
REMARK    1  A    between atoms: C_2  and  C_3
REMARK    2  A    between atoms: N_8  and  C_9
REMARK    3  A    between atoms: C_16  and  C_17
REMARK    4  A    between atoms: C_17  and  C_19
REMARK                            x       y       z     vdW  Elec       q    Type
REMARK                         _______ _______ _______ _____ _____    ______ ____
ROOT
ATOM      1  C   UNL     1      -5.529  13.534  23.597  0.00  0.00    +0.000 A 
ATOM      2  C   UNL     1      -4.519  12.649  23.252  0.00  0.00    +0.000 A 
ATOM      3  C   UNL     1      -3.273  13.145  22.900  0.00  0.00    +0.000 A 
ATOM      4  N   UNL     1      -2.276  12.308  22.559  0.00  0.00    +0.000 NA
ATOM      5  C   UNL     1      -1.090  12.855  22.158  0.00  0.00    +0.000 A 
ATOM      6  N   UNL     1      -0.066  11.966  21.734  0.00  0.00    +0.000 N 
ATOM      7  C   UNL     1      -0.908  14.273  22.092  0.00  0.00    +0.000 A 
ATOM      8  N   UNL     1       0.247  14.955  21.713  0.00  0.00    +0.000 N 
ATOM      9  C   UNL     1       1.535  14.286  21.597  0.00  0.00    +0.000 C 
ATOM     10  C   UNL     1       2.671  15.295  21.759  0.00  0.00    +0.000 C 
ATOM     11  C   UNL     1       2.565  16.495  20.803  0.00  0.00    +0.000 C 
ATOM     12  C   UNL     1       1.194  17.145  21.006  0.00  0.00    +0.000 C 
ATOM     13  C   UNL     1       0.021  16.169  20.912  0.00  0.00    +0.000 C 
ATOM     14  N   UNL     1      -1.928  15.083  22.475  0.00  0.00    +0.000 NA
ATOM     15  C   UNL     1      -3.079  14.531  22.881  0.00  0.00    +0.000 A 
ATOM     16  C   UNL     1      -4.135  15.326  23.281  0.00  0.00    +0.000 A 
ATOM     17  N   UNL     1      -5.361  14.870  23.636  0.00  0.00    +0.000 NA
ATOM     18  H   UNL     1       0.104  12.156  20.749  0.00  0.00    +0.000 HD
ENDROOT
BRANCH   6  19
ATOM     19  C   UNL     1      -0.094  10.548  22.105  0.00  0.00    +0.000 C 
ATOM     20  C   UNL     1      -0.304   9.527  21.015  0.00  0.00    +0.000 C 
ATOM     21  C   UNL     1       1.019   9.614  21.713  0.00  0.00    +0.000 C 
ENDBRANCH   6  19
BRANCH   1  23
ATOM     22  N   UNL     1      -7.916  12.663  24.137  0.00  0.00    +0.000 NA
ATOM     23  C   UNL     1      -6.850  13.068  23.912  0.00  0.00    +0.000 C 
ENDBRANCH   1  23
BRANCH  11  24
ATOM     24  C   UNL     1       2.861  16.098  19.340  0.00  0.00    +0.000 C 
ATOM     25  F   UNL     1       2.270  17.008  18.507  0.00  0.00    +0.000 F 
BRANCH  24  26
ATOM     26  C   UNL     1       4.322  15.910  18.995  0.00  0.00    +0.000 A 
ATOM     27  C   UNL     1       5.259  16.909  19.309  0.00  0.00    +0.000 A 
ATOM     28  C   UNL     1       6.589  16.788  18.900  0.00  0.00    +0.000 A 
ATOM     29  C   UNL     1       6.987  15.665  18.182  0.00  0.00    +0.000 A 
ATOM     30  F   UNL     1       8.256  15.566  17.766  0.00  0.00    +0.000 F 
ATOM     31  C   UNL     1       6.087  14.654  17.880  0.00  0.00    +0.000 A 
ATOM     32  C   UNL     1       4.762  14.788  18.284  0.00  0.00    +0.000 A 
ATOM     33  F   UNL     1       3.893  13.826  17.949  0.00  0.00    +0.000 F 
ENDBRANCH  24  26
ENDBRANCH  11  24
TORSDOF 4
ENDMDL
