MODEL 1
REMARK VINA RESULT:      -9.1      0.000      0.000
REMARK  Name = 
REMARK  3 active torsions:
REMARK  status: ('A' for Active; 'I' for Inactive)
REMARK    1  A    between atoms: C_1  and  C_2
REMARK    2  A    between atoms: C_10  and  C_12
REMARK    3  A    between atoms: N_15  and  C_16
REMARK                            x       y       z     vdW  Elec       q    Type
REMARK                         _______ _______ _______ _____ _____    ______ ____
ROOT
ATOM      1  C   UNL     1       5.378   5.036  17.892  0.00  0.00    +0.000 A 
ATOM      2  C   UNL     1       6.741   4.902  18.258  0.00  0.00    +0.000 A 
ATOM      3  C   UNL     1       7.427   4.750  17.079  0.00  0.00    +0.000 A 
ATOM      4  N   UNL     1       6.493   4.755  16.072  0.00  0.00    +0.000 N 
ATOM      5  N   UNL     1       5.237   4.912  16.558  0.00  0.00    +0.000 NA
ENDROOT
BRANCH   1  15
ATOM      6  C   UNL     1       4.502   1.787  20.016  0.00  0.00    +0.000 C 
ATOM      7  C   UNL     1       3.863   2.680  18.955  0.00  0.00    +0.000 C 
ATOM      8  C   UNL     1       2.509   2.196  18.396  0.00  0.00    +0.000 C 
ATOM      9  O   UNL     1       2.120   2.490  17.267  0.00  0.00    +0.000 OA
ATOM     10  N   UNL     1       1.634   1.754  19.375  0.00  0.00    +0.000 N 
ATOM     11  C   UNL     1       0.664   2.731  19.822  0.00  0.00    +0.000 C 
ATOM     12  C   UNL     1       1.193   4.174  19.886  0.00  0.00    +0.000 C 
ATOM     13  C   UNL     1       2.614   4.305  20.454  0.00  0.00    +0.000 C 
ATOM     14  N   UNL     1       3.679   4.066  19.461  0.00  0.00    +0.000 N 
ATOM     15  C   UNL     1       4.256   5.196  18.846  0.00  0.00    +0.000 C 
ATOM     16  O   UNL     1       3.847   6.332  19.102  0.00  0.00    +0.000 OA
ATOM     17  H   UNL     1       2.056   1.238  20.134  0.00  0.00    +0.000 HD
ENDBRANCH   1  15
BRANCH   4  18
ATOM     18  C   UNL     1       6.711   4.591  14.674  0.00  0.00    +0.000 A 
ATOM     19  C   UNL     1       6.074   3.570  13.958  0.00  0.00    +0.000 A 
ATOM     20  C   UNL     1       6.273   3.470  12.581  0.00  0.00    +0.000 A 
ATOM     21  F   UNL     1       5.641   2.507  11.899  0.00  0.00    +0.000 F 
ATOM     22  C   UNL     1       7.103   4.353  11.903  0.00  0.00    +0.000 A 
ATOM     23  C   UNL     1       7.744   5.351  12.622  0.00  0.00    +0.000 A 
ATOM     24  F   UNL     1       8.550   6.208  11.981  0.00  0.00    +0.000 F 
ATOM     25  C   UNL     1       7.558   5.481  13.996  0.00  0.00    +0.000 A 
ENDBRANCH   4  18
TORSDOF 2
ENDMDL
MODEL 2
REMARK VINA RESULT:      -9.0      0.063      1.677
REMARK  Name = 
REMARK  3 active torsions:
REMARK  status: ('A' for Active; 'I' for Inactive)
REMARK    1  A    between atoms: C_1  and  C_2
REMARK    2  A    between atoms: C_10  and  C_12
REMARK    3  A    between atoms: N_15  and  C_16
REMARK                            x       y       z     vdW  Elec       q    Type
REMARK                         _______ _______ _______ _____ _____    ______ ____
ROOT
ATOM      1  C   UNL     1       5.385   5.019  17.879  0.00  0.00    +0.000 A 
ATOM      2  C   UNL     1       6.750   4.849  18.221  0.00  0.00    +0.000 A 
ATOM      3  C   UNL     1       7.417   4.721  17.028  0.00  0.00    +0.000 A 
ATOM      4  N   UNL     1       6.469   4.773  16.036  0.00  0.00    +0.000 N 
ATOM      5  N   UNL     1       5.223   4.938  16.545  0.00  0.00    +0.000 NA
ENDROOT
BRANCH   1  15
ATOM      6  C   UNL     1       4.488   1.727  19.927  0.00  0.00    +0.000 C 
ATOM      7  C   UNL     1       3.848   2.658  18.901  0.00  0.00    +0.000 C 
ATOM      8  C   UNL     1       2.479   2.210  18.349  0.00  0.00    +0.000 C 
ATOM      9  O   UNL     1       2.078   2.541  17.234  0.00  0.00    +0.000 OA
ATOM     10  N   UNL     1       1.611   1.756  19.328  0.00  0.00    +0.000 N 
ATOM     11  C   UNL     1       0.663   2.735  19.816  0.00  0.00    +0.000 C 
ATOM     12  C   UNL     1       1.216   4.167  19.911  0.00  0.00    +0.000 C 
ATOM     13  C   UNL     1       2.646   4.261  20.461  0.00  0.00    +0.000 C 
ATOM     14  N   UNL     1       3.693   4.033  19.446  0.00  0.00    +0.000 N 
ATOM     15  C   UNL     1       4.279   5.170  18.854  0.00  0.00    +0.000 C 
ATOM     16  O   UNL     1       3.892   6.304  19.146  0.00  0.00    +0.000 OA
ATOM     17  H   UNL     1       2.035   1.213  20.066  0.00  0.00    +0.000 HD
ENDBRANCH   1  15
BRANCH   4  18
ATOM     18  C   UNL     1       6.665   4.647  14.631  0.00  0.00    +0.000 A 
ATOM     19  C   UNL     1       7.531   5.506  13.942  0.00  0.00    +0.000 A 
ATOM     20  C   UNL     1       7.736   5.322  12.575  0.00  0.00    +0.000 A 
ATOM     21  F   UNL     1       8.584   6.131  11.928  0.00  0.00    +0.000 F 
ATOM     22  C   UNL     1       7.089   4.312  11.874  0.00  0.00    +0.000 A 
ATOM     23  C   UNL     1       6.219   3.477  12.560  0.00  0.00    +0.000 A 
ATOM     24  F   UNL     1       5.585   2.501  11.896  0.00  0.00    +0.000 F 
ATOM     25  C   UNL     1       6.001   3.631  13.927  0.00  0.00    +0.000 A 
ENDBRANCH   4  18
TORSDOF 2
ENDMDL
MODEL 3
REMARK VINA RESULT:      -8.5      1.395      1.731
REMARK  Name = 
REMARK  3 active torsions:
REMARK  status: ('A' for Active; 'I' for Inactive)
REMARK    1  A    between atoms: C_1  and  C_2
REMARK    2  A    between atoms: C_10  and  C_12
REMARK    3  A    between atoms: N_15  and  C_16
REMARK                            x       y       z     vdW  Elec       q    Type
REMARK                         _______ _______ _______ _____ _____    ______ ____
ROOT
ATOM      1  C   UNL     1       5.132   4.647  17.842  0.00  0.00    +0.000 A 
ATOM      2  C   UNL     1       4.928   6.030  17.606  0.00  0.00    +0.000 A 
ATOM      3  C   UNL     1       5.311   6.244  16.304  0.00  0.00    +0.000 A 
ATOM      4  N   UNL     1       5.758   5.039  15.819  0.00  0.00    +0.000 N 
ATOM      5  N   UNL     1       5.669   4.061  16.755  0.00  0.00    +0.000 NA
ENDROOT
BRANCH   1  15
ATOM      6  C   UNL     1       2.275   1.880  17.743  0.00  0.00    +0.000 C 
ATOM      7  C   UNL     1       2.551   3.231  18.397  0.00  0.00    +0.000 C 
ATOM      8  C   UNL     1       1.382   3.841  19.198  0.00  0.00    +0.000 C 
ATOM      9  O   UNL     1       1.256   5.054  19.358  0.00  0.00    +0.000 OA
ATOM     10  N   UNL     1       0.739   2.929  20.018  0.00  0.00    +0.000 N 
ATOM     11  C   UNL     1       1.177   2.924  21.398  0.00  0.00    +0.000 C 
ATOM     12  C   UNL     1       2.682   3.176  21.592  0.00  0.00    +0.000 C 
ATOM     13  C   UNL     1       3.583   2.450  20.582  0.00  0.00    +0.000 C 
ATOM     14  N   UNL     1       3.733   3.160  19.297  0.00  0.00    +0.000 N 
ATOM     15  C   UNL     1       4.880   3.962  19.131  0.00  0.00    +0.000 C 
ATOM     16  O   UNL     1       5.696   4.094  20.047  0.00  0.00    +0.000 OA
ATOM     17  H   UNL     1       0.630   2.001  19.634  0.00  0.00    +0.000 HD
ENDBRANCH   1  15
BRANCH   4  18
ATOM     18  C   UNL     1       6.293   4.759  14.530  0.00  0.00    +0.000 A 
ATOM     19  C   UNL     1       5.745   3.755  13.722  0.00  0.00    +0.000 A 
ATOM     20  C   UNL     1       6.264   3.542  12.445  0.00  0.00    +0.000 A 
ATOM     21  F   UNL     1       5.719   2.597  11.669  0.00  0.00    +0.000 F 
ATOM     22  C   UNL     1       7.324   4.295  11.958  0.00  0.00    +0.000 A 
ATOM     23  C   UNL     1       7.872   5.276  12.771  0.00  0.00    +0.000 A 
ATOM     24  F   UNL     1       8.898   6.009  12.315  0.00  0.00    +0.000 F 
ATOM     25  C   UNL     1       7.371   5.518  14.047  0.00  0.00    +0.000 A 
ENDBRANCH   4  18
TORSDOF 2
ENDMDL
MODEL 4
REMARK VINA RESULT:      -8.5      1.414      2.418
REMARK  Name = 
REMARK  3 active torsions:
REMARK  status: ('A' for Active; 'I' for Inactive)
REMARK    1  A    between atoms: C_1  and  C_2
REMARK    2  A    between atoms: C_10  and  C_12
REMARK    3  A    between atoms: N_15  and  C_16
REMARK                            x       y       z     vdW  Elec       q    Type
REMARK                         _______ _______ _______ _____ _____    ______ ____
ROOT
ATOM      1  C   UNL     1       5.083   4.662  17.860  0.00  0.00    +0.000 A 
ATOM      2  C   UNL     1       4.852   6.042  17.635  0.00  0.00    +0.000 A 
ATOM      3  C   UNL     1       5.221   6.271  16.332  0.00  0.00    +0.000 A 
ATOM      4  N   UNL     1       5.687   5.078  15.836  0.00  0.00    +0.000 N 
ATOM      5  N   UNL     1       5.622   4.093  16.766  0.00  0.00    +0.000 NA
ENDROOT
BRANCH   1  15
ATOM      6  C   UNL     1       2.240   1.878  17.775  0.00  0.00    +0.000 C 
ATOM      7  C   UNL     1       2.517   3.225  18.438  0.00  0.00    +0.000 C 
ATOM      8  C   UNL     1       1.356   3.822  19.260  0.00  0.00    +0.000 C 
ATOM      9  O   UNL     1       1.225   5.032  19.432  0.00  0.00    +0.000 OA
ATOM     10  N   UNL     1       0.730   2.898  20.081  0.00  0.00    +0.000 N 
ATOM     11  C   UNL     1       1.186   2.884  21.454  0.00  0.00    +0.000 C 
ATOM     12  C   UNL     1       2.692   3.143  21.630  0.00  0.00    +0.000 C 
ATOM     13  C   UNL     1       3.583   2.431  20.601  0.00  0.00    +0.000 C 
ATOM     14  N   UNL     1       3.712   3.153  19.321  0.00  0.00    +0.000 N 
ATOM     15  C   UNL     1       4.852   3.963  19.146  0.00  0.00    +0.000 C 
ATOM     16  O   UNL     1       5.679   4.093  20.052  0.00  0.00    +0.000 OA
ATOM     17  H   UNL     1       0.620   1.974  19.690  0.00  0.00    +0.000 HD
ENDBRANCH   1  15
BRANCH   4  18
ATOM     18  C   UNL     1       6.217   4.816  14.541  0.00  0.00    +0.000 A 
ATOM     19  C   UNL     1       7.332   5.516  14.061  0.00  0.00    +0.000 A 
ATOM     20  C   UNL     1       7.855   5.198  12.808  0.00  0.00    +0.000 A 
ATOM     21  F   UNL     1       8.936   5.853  12.367  0.00  0.00    +0.000 F 
ATOM     22  C   UNL     1       7.285   4.211  12.014  0.00  0.00    +0.000 A 
ATOM     23  C   UNL     1       6.171   3.535  12.489  0.00  0.00    +0.000 A 
ATOM     24  F   UNL     1       5.609   2.582  11.732  0.00  0.00    +0.000 F 
ATOM     25  C   UNL     1       5.632   3.824  13.740  0.00  0.00    +0.000 A 
ENDBRANCH   4  18
TORSDOF 2
ENDMDL
MODEL 5
REMARK VINA RESULT:      -8.1      4.570      7.639
REMARK  Name = 
REMARK  3 active torsions:
REMARK  status: ('A' for Active; 'I' for Inactive)
REMARK    1  A    between atoms: C_1  and  C_2
REMARK    2  A    between atoms: C_10  and  C_12
REMARK    3  A    between atoms: N_15  and  C_16
REMARK                            x       y       z     vdW  Elec       q    Type
REMARK                         _______ _______ _______ _____ _____    ______ ____
ROOT
ATOM      1  C   UNL     1       3.233   4.797  18.478  0.00  0.00    +0.000 A 
ATOM      2  C   UNL     1       3.154   4.332  19.815  0.00  0.00    +0.000 A 
ATOM      3  C   UNL     1       2.577   5.353  20.529  0.00  0.00    +0.000 A 
ATOM      4  N   UNL     1       2.369   6.386  19.648  0.00  0.00    +0.000 N 
ATOM      5  N   UNL     1       2.781   6.063  18.396  0.00  0.00    +0.000 NA
ENDROOT
BRANCH   1  15
ATOM      6  C   UNL     1       7.207   4.858  18.286  0.00  0.00    +0.000 C 
ATOM      7  C   UNL     1       6.005   5.337  17.477  0.00  0.00    +0.000 C 
ATOM      8  C   UNL     1       6.327   6.214  16.249  0.00  0.00    +0.000 C 
ATOM      9  O   UNL     1       5.535   7.044  15.806  0.00  0.00    +0.000 OA
ATOM     10  N   UNL     1       7.375   5.727  15.483  0.00  0.00    +0.000 N 
ATOM     11  C   UNL     1       6.986   4.936  14.336  0.00  0.00    +0.000 C 
ATOM     12  C   UNL     1       5.748   4.051  14.560  0.00  0.00    +0.000 C 
ATOM     13  C   UNL     1       5.708   3.349  15.926  0.00  0.00    +0.000 C 
ATOM     14  N   UNL     1       5.178   4.191  17.015  0.00  0.00    +0.000 N 
ATOM     15  C   UNL     1       3.816   4.036  17.349  0.00  0.00    +0.000 C 
ATOM     16  O   UNL     1       3.096   3.259  16.718  0.00  0.00    +0.000 OA
ATOM     17  H   UNL     1       8.140   5.322  16.003  0.00  0.00    +0.000 HD
ENDBRANCH   1  15
BRANCH   4  18
ATOM     18  C   UNL     1       1.829   7.674  19.921  0.00  0.00    +0.000 A 
ATOM     19  C   UNL     1       1.704   8.635  18.910  0.00  0.00    +0.000 A 
ATOM     20  C   UNL     1       1.124   9.869  19.203  0.00  0.00    +0.000 A 
ATOM     21  F   UNL     1       0.985  10.774  18.226  0.00  0.00    +0.000 F 
ATOM     22  C   UNL     1       0.680  10.175  20.483  0.00  0.00    +0.000 A 
ATOM     23  C   UNL     1       0.823   9.225  21.483  0.00  0.00    +0.000 A 
ATOM     24  F   UNL     1       0.401   9.507  22.723  0.00  0.00    +0.000 F 
ATOM     25  C   UNL     1       1.390   7.980  21.218  0.00  0.00    +0.000 A 
ENDBRANCH   4  18
TORSDOF 2
ENDMDL
MODEL 6
REMARK VINA RESULT:      -8.1      4.551      7.565
REMARK  Name = 
REMARK  3 active torsions:
REMARK  status: ('A' for Active; 'I' for Inactive)
REMARK    1  A    between atoms: C_1  and  C_2
REMARK    2  A    between atoms: C_10  and  C_12
REMARK    3  A    between atoms: N_15  and  C_16
REMARK                            x       y       z     vdW  Elec       q    Type
REMARK                         _______ _______ _______ _____ _____    ______ ____
ROOT
ATOM      1  C   UNL     1       3.229   4.787  18.484  0.00  0.00    +0.000 A 
ATOM      2  C   UNL     1       3.165   4.334  19.825  0.00  0.00    +0.000 A 
ATOM      3  C   UNL     1       2.575   5.352  20.532  0.00  0.00    +0.000 A 
ATOM      4  N   UNL     1       2.343   6.372  19.641  0.00  0.00    +0.000 N 
ATOM      5  N   UNL     1       2.754   6.044  18.391  0.00  0.00    +0.000 NA
ENDROOT
BRANCH   1  15
ATOM      6  C   UNL     1       7.203   4.882  18.294  0.00  0.00    +0.000 C 
ATOM      7  C   UNL     1       5.998   5.346  17.481  0.00  0.00    +0.000 C 
ATOM      8  C   UNL     1       6.313   6.219  16.248  0.00  0.00    +0.000 C 
ATOM      9  O   UNL     1       5.514   7.039  15.800  0.00  0.00    +0.000 OA
ATOM     10  N   UNL     1       7.365   5.737  15.486  0.00  0.00    +0.000 N 
ATOM     11  C   UNL     1       6.984   4.936  14.343  0.00  0.00    +0.000 C 
ATOM     12  C   UNL     1       5.753   4.041  14.571  0.00  0.00    +0.000 C 
ATOM     13  C   UNL     1       5.719   3.347  15.941  0.00  0.00    +0.000 C 
ATOM     14  N   UNL     1       5.180   4.190  17.025  0.00  0.00    +0.000 N 
ATOM     15  C   UNL     1       3.820   4.025  17.359  0.00  0.00    +0.000 C 
ATOM     16  O   UNL     1       3.108   3.238  16.732  0.00  0.00    +0.000 OA
ATOM     17  H   UNL     1       8.134   5.342  16.009  0.00  0.00    +0.000 HD
ENDBRANCH   1  15
BRANCH   4  18
ATOM     18  C   UNL     1       1.781   7.653  19.904  0.00  0.00    +0.000 A 
ATOM     19  C   UNL     1       1.311   7.989  21.180  0.00  0.00    +0.000 A 
ATOM     20  C   UNL     1       0.812   9.270  21.414  0.00  0.00    +0.000 A 
ATOM     21  F   UNL     1       0.388   9.592  22.642  0.00  0.00    +0.000 F 
ATOM     22  C   UNL     1       0.757  10.221  20.403  0.00  0.00    +0.000 A 
ATOM     23  C   UNL     1       1.208   9.876  19.138  0.00  0.00    +0.000 A 
ATOM     24  F   UNL     1       1.158  10.783  18.152  0.00  0.00    +0.000 F 
ATOM     25  C   UNL     1       1.719   8.607  18.877  0.00  0.00    +0.000 A 
ENDBRANCH   4  18
TORSDOF 2
ENDMDL
MODEL 7
REMARK VINA RESULT:      -8.0      5.815      8.270
REMARK  Name = 
REMARK  3 active torsions:
REMARK  status: ('A' for Active; 'I' for Inactive)
REMARK    1  A    between atoms: C_1  and  C_2
REMARK    2  A    between atoms: C_10  and  C_12
REMARK    3  A    between atoms: N_15  and  C_16
REMARK                            x       y       z     vdW  Elec       q    Type
REMARK                         _______ _______ _______ _____ _____    ______ ____
ROOT
ATOM      1  C   UNL     1       2.790   7.471  18.524  0.00  0.00    +0.000 A 
ATOM      2  C   UNL     1       2.273   8.300  17.497  0.00  0.00    +0.000 A 
ATOM      3  C   UNL     1       1.428   9.182  18.125  0.00  0.00    +0.000 A 
ATOM      4  N   UNL     1       1.425   8.850  19.457  0.00  0.00    +0.000 N 
ATOM      5  N   UNL     1       2.240   7.795  19.709  0.00  0.00    +0.000 NA
ENDROOT
BRANCH   1  15
ATOM      6  C   UNL     1       1.068   3.943  17.873  0.00  0.00    +0.000 C 
ATOM      7  C   UNL     1       1.953   4.620  18.916  0.00  0.00    +0.000 C 
ATOM      8  C   UNL     1       2.230   3.804  20.195  0.00  0.00    +0.000 C 
ATOM      9  O   UNL     1       2.480   4.336  21.275  0.00  0.00    +0.000 OA
ATOM     10  N   UNL     1       2.552   2.479  19.945  0.00  0.00    +0.000 N 
ATOM     11  C   UNL     1       3.968   2.184  19.910  0.00  0.00    +0.000 C 
ATOM     12  C   UNL     1       4.838   3.294  19.297  0.00  0.00    +0.000 C 
ATOM     13  C   UNL     1       4.240   3.949  18.043  0.00  0.00    +0.000 C 
ATOM     14  N   UNL     1       3.262   5.015  18.333  0.00  0.00    +0.000 N 
ATOM     15  C   UNL     1       3.729   6.345  18.311  0.00  0.00    +0.000 C 
ATOM     16  O   UNL     1       4.920   6.593  18.103  0.00  0.00    +0.000 OA
ATOM     17  H   UNL     1       2.037   2.042  19.194  0.00  0.00    +0.000 HD
ENDBRANCH   1  15
BRANCH   4  18
ATOM     18  C   UNL     1       0.674   9.450  20.507  0.00  0.00    +0.000 A 
ATOM     19  C   UNL     1       0.784   8.994  21.827  0.00  0.00    +0.000 A 
ATOM     20  C   UNL     1       0.072   9.638  22.838  0.00  0.00    +0.000 A 
ATOM     21  F   UNL     1       0.201   9.212  24.101  0.00  0.00    +0.000 F 
ATOM     22  C   UNL     1      -0.759  10.717  22.565  0.00  0.00    +0.000 A 
ATOM     23  C   UNL     1      -0.876  11.152  21.253  0.00  0.00    +0.000 A 
ATOM     24  F   UNL     1      -1.676  12.190  20.974  0.00  0.00    +0.000 F 
ATOM     25  C   UNL     1      -0.170  10.534  20.223  0.00  0.00    +0.000 A 
ENDBRANCH   4  18
TORSDOF 2
ENDMDL
MODEL 8
REMARK VINA RESULT:      -7.9      5.821      8.309
REMARK  Name = 
REMARK  3 active torsions:
REMARK  status: ('A' for Active; 'I' for Inactive)
REMARK    1  A    between atoms: C_1  and  C_2
REMARK    2  A    between atoms: C_10  and  C_12
REMARK    3  A    between atoms: N_15  and  C_16
REMARK                            x       y       z     vdW  Elec       q    Type
REMARK                         _______ _______ _______ _____ _____    ______ ____
ROOT
ATOM      1  C   UNL     1       2.777   7.477  18.519  0.00  0.00    +0.000 A 
ATOM      2  C   UNL     1       2.237   8.273  17.478  0.00  0.00    +0.000 A 
ATOM      3  C   UNL     1       1.401   9.171  18.094  0.00  0.00    +0.000 A 
ATOM      4  N   UNL     1       1.426   8.880  19.436  0.00  0.00    +0.000 N 
ATOM      5  N   UNL     1       2.250   7.836  19.705  0.00  0.00    +0.000 NA
ENDROOT
BRANCH   1  15
ATOM      6  C   UNL     1       1.056   3.950  17.862  0.00  0.00    +0.000 C 
ATOM      7  C   UNL     1       1.929   4.630  18.913  0.00  0.00    +0.000 C 
ATOM      8  C   UNL     1       2.189   3.818  20.199  0.00  0.00    +0.000 C 
ATOM      9  O   UNL     1       2.428   4.355  21.279  0.00  0.00    +0.000 OA
ATOM     10  N   UNL     1       2.511   2.492  19.958  0.00  0.00    +0.000 N 
ATOM     11  C   UNL     1       3.927   2.193  19.942  0.00  0.00    +0.000 C 
ATOM     12  C   UNL     1       4.807   3.300  19.334  0.00  0.00    +0.000 C 
ATOM     13  C   UNL     1       4.226   3.950  18.070  0.00  0.00    +0.000 C 
ATOM     14  N   UNL     1       3.247   5.020  18.344  0.00  0.00    +0.000 N 
ATOM     15  C   UNL     1       3.717   6.349  18.322  0.00  0.00    +0.000 C 
ATOM     16  O   UNL     1       4.910   6.593  18.127  0.00  0.00    +0.000 OA
ATOM     17  H   UNL     1       2.005   2.053  19.203  0.00  0.00    +0.000 HD
ENDBRANCH   1  15
BRANCH   4  18
ATOM     18  C   UNL     1       0.694   9.510  20.482  0.00  0.00    +0.000 A 
ATOM     19  C   UNL     1      -0.185  10.567  20.215  0.00  0.00    +0.000 A 
ATOM     20  C   UNL     1      -0.923  11.128  21.257  0.00  0.00    +0.000 A 
ATOM     21  F   UNL     1      -1.779  12.121  20.990  0.00  0.00    +0.000 F 
ATOM     22  C   UNL     1      -0.795  10.671  22.562  0.00  0.00    +0.000 A 
ATOM     23  C   UNL     1       0.091   9.636  22.822  0.00  0.00    +0.000 A 
ATOM     24  F   UNL     1       0.227   9.187  24.078  0.00  0.00    +0.000 F 
ATOM     25  C   UNL     1       0.834   9.050  21.801  0.00  0.00    +0.000 A 
ENDBRANCH   4  18
TORSDOF 2
ENDMDL
MODEL 9
REMARK VINA RESULT:      -7.6      4.994      7.595
REMARK  Name = 
REMARK  3 active torsions:
REMARK  status: ('A' for Active; 'I' for Inactive)
REMARK    1  A    between atoms: C_1  and  C_2
REMARK    2  A    between atoms: C_10  and  C_12
REMARK    3  A    between atoms: N_15  and  C_16
REMARK                            x       y       z     vdW  Elec       q    Type
REMARK                         _______ _______ _______ _____ _____    ______ ____
ROOT
ATOM      1  C   UNL     1       2.691   5.869  18.616  0.00  0.00    +0.000 A 
ATOM      2  C   UNL     1       2.402   5.712  19.995  0.00  0.00    +0.000 A 
ATOM      3  C   UNL     1       1.878   6.913  20.402  0.00  0.00    +0.000 A 
ATOM      4  N   UNL     1       1.901   7.747  19.311  0.00  0.00    +0.000 N 
ATOM      5  N   UNL     1       2.412   7.125  18.219  0.00  0.00    +0.000 NA
ENDROOT
BRANCH   1  15
ATOM      6  C   UNL     1       6.624   5.434  19.039  0.00  0.00    +0.000 C 
ATOM      7  C   UNL     1       5.619   5.871  17.977  0.00  0.00    +0.000 C 
ATOM      8  C   UNL     1       6.221   6.433  16.672  0.00  0.00    +0.000 C 
ATOM      9  O   UNL     1       5.620   7.238  15.964  0.00  0.00    +0.000 OA
ATOM     10  N   UNL     1       7.279   5.682  16.185  0.00  0.00    +0.000 N 
ATOM     11  C   UNL     1       6.934   4.721  15.159  0.00  0.00    +0.000 C 
ATOM     12  C   UNL     1       5.563   4.049  15.349  0.00  0.00    +0.000 C 
ATOM     13  C   UNL     1       5.246   3.653  16.799  0.00  0.00    +0.000 C 
ATOM     14  N   UNL     1       4.704   4.756  17.614  0.00  0.00    +0.000 N 
ATOM     15  C   UNL     1       3.302   4.830  17.755  0.00  0.00    +0.000 C 
ATOM     16  O   UNL     1       2.567   4.026  17.176  0.00  0.00    +0.000 OA
ATOM     17  H   UNL     1       7.904   5.309  16.884  0.00  0.00    +0.000 HD
ENDBRANCH   1  15
BRANCH   4  18
ATOM     18  C   UNL     1       1.496   9.111  19.242  0.00  0.00    +0.000 A 
ATOM     19  C   UNL     1       0.448   9.594  20.035  0.00  0.00    +0.000 A 
ATOM     20  C   UNL     1       0.111  10.946  19.978  0.00  0.00    +0.000 A 
ATOM     21  F   UNL     1      -0.876  11.407  20.756  0.00  0.00    +0.000 F 
ATOM     22  C   UNL     1       0.784  11.826  19.139  0.00  0.00    +0.000 A 
ATOM     23  C   UNL     1       1.809  11.336  18.344  0.00  0.00    +0.000 A 
ATOM     24  F   UNL     1       2.465  12.172  17.528  0.00  0.00    +0.000 F 
ATOM     25  C   UNL     1       2.174   9.992  18.386  0.00  0.00    +0.000 A 
ENDBRANCH   4  18
TORSDOF 2
ENDMDL
