MODEL 1
REMARK VINA RESULT:      -8.1      0.000      0.000
REMARK  Name = 
REMARK  9 active torsions:
REMARK  status: ('A' for Active; 'I' for Inactive)
REMARK    1  A    between atoms: C_1  and  C_2
REMARK    2  A    between atoms: C_4  and  O_5
REMARK    3  A    between atoms: O_5  and  C_6
REMARK    4  A    between atoms: C_6  and  C_7
REMARK    5  A    between atoms: C_7  and  O_8
REMARK    6  A    between atoms: C_7  and  C_9
REMARK    7  A    between atoms: C_9  and  C_10
REMARK    8  A    between atoms: C_10  and  N_11
REMARK    9  A    between atoms: N_14  and  C_15
REMARK                            x       y       z     vdW  Elec       q    Type
REMARK                         _______ _______ _______ _____ _____    ______ ____
ROOT
ATOM      1  C   UNL     1       6.874   7.409  17.305  0.00  0.00    +0.000 C 
ENDROOT
BRANCH   1   2
ATOM      2  C   UNL     1       8.235   7.923  17.800  0.00  0.00    +0.000 C 
BRANCH   2   3
ATOM      3  O   UNL     1       8.542   7.204  19.007  0.00  0.00    +0.000 OA
ATOM      4  H   UNL     1       7.870   6.514  19.136  0.00  0.00    +0.000 HD
ENDBRANCH   2   3
BRANCH   2   5
ATOM      5  C   UNL     1       8.208   9.438  18.050  0.00  0.00    +0.000 C 
BRANCH   5   6
ATOM      6  O   UNL     1       8.925   9.775  19.237  0.00  0.00    +0.000 OA
BRANCH   6  10
ATOM      7  C   UNL     1      11.396  13.263  16.704  0.00  0.00    +0.000 C 
ATOM      8  C   UNL     1      10.966  12.646  18.001  0.00  0.00    +0.000 A 
ATOM      9  C   UNL     1      10.151  11.497  17.975  0.00  0.00    +0.000 A 
ATOM     10  C   UNL     1       9.723  10.888  19.161  0.00  0.00    +0.000 A 
ATOM     11  C   UNL     1      10.111  11.429  20.379  0.00  0.00    +0.000 A 
ATOM     12  C   UNL     1      10.919  12.565  20.429  0.00  0.00    +0.000 A 
ATOM     13  C   UNL     1      11.343  13.172  19.246  0.00  0.00    +0.000 A 
ATOM     14 CL   UNL     1      12.333  14.581  19.360  0.00  0.00    +0.000 Cl
ENDBRANCH   6  10
ENDBRANCH   5   6
ENDBRANCH   2   5
ENDBRANCH   1   2
BRANCH   1  15
ATOM     15  C   UNL     1       6.903   6.033  16.605  0.00  0.00    +0.000 C 
BRANCH  15  16
ATOM     16  N   UNL     1       6.478   4.945  17.492  0.00  0.00    +0.000 NA
ATOM     17  C   UNL     1       5.717   5.434  18.661  0.00  0.00    +0.000 C 
ATOM     18  C   UNL     1       4.294   5.893  18.304  0.00  0.00    +0.000 C 
ATOM     19  N   UNL     1       3.517   4.749  17.818  0.00  0.00    +0.000 N 
ATOM     20  C   UNL     1       4.132   4.024  16.689  0.00  0.00    +0.000 C 
ATOM     21  C   UNL     1       5.687   3.883  16.815  0.00  0.00    +0.000 C 
BRANCH  19  22
ATOM     22  C   UNL     1       2.635   4.114  18.684  0.00  0.00    +0.000 A 
ATOM     23  C   UNL     1       1.825   4.857  19.554  0.00  0.00    +0.000 A 
ATOM     24  C   UNL     1       1.037   4.232  20.533  0.00  0.00    +0.000 A 
ATOM     25  C   UNL     1       1.024   2.846  20.646  0.00  0.00    +0.000 A 
ATOM     26  C   UNL     1       1.786   2.083  19.771  0.00  0.00    +0.000 A 
ATOM     27  C   UNL     1       2.575   2.715  18.807  0.00  0.00    +0.000 A 
ENDBRANCH  19  22
ENDBRANCH  15  16
ENDBRANCH   1  15
TORSDOF 8
ENDMDL
MODEL 2
REMARK VINA RESULT:      -7.6      1.370      1.961
REMARK  Name = 
REMARK  9 active torsions:
REMARK  status: ('A' for Active; 'I' for Inactive)
REMARK    1  A    between atoms: C_1  and  C_2
REMARK    2  A    between atoms: C_4  and  O_5
REMARK    3  A    between atoms: O_5  and  C_6
REMARK    4  A    between atoms: C_6  and  C_7
REMARK    5  A    between atoms: C_7  and  O_8
REMARK    6  A    between atoms: C_7  and  C_9
REMARK    7  A    between atoms: C_9  and  C_10
REMARK    8  A    between atoms: C_10  and  N_11
REMARK    9  A    between atoms: N_14  and  C_15
REMARK                            x       y       z     vdW  Elec       q    Type
REMARK                         _______ _______ _______ _____ _____    ______ ____
ROOT
ATOM      1  C   UNL     1       6.908   7.489  17.383  0.00  0.00    +0.000 C 
ENDROOT
BRANCH   1   2
ATOM      2  C   UNL     1       8.256   8.022  17.892  0.00  0.00    +0.000 C 
BRANCH   2   3
ATOM      3  O   UNL     1       8.543   7.334  19.121  0.00  0.00    +0.000 OA
ATOM      4  H   UNL     1       9.441   7.573  19.408  0.00  0.00    +0.000 HD
ENDBRANCH   2   3
BRANCH   2   5
ATOM      5  C   UNL     1       8.216   9.543  18.105  0.00  0.00    +0.000 C 
BRANCH   5   6
ATOM      6  O   UNL     1       9.508  10.046  18.446  0.00  0.00    +0.000 OA
BRANCH   6  10
ATOM      7  C   UNL     1       7.971  14.749  17.978  0.00  0.00    +0.000 C 
ATOM      8  C   UNL     1       9.059  13.718  17.936  0.00  0.00    +0.000 A 
ATOM      9  C   UNL     1       8.738  12.373  18.211  0.00  0.00    +0.000 A 
ATOM     10  C   UNL     1       9.721  11.376  18.186  0.00  0.00    +0.000 A 
ATOM     11  C   UNL     1      11.031  11.724  17.885  0.00  0.00    +0.000 A 
ATOM     12  C   UNL     1      11.371  13.048  17.608  0.00  0.00    +0.000 A 
ATOM     13  C   UNL     1      10.390  14.041  17.635  0.00  0.00    +0.000 A 
ATOM     14 CL   UNL     1      10.863  15.665  17.295  0.00  0.00    +0.000 Cl
ENDBRANCH   6  10
ENDBRANCH   5   6
ENDBRANCH   2   5
ENDBRANCH   1   2
BRANCH   1  15
ATOM     15  C   UNL     1       6.947   6.073  16.769  0.00  0.00    +0.000 C 
BRANCH  15  16
ATOM     16  N   UNL     1       5.607   5.533  16.522  0.00  0.00    +0.000 NA
ATOM     17  C   UNL     1       5.442   4.164  17.054  0.00  0.00    +0.000 C 
ATOM     18  C   UNL     1       5.333   4.123  18.588  0.00  0.00    +0.000 C 
ATOM     19  N   UNL     1       4.120   4.827  19.012  0.00  0.00    +0.000 N 
ATOM     20  C   UNL     1       4.007   6.212  18.517  0.00  0.00    +0.000 C 
ATOM     21  C   UNL     1       4.503   6.385  17.041  0.00  0.00    +0.000 C 
BRANCH  19  22
ATOM     22  C   UNL     1       2.990   4.087  19.341  0.00  0.00    +0.000 A 
ATOM     23  C   UNL     1       2.230   3.458  18.345  0.00  0.00    +0.000 A 
ATOM     24  C   UNL     1       1.011   2.830  18.643  0.00  0.00    +0.000 A 
ATOM     25  C   UNL     1       0.537   2.798  19.950  0.00  0.00    +0.000 A 
ATOM     26  C   UNL     1       1.288   3.378  20.963  0.00  0.00    +0.000 A 
ATOM     27  C   UNL     1       2.496   4.009  20.655  0.00  0.00    +0.000 A 
ENDBRANCH  19  22
ENDBRANCH  15  16
ENDBRANCH   1  15
TORSDOF 8
ENDMDL
MODEL 3
REMARK VINA RESULT:      -7.5      5.435      7.801
REMARK  Name = 
REMARK  9 active torsions:
REMARK  status: ('A' for Active; 'I' for Inactive)
REMARK    1  A    between atoms: C_1  and  C_2
REMARK    2  A    between atoms: C_4  and  O_5
REMARK    3  A    between atoms: O_5  and  C_6
REMARK    4  A    between atoms: C_6  and  C_7
REMARK    5  A    between atoms: C_7  and  O_8
REMARK    6  A    between atoms: C_7  and  C_9
REMARK    7  A    between atoms: C_9  and  C_10
REMARK    8  A    between atoms: C_10  and  N_11
REMARK    9  A    between atoms: N_14  and  C_15
REMARK                            x       y       z     vdW  Elec       q    Type
REMARK                         _______ _______ _______ _____ _____    ______ ____
ROOT
ATOM      1  C   UNL     1       2.177   2.620  20.910  0.00  0.00    +0.000 C 
ENDROOT
BRANCH   1   2
ATOM      2  C   UNL     1       1.401   3.914  21.205  0.00  0.00    +0.000 C 
BRANCH   2   3
ATOM      3  O   UNL     1       0.394   4.041  20.186  0.00  0.00    +0.000 OA
ATOM      4  H   UNL     1       0.144   3.151  19.886  0.00  0.00    +0.000 HD
ENDBRANCH   2   3
BRANCH   2   5
ATOM      5  C   UNL     1       2.330   5.137  21.222  0.00  0.00    +0.000 C 
BRANCH   5   6
ATOM      6  O   UNL     1       2.510   5.662  19.907  0.00  0.00    +0.000 OA
BRANCH   6  10
ATOM      7  C   UNL     1       0.371   9.878  21.438  0.00  0.00    +0.000 C 
ATOM      8  C   UNL     1       1.058   9.069  20.379  0.00  0.00    +0.000 A 
ATOM      9  C   UNL     1       1.444   7.745  20.672  0.00  0.00    +0.000 A 
ATOM     10  C   UNL     1       2.091   6.954  19.714  0.00  0.00    +0.000 A 
ATOM     11  C   UNL     1       2.353   7.486  18.459  0.00  0.00    +0.000 A 
ATOM     12  C   UNL     1       1.978   8.793  18.147  0.00  0.00    +0.000 A 
ATOM     13  C   UNL     1       1.336   9.582  19.103  0.00  0.00    +0.000 A 
ATOM     14 CL   UNL     1       0.901  11.195  18.672  0.00  0.00    +0.000 Cl
ENDBRANCH   6  10
ENDBRANCH   5   6
ENDBRANCH   2   5
ENDBRANCH   1   2
BRANCH   1  15
ATOM     15  C   UNL     1       1.810   1.916  19.586  0.00  0.00    +0.000 C 
BRANCH  15  16
ATOM     16  N   UNL     1       2.990   1.600  18.775  0.00  0.00    +0.000 NA
ATOM     17  C   UNL     1       2.877   2.109  17.391  0.00  0.00    +0.000 C 
ATOM     18  C   UNL     1       3.040   3.634  17.295  0.00  0.00    +0.000 C 
ATOM     19  N   UNL     1       4.393   4.011  17.710  0.00  0.00    +0.000 N 
ATOM     20  C   UNL     1       4.782   3.527  19.048  0.00  0.00    +0.000 C 
ATOM     21  C   UNL     1       4.273   2.078  19.357  0.00  0.00    +0.000 C 
BRANCH  19  22
ATOM     22  C   UNL     1       5.349   4.277  16.736  0.00  0.00    +0.000 A 
ATOM     23  C   UNL     1       6.271   5.319  16.902  0.00  0.00    +0.000 A 
ATOM     24  C   UNL     1       7.146   5.694  15.870  0.00  0.00    +0.000 A 
ATOM     25  C   UNL     1       7.132   5.016  14.656  0.00  0.00    +0.000 A 
ATOM     26  C   UNL     1       6.256   3.954  14.477  0.00  0.00    +0.000 A 
ATOM     27  C   UNL     1       5.382   3.595  15.507  0.00  0.00    +0.000 A 
ENDBRANCH  19  22
ENDBRANCH  15  16
ENDBRANCH   1  15
TORSDOF 8
ENDMDL
MODEL 4
REMARK VINA RESULT:      -7.4      1.159      1.692
REMARK  Name = 
REMARK  9 active torsions:
REMARK  status: ('A' for Active; 'I' for Inactive)
REMARK    1  A    between atoms: C_1  and  C_2
REMARK    2  A    between atoms: C_4  and  O_5
REMARK    3  A    between atoms: O_5  and  C_6
REMARK    4  A    between atoms: C_6  and  C_7
REMARK    5  A    between atoms: C_7  and  O_8
REMARK    6  A    between atoms: C_7  and  C_9
REMARK    7  A    between atoms: C_9  and  C_10
REMARK    8  A    between atoms: C_10  and  N_11
REMARK    9  A    between atoms: N_14  and  C_15
REMARK                            x       y       z     vdW  Elec       q    Type
REMARK                         _______ _______ _______ _____ _____    ______ ____
ROOT
ATOM      1  C   UNL     1       6.927   7.287  17.219  0.00  0.00    +0.000 C 
ENDROOT
BRANCH   1   2
ATOM      2  C   UNL     1       8.092   7.037  18.190  0.00  0.00    +0.000 C 
BRANCH   2   3
ATOM      3  O   UNL     1       7.663   6.016  19.106  0.00  0.00    +0.000 OA
ATOM      4  H   UNL     1       7.055   5.417  18.641  0.00  0.00    +0.000 HD
ENDBRANCH   2   3
BRANCH   2   5
ATOM      5  C   UNL     1       8.489   8.320  18.936  0.00  0.00    +0.000 C 
BRANCH   5   6
ATOM      6  O   UNL     1       8.561   9.430  18.042  0.00  0.00    +0.000 OA
BRANCH   6  10
ATOM      7  C   UNL     1      10.392  14.024  17.558  0.00  0.00    +0.000 C 
ATOM      8  C   UNL     1      10.066  12.828  18.401  0.00  0.00    +0.000 A 
ATOM      9  C   UNL     1       9.471  11.704  17.793  0.00  0.00    +0.000 A 
ATOM     10  C   UNL     1       9.147  10.565  18.542  0.00  0.00    +0.000 A 
ATOM     11  C   UNL     1       9.418  10.549  19.904  0.00  0.00    +0.000 A 
ATOM     12  C   UNL     1      10.008  11.650  20.525  0.00  0.00    +0.000 A 
ATOM     13  C   UNL     1      10.329  12.785  19.779  0.00  0.00    +0.000 A 
ATOM     14 CL   UNL     1      11.048  14.123  20.596  0.00  0.00    +0.000 Cl
ENDBRANCH   6  10
ENDBRANCH   5   6
ENDBRANCH   2   5
ENDBRANCH   1   2
BRANCH   1  15
ATOM     15  C   UNL     1       6.527   6.081  16.342  0.00  0.00    +0.000 C 
BRANCH  15  16
ATOM     16  N   UNL     1       5.083   5.831  16.359  0.00  0.00    +0.000 NA
ATOM     17  C   UNL     1       4.759   4.394  16.486  0.00  0.00    +0.000 C 
ATOM     18  C   UNL     1       5.018   3.841  17.897  0.00  0.00    +0.000 C 
ATOM     19  N   UNL     1       4.125   4.500  18.854  0.00  0.00    +0.000 N 
ATOM     20  C   UNL     1       4.199   5.973  18.848  0.00  0.00    +0.000 C 
ATOM     21  C   UNL     1       4.349   6.582  17.413  0.00  0.00    +0.000 C 
BRANCH  19  22
ATOM     22  C   UNL     1       2.976   3.839  19.271  0.00  0.00    +0.000 A 
ATOM     23  C   UNL     1       2.167   3.157  18.351  0.00  0.00    +0.000 A 
ATOM     24  C   UNL     1       0.932   2.609  18.729  0.00  0.00    +0.000 A 
ATOM     25  C   UNL     1       0.490   2.711  20.044  0.00  0.00    +0.000 A 
ATOM     26  C   UNL     1       1.289   3.345  20.985  0.00  0.00    +0.000 A 
ATOM     27  C   UNL     1       2.513   3.897  20.597  0.00  0.00    +0.000 A 
ENDBRANCH  19  22
ENDBRANCH  15  16
ENDBRANCH   1  15
TORSDOF 8
ENDMDL
MODEL 5
REMARK VINA RESULT:      -7.3      1.076      1.103
REMARK  Name = 
REMARK  9 active torsions:
REMARK  status: ('A' for Active; 'I' for Inactive)
REMARK    1  A    between atoms: C_1  and  C_2
REMARK    2  A    between atoms: C_4  and  O_5
REMARK    3  A    between atoms: O_5  and  C_6
REMARK    4  A    between atoms: C_6  and  C_7
REMARK    5  A    between atoms: C_7  and  O_8
REMARK    6  A    between atoms: C_7  and  C_9
REMARK    7  A    between atoms: C_9  and  C_10
REMARK    8  A    between atoms: C_10  and  N_11
REMARK    9  A    between atoms: N_14  and  C_15
REMARK                            x       y       z     vdW  Elec       q    Type
REMARK                         _______ _______ _______ _____ _____    ______ ____
ROOT
ATOM      1  C   UNL     1       7.769   6.430  18.408  0.00  0.00    +0.000 C 
ENDROOT
BRANCH   1   2
ATOM      2  C   UNL     1       7.366   7.865  18.034  0.00  0.00    +0.000 C 
BRANCH   2   3
ATOM      3  O   UNL     1       6.806   7.813  16.711  0.00  0.00    +0.000 OA
ATOM      4  H   UNL     1       5.963   7.331  16.751  0.00  0.00    +0.000 HD
ENDBRANCH   2   3
BRANCH   2   5
ATOM      5  C   UNL     1       8.568   8.821  18.090  0.00  0.00    +0.000 C 
BRANCH   5   6
ATOM      6  O   UNL     1       8.143  10.182  18.026  0.00  0.00    +0.000 OA
BRANCH   6  10
ATOM      7  C   UNL     1      10.447  14.525  17.304  0.00  0.00    +0.000 C 
ATOM      8  C   UNL     1      10.284  13.240  18.060  0.00  0.00    +0.000 A 
ATOM      9  C   UNL     1       9.283  12.333  17.658  0.00  0.00    +0.000 A 
ATOM     10  C   UNL     1       9.093  11.122  18.336  0.00  0.00    +0.000 A 
ATOM     11  C   UNL     1       9.906  10.816  19.419  0.00  0.00    +0.000 A 
ATOM     12  C   UNL     1      10.904  11.698  19.832  0.00  0.00    +0.000 A 
ATOM     13  C   UNL     1      11.092  12.906  19.157  0.00  0.00    +0.000 A 
ATOM     14 CL   UNL     1      12.333  13.967  19.712  0.00  0.00    +0.000 Cl
ENDBRANCH   6  10
ENDBRANCH   5   6
ENDBRANCH   2   5
ENDBRANCH   1   2
BRANCH   1  15
ATOM     15  C   UNL     1       7.504   5.365  17.322  0.00  0.00    +0.000 C 
BRANCH  15  16
ATOM     16  N   UNL     1       6.689   4.251  17.818  0.00  0.00    +0.000 NA
ATOM     17  C   UNL     1       5.962   4.592  19.060  0.00  0.00    +0.000 C 
ATOM     18  C   UNL     1       4.777   5.542  18.822  0.00  0.00    +0.000 C 
ATOM     19  N   UNL     1       3.775   4.877  17.985  0.00  0.00    +0.000 N 
ATOM     20  C   UNL     1       4.292   4.355  16.705  0.00  0.00    +0.000 C 
ATOM     21  C   UNL     1       5.718   3.719  16.825  0.00  0.00    +0.000 C 
BRANCH  19  22
ATOM     22  C   UNL     1       2.654   4.320  18.588  0.00  0.00    +0.000 A 
ATOM     23  C   UNL     1       2.081   4.911  19.723  0.00  0.00    +0.000 A 
ATOM     24  C   UNL     1       1.042   4.285  20.428  0.00  0.00    +0.000 A 
ATOM     25  C   UNL     1       0.535   3.064  19.997  0.00  0.00    +0.000 A 
ATOM     26  C   UNL     1       1.055   2.476  18.852  0.00  0.00    +0.000 A 
ATOM     27  C   UNL     1       2.097   3.101  18.163  0.00  0.00    +0.000 A 
ENDBRANCH  19  22
ENDBRANCH  15  16
ENDBRANCH   1  15
TORSDOF 8
ENDMDL
MODEL 6
REMARK VINA RESULT:      -7.2      4.746      7.732
REMARK  Name = 
REMARK  9 active torsions:
REMARK  status: ('A' for Active; 'I' for Inactive)
REMARK    1  A    between atoms: C_1  and  C_2
REMARK    2  A    between atoms: C_4  and  O_5
REMARK    3  A    between atoms: O_5  and  C_6
REMARK    4  A    between atoms: C_6  and  C_7
REMARK    5  A    between atoms: C_7  and  O_8
REMARK    6  A    between atoms: C_7  and  C_9
REMARK    7  A    between atoms: C_9  and  C_10
REMARK    8  A    between atoms: C_10  and  N_11
REMARK    9  A    between atoms: N_14  and  C_15
REMARK                            x       y       z     vdW  Elec       q    Type
REMARK                         _______ _______ _______ _____ _____    ______ ____
ROOT
ATOM      1  C   UNL     1       2.029   4.698  19.208  0.00  0.00    +0.000 C 
ENDROOT
BRANCH   1   2
ATOM      2  C   UNL     1       2.135   3.390  18.408  0.00  0.00    +0.000 C 
BRANCH   2   3
ATOM      3  O   UNL     1       2.823   2.442  19.241  0.00  0.00    +0.000 OA
ATOM      4  H   UNL     1       3.109   1.695  18.689  0.00  0.00    +0.000 HD
ENDBRANCH   2   3
BRANCH   2   5
ATOM      5  C   UNL     1       2.876   3.600  17.079  0.00  0.00    +0.000 C 
BRANCH   5   6
ATOM      6  O   UNL     1       4.263   3.294  17.212  0.00  0.00    +0.000 OA
BRANCH   6  10
ATOM      7  C   UNL     1       7.916   5.760  19.507  0.00  0.00    +0.000 C 
ATOM      8  C   UNL     1       6.895   5.653  18.414  0.00  0.00    +0.000 A 
ATOM      9  C   UNL     1       6.070   4.512  18.358  0.00  0.00    +0.000 A 
ATOM     10  C   UNL     1       5.104   4.368  17.353  0.00  0.00    +0.000 A 
ATOM     11  C   UNL     1       4.962   5.369  16.402  0.00  0.00    +0.000 A 
ATOM     12  C   UNL     1       5.766   6.508  16.440  0.00  0.00    +0.000 A 
ATOM     13  C   UNL     1       6.729   6.649  17.440  0.00  0.00    +0.000 A 
ATOM     14 CL   UNL     1       7.705   8.072  17.438  0.00  0.00    +0.000 Cl
ENDBRANCH   6  10
ENDBRANCH   5   6
ENDBRANCH   2   5
ENDBRANCH   1   2
BRANCH   1  15
ATOM     15  C   UNL     1       1.900   5.982  18.361  0.00  0.00    +0.000 C 
BRANCH  15  16
ATOM     16  N   UNL     1       2.641   7.108  18.936  0.00  0.00    +0.000 NA
ATOM     17  C   UNL     1       2.822   8.216  17.974  0.00  0.00    +0.000 C 
ATOM     18  C   UNL     1       1.529   9.009  17.719  0.00  0.00    +0.000 C 
ATOM     19  N   UNL     1       1.107   9.669  18.958  0.00  0.00    +0.000 N 
ATOM     20  C   UNL     1       0.946   8.764  20.112  0.00  0.00    +0.000 C 
ATOM     21  C   UNL     1       2.047   7.652  20.186  0.00  0.00    +0.000 C 
BRANCH  19  22
ATOM     22  C   UNL     1       1.391  11.018  19.135  0.00  0.00    +0.000 A 
ATOM     23  C   UNL     1       2.122  11.730  18.174  0.00  0.00    +0.000 A 
ATOM     24  C   UNL     1       2.542  13.049  18.403  0.00  0.00    +0.000 A 
ATOM     25  C   UNL     1       2.218  13.694  19.592  0.00  0.00    +0.000 A 
ATOM     26  C   UNL     1       1.460  13.027  20.546  0.00  0.00    +0.000 A 
ATOM     27  C   UNL     1       1.056  11.710  20.313  0.00  0.00    +0.000 A 
ENDBRANCH  19  22
ENDBRANCH  15  16
ENDBRANCH   1  15
TORSDOF 8
ENDMDL
MODEL 7
REMARK VINA RESULT:      -7.2      1.080      1.911
REMARK  Name = 
REMARK  9 active torsions:
REMARK  status: ('A' for Active; 'I' for Inactive)
REMARK    1  A    between atoms: C_1  and  C_2
REMARK    2  A    between atoms: C_4  and  O_5
REMARK    3  A    between atoms: O_5  and  C_6
REMARK    4  A    between atoms: C_6  and  C_7
REMARK    5  A    between atoms: C_7  and  O_8
REMARK    6  A    between atoms: C_7  and  C_9
REMARK    7  A    between atoms: C_9  and  C_10
REMARK    8  A    between atoms: C_10  and  N_11
REMARK    9  A    between atoms: N_14  and  C_15
REMARK                            x       y       z     vdW  Elec       q    Type
REMARK                         _______ _______ _______ _____ _____    ______ ____
ROOT
ATOM      1  C   UNL     1       7.023   7.557  17.435  0.00  0.00    +0.000 C 
ENDROOT
BRANCH   1   2
ATOM      2  C   UNL     1       8.374   8.034  17.991  0.00  0.00    +0.000 C 
BRANCH   2   3
ATOM      3  O   UNL     1       8.595   7.326  19.222  0.00  0.00    +0.000 OA
ATOM      4  H   UNL     1       7.754   6.934  19.510  0.00  0.00    +0.000 HD
ENDBRANCH   2   3
BRANCH   2   5
ATOM      5  C   UNL     1       8.387   9.553  18.214  0.00  0.00    +0.000 C 
BRANCH   5   6
ATOM      6  O   UNL     1       9.227   9.902  19.314  0.00  0.00    +0.000 OA
BRANCH   6  10
ATOM      7  C   UNL     1      10.319  14.297  21.360  0.00  0.00    +0.000 C 
ATOM      8  C   UNL     1      10.358  13.348  20.199  0.00  0.00    +0.000 A 
ATOM      9  C   UNL     1       9.760  12.079  20.333  0.00  0.00    +0.000 A 
ATOM     10  C   UNL     1       9.774  11.159  19.276  0.00  0.00    +0.000 A 
ATOM     11  C   UNL     1      10.387  11.510  18.081  0.00  0.00    +0.000 A 
ATOM     12  C   UNL     1      10.983  12.762  17.926  0.00  0.00    +0.000 A 
ATOM     13  C   UNL     1      10.970  13.676  18.980  0.00  0.00    +0.000 A 
ATOM     14 CL   UNL     1      11.729  15.207  18.742  0.00  0.00    +0.000 Cl
ENDBRANCH   6  10
ENDBRANCH   5   6
ENDBRANCH   2   5
ENDBRANCH   1   2
BRANCH   1  15
ATOM     15  C   UNL     1       7.107   6.549  16.268  0.00  0.00    +0.000 C 
BRANCH  15  16
ATOM     16  N   UNL     1       5.795   6.004  15.904  0.00  0.00    +0.000 NA
ATOM     17  C   UNL     1       5.698   4.551  16.157  0.00  0.00    +0.000 C 
ATOM     18  C   UNL     1       5.588   4.206  17.651  0.00  0.00    +0.000 C 
ATOM     19  N   UNL     1       4.340   4.753  18.191  0.00  0.00    +0.000 N 
ATOM     20  C   UNL     1       4.160   6.201  17.974  0.00  0.00    +0.000 C 
ATOM     21  C   UNL     1       4.650   6.683  16.567  0.00  0.00    +0.000 C 
BRANCH  19  22
ATOM     22  C   UNL     1       3.248   3.909  18.355  0.00  0.00    +0.000 A 
ATOM     23  C   UNL     1       1.951   4.346  18.052  0.00  0.00    +0.000 A 
ATOM     24  C   UNL     1       0.827   3.561  18.348  0.00  0.00    +0.000 A 
ATOM     25  C   UNL     1       0.978   2.308  18.931  0.00  0.00    +0.000 A 
ATOM     26  C   UNL     1       2.252   1.832  19.206  0.00  0.00    +0.000 A 
ATOM     27  C   UNL     1       3.366   2.625  18.918  0.00  0.00    +0.000 A 
ENDBRANCH  19  22
ENDBRANCH  15  16
ENDBRANCH   1  15
TORSDOF 8
ENDMDL
MODEL 8
REMARK VINA RESULT:      -7.1      5.507      8.243
REMARK  Name = 
REMARK  9 active torsions:
REMARK  status: ('A' for Active; 'I' for Inactive)
REMARK    1  A    between atoms: C_1  and  C_2
REMARK    2  A    between atoms: C_4  and  O_5
REMARK    3  A    between atoms: O_5  and  C_6
REMARK    4  A    between atoms: C_6  and  C_7
REMARK    5  A    between atoms: C_7  and  O_8
REMARK    6  A    between atoms: C_7  and  C_9
REMARK    7  A    between atoms: C_9  and  C_10
REMARK    8  A    between atoms: C_10  and  N_11
REMARK    9  A    between atoms: N_14  and  C_15
REMARK                            x       y       z     vdW  Elec       q    Type
REMARK                         _______ _______ _______ _____ _____    ______ ____
ROOT
ATOM      1  C   UNL     1       3.634   4.278  19.540  0.00  0.00    +0.000 C 
ENDROOT
BRANCH   1   2
ATOM      2  C   UNL     1       2.340   5.083  19.336  0.00  0.00    +0.000 C 
BRANCH   2   3
ATOM      3  O   UNL     1       2.407   5.659  18.021  0.00  0.00    +0.000 OA
ATOM      4  H   UNL     1       2.348   4.944  17.365  0.00  0.00    +0.000 HD
ENDBRANCH   2   3
BRANCH   2   5
ATOM      5  C   UNL     1       2.177   6.169  20.409  0.00  0.00    +0.000 C 
BRANCH   5   6
ATOM      6  O   UNL     1       2.376   7.469  19.857  0.00  0.00    +0.000 OA
BRANCH   6  10
ATOM      7  C   UNL     1      -0.438   9.733  23.270  0.00  0.00    +0.000 C 
ATOM      8  C   UNL     1       0.072   9.614  21.865  0.00  0.00    +0.000 A 
ATOM      9  C   UNL     1       0.981   8.582  21.552  0.00  0.00    +0.000 A 
ATOM     10  C   UNL     1       1.485   8.434  20.254  0.00  0.00    +0.000 A 
ATOM     11  C   UNL     1       1.081   9.319  19.264  0.00  0.00    +0.000 A 
ATOM     12  C   UNL     1       0.181  10.346  19.551  0.00  0.00    +0.000 A 
ATOM     13  C   UNL     1      -0.320  10.494  20.845  0.00  0.00    +0.000 A 
ATOM     14 CL   UNL     1      -1.422  11.785  21.151  0.00  0.00    +0.000 Cl
ENDBRANCH   6  10
ENDBRANCH   5   6
ENDBRANCH   2   5
ENDBRANCH   1   2
BRANCH   1  15
ATOM     15  C   UNL     1       4.943   5.082  19.382  0.00  0.00    +0.000 C 
BRANCH  15  16
ATOM     16  N   UNL     1       5.920   4.397  18.530  0.00  0.00    +0.000 NA
ATOM     17  C   UNL     1       5.279   3.610  17.455  0.00  0.00    +0.000 C 
ATOM     18  C   UNL     1       4.697   4.485  16.333  0.00  0.00    +0.000 C 
ATOM     19  N   UNL     1       5.781   5.204  15.659  0.00  0.00    +0.000 N 
ATOM     20  C   UNL     1       6.639   6.003  16.555  0.00  0.00    +0.000 C 
ATOM     21  C   UNL     1       6.934   5.299  17.922  0.00  0.00    +0.000 C 
BRANCH  19  22
ATOM     22  C   UNL     1       6.262   4.720  14.448  0.00  0.00    +0.000 A 
ATOM     23  C   UNL     1       7.437   5.236  13.884  0.00  0.00    +0.000 A 
ATOM     24  C   UNL     1       7.856   4.863  12.598  0.00  0.00    +0.000 A 
ATOM     25  C   UNL     1       7.120   3.946  11.856  0.00  0.00    +0.000 A 
ATOM     26  C   UNL     1       5.973   3.388  12.405  0.00  0.00    +0.000 A 
ATOM     27  C   UNL     1       5.558   3.773  13.682  0.00  0.00    +0.000 A 
ENDBRANCH  19  22
ENDBRANCH  15  16
ENDBRANCH   1  15
TORSDOF 8
ENDMDL
MODEL 9
REMARK VINA RESULT:      -7.1      6.248      9.198
REMARK  Name = 
REMARK  9 active torsions:
REMARK  status: ('A' for Active; 'I' for Inactive)
REMARK    1  A    between atoms: C_1  and  C_2
REMARK    2  A    between atoms: C_4  and  O_5
REMARK    3  A    between atoms: O_5  and  C_6
REMARK    4  A    between atoms: C_6  and  C_7
REMARK    5  A    between atoms: C_7  and  O_8
REMARK    6  A    between atoms: C_7  and  C_9
REMARK    7  A    between atoms: C_9  and  C_10
REMARK    8  A    between atoms: C_10  and  N_11
REMARK    9  A    between atoms: N_14  and  C_15
REMARK                            x       y       z     vdW  Elec       q    Type
REMARK                         _______ _______ _______ _____ _____    ______ ____
ROOT
ATOM      1  C   UNL     1       2.154   6.843  20.072  0.00  0.00    +0.000 C 
ENDROOT
BRANCH   1   2
ATOM      2  C   UNL     1       1.720   5.411  20.425  0.00  0.00    +0.000 C 
BRANCH   2   3
ATOM      3  O   UNL     1       2.556   4.973  21.509  0.00  0.00    +0.000 OA
ATOM      4  H   UNL     1       2.448   5.590  22.252  0.00  0.00    +0.000 HD
ENDBRANCH   2   3
BRANCH   2   5
ATOM      5  C   UNL     1       1.840   4.471  19.216  0.00  0.00    +0.000 C 
BRANCH   5   6
ATOM      6  O   UNL     1       3.003   3.651  19.320  0.00  0.00    +0.000 OA
BRANCH   6  10
ATOM      7  C   UNL     1       7.569   5.430  18.494  0.00  0.00    +0.000 C 
ATOM      8  C   UNL     1       6.284   4.841  17.993  0.00  0.00    +0.000 A 
ATOM      9  C   UNL     1       5.264   4.539  18.918  0.00  0.00    +0.000 A 
ATOM     10  C   UNL     1       4.049   3.985  18.497  0.00  0.00    +0.000 A 
ATOM     11  C   UNL     1       3.851   3.733  17.146  0.00  0.00    +0.000 A 
ATOM     12  C   UNL     1       4.846   4.027  16.213  0.00  0.00    +0.000 A 
ATOM     13  C   UNL     1       6.057   4.576  16.634  0.00  0.00    +0.000 A 
ATOM     14 CL   UNL     1       7.260   4.912  15.444  0.00  0.00    +0.000 Cl
ENDBRANCH   6  10
ENDBRANCH   5   6
ENDBRANCH   2   5
ENDBRANCH   1   2
BRANCH   1  15
ATOM     15  C   UNL     1       1.675   7.938  21.048  0.00  0.00    +0.000 C 
BRANCH  15  16
ATOM     16  N   UNL     1       0.400   8.534  20.638  0.00  0.00    +0.000 NA
ATOM     17  C   UNL     1      -0.545   8.677  21.766  0.00  0.00    +0.000 C 
ATOM     18  C   UNL     1      -0.162   9.809  22.734  0.00  0.00    +0.000 C 
ATOM     19  N   UNL     1      -0.231  11.096  22.037  0.00  0.00    +0.000 N 
ATOM     20  C   UNL     1       0.572  11.169  20.801  0.00  0.00    +0.000 C 
ATOM     21  C   UNL     1       0.535   9.850  19.958  0.00  0.00    +0.000 C 
BRANCH  19  22
ATOM     22  C   UNL     1      -1.350  11.901  22.216  0.00  0.00    +0.000 A 
ATOM     23  C   UNL     1      -2.179  11.739  23.334  0.00  0.00    +0.000 A 
ATOM     24  C   UNL     1      -3.387  12.442  23.457  0.00  0.00    +0.000 A 
ATOM     25  C   UNL     1      -3.780  13.343  22.473  0.00  0.00    +0.000 A 
ATOM     26  C   UNL     1      -2.959  13.554  21.374  0.00  0.00    +0.000 A 
ATOM     27  C   UNL     1      -1.763  12.841  21.255  0.00  0.00    +0.000 A 
ENDBRANCH  19  22
ENDBRANCH  15  16
ENDBRANCH   1  15
TORSDOF 8
ENDMDL
