MODEL 1
REMARK VINA RESULT:      -5.7      0.000      0.000
REMARK  Name = 
REMARK  1 active torsions:
REMARK  status: ('A' for Active; 'I' for Inactive)
REMARK    1  A    between atoms: N_1  and  C_2
REMARK                            x       y       z     vdW  Elec       q    Type
REMARK                         _______ _______ _______ _____ _____    ______ ____
ROOT
ATOM      1  C   UNL     1       3.644   2.038  18.558  0.00  0.00    +0.000 C 
ATOM      2  C   UNL     1       3.819   2.720  17.178  0.00  0.00    +0.000 C 
ATOM      3  C   UNL     1       4.866   3.851  17.200  0.00  0.00    +0.000 C 
ATOM      4  C   UNL     1       4.307   5.199  16.712  0.00  0.00    +0.000 C 
ATOM      5  C   UNL     1       4.474   6.333  17.738  0.00  0.00    +0.000 C 
ATOM      6  C   UNL     1       3.148   7.022  18.106  0.00  0.00    +0.000 C 
ATOM      7  C   UNL     1       2.853   7.005  19.616  0.00  0.00    +0.000 C 
ATOM      8  C   UNL     1       1.500   6.360  19.963  0.00  0.00    +0.000 C 
ATOM      9  C   UNL     1       1.622   5.191  20.955  0.00  0.00    +0.000 C 
ATOM     10  C   UNL     1       1.013   3.880  20.427  0.00  0.00    +0.000 C 
ATOM     11  C   UNL     1       2.007   2.707  20.427  0.00  0.00    +0.000 C 
ATOM     12  C   UNL     1       2.174   2.057  19.039  0.00  0.00    +0.000 C 
ENDROOT
BRANCH   1  13
ATOM     13  N   UNL     1       4.117   0.650  18.495  0.00  0.00    +0.000 NA
ATOM     14  H   UNL     1       3.412   0.029  18.890  0.00  0.00    +0.000 HD
ATOM     15  H   UNL     1       4.947   0.542  19.079  0.00  0.00    +0.000 HD
ENDBRANCH   1  13
TORSDOF 1
ENDMDL
MODEL 2
REMARK VINA RESULT:      -5.5      1.132      2.779
REMARK  Name = 
REMARK  1 active torsions:
REMARK  status: ('A' for Active; 'I' for Inactive)
REMARK    1  A    between atoms: N_1  and  C_2
REMARK                            x       y       z     vdW  Elec       q    Type
REMARK                         _______ _______ _______ _____ _____    ______ ____
ROOT
ATOM      1  C   UNL     1       4.858   3.879  17.181  0.00  0.00    +0.000 C 
ATOM      2  C   UNL     1       4.265   5.237  16.726  0.00  0.00    +0.000 C 
ATOM      3  C   UNL     1       4.427   6.344  17.786  0.00  0.00    +0.000 C 
ATOM      4  C   UNL     1       3.092   6.996  18.185  0.00  0.00    +0.000 C 
ATOM      5  C   UNL     1       2.810   6.927  19.695  0.00  0.00    +0.000 C 
ATOM      6  C   UNL     1       1.467   6.257  20.034  0.00  0.00    +0.000 C 
ATOM      7  C   UNL     1       1.610   5.057  20.986  0.00  0.00    +0.000 C 
ATOM      8  C   UNL     1       1.017   3.757  20.419  0.00  0.00    +0.000 C 
ATOM      9  C   UNL     1       2.029   2.600  20.365  0.00  0.00    +0.000 C 
ATOM     10  C   UNL     1       2.191   1.998  18.959  0.00  0.00    +0.000 C 
ATOM     11  C   UNL     1       3.645   2.004  18.460  0.00  0.00    +0.000 C 
ATOM     12  C   UNL     1       3.820   2.734  17.113  0.00  0.00    +0.000 C 
ENDROOT
BRANCH   1  13
ATOM     13  N   UNL     1       6.017   3.534  16.350  0.00  0.00    +0.000 NA
ATOM     14  H   UNL     1       6.865   3.907  16.773  0.00  0.00    +0.000 HD
ATOM     15  H   UNL     1       5.935   3.985  15.438  0.00  0.00    +0.000 HD
ENDBRANCH   1  13
TORSDOF 1
ENDMDL
MODEL 3
REMARK VINA RESULT:      -5.3      1.438      3.239
REMARK  Name = 
REMARK  1 active torsions:
REMARK  status: ('A' for Active; 'I' for Inactive)
REMARK    1  A    between atoms: N_1  and  C_2
REMARK                            x       y       z     vdW  Elec       q    Type
REMARK                         _______ _______ _______ _____ _____    ______ ____
ROOT
ATOM      1  C   UNL     1       1.996   3.165  20.802  0.00  0.00    +0.000 C 
ATOM      2  C   UNL     1       1.978   2.232  19.564  0.00  0.00    +0.000 C 
ATOM      3  C   UNL     1       3.390   1.920  19.031  0.00  0.00    +0.000 C 
ATOM      4  C   UNL     1       3.568   2.283  17.547  0.00  0.00    +0.000 C 
ATOM      5  C   UNL     1       4.734   3.253  17.294  0.00  0.00    +0.000 C 
ATOM      6  C   UNL     1       4.312   4.533  16.553  0.00  0.00    +0.000 C 
ATOM      7  C   UNL     1       4.674   5.822  17.311  0.00  0.00    +0.000 C 
ATOM      8  C   UNL     1       3.462   6.730  17.578  0.00  0.00    +0.000 C 
ATOM      9  C   UNL     1       3.266   7.058  19.068  0.00  0.00    +0.000 C 
ATOM     10  C   UNL     1       1.872   6.678  19.596  0.00  0.00    +0.000 C 
ATOM     11  C   UNL     1       1.919   5.737  20.811  0.00  0.00    +0.000 C 
ATOM     12  C   UNL     1       1.131   4.430  20.595  0.00  0.00    +0.000 C 
ENDROOT
BRANCH   1  13
ATOM     13  N   UNL     1       1.521   2.438  21.985  0.00  0.00    +0.000 NA
ATOM     14  H   UNL     1       2.317   2.083  22.511  0.00  0.00    +0.000 HD
ATOM     15  H   UNL     1       0.986   1.619  21.695  0.00  0.00    +0.000 HD
ENDBRANCH   1  13
TORSDOF 1
ENDMDL
MODEL 4
REMARK VINA RESULT:      -5.3      1.822      4.482
REMARK  Name = 
REMARK  1 active torsions:
REMARK  status: ('A' for Active; 'I' for Inactive)
REMARK    1  A    between atoms: N_1  and  C_2
REMARK                            x       y       z     vdW  Elec       q    Type
REMARK                         _______ _______ _______ _____ _____    ______ ____
ROOT
ATOM      1  C   UNL     1       4.646   5.861  17.602  0.00  0.00    +0.000 C 
ATOM      2  C   UNL     1       3.412   6.736  17.936  0.00  0.00    +0.000 C 
ATOM      3  C   UNL     1       3.149   6.846  19.451  0.00  0.00    +0.000 C 
ATOM      4  C   UNL     1       1.732   6.403  19.851  0.00  0.00    +0.000 C 
ATOM      5  C   UNL     1       1.720   5.284  20.906  0.00  0.00    +0.000 C 
ATOM      6  C   UNL     1       0.934   4.038  20.464  0.00  0.00    +0.000 C 
ATOM      7  C   UNL     1       1.768   2.746  20.506  0.00  0.00    +0.000 C 
ATOM      8  C   UNL     1       1.817   2.009  19.157  0.00  0.00    +0.000 C 
ATOM      9  C   UNL     1       3.249   1.770  18.647  0.00  0.00    +0.000 C 
ATOM     10  C   UNL     1       3.497   2.345  17.242  0.00  0.00    +0.000 C 
ATOM     11  C   UNL     1       4.684   3.321  17.187  0.00  0.00    +0.000 C 
ATOM     12  C   UNL     1       4.301   4.707  16.631  0.00  0.00    +0.000 C 
ENDROOT
BRANCH   1  13
ATOM     13  N   UNL     1       5.705   6.689  17.016  0.00  0.00    +0.000 NA
ATOM     14  H   UNL     1       5.818   6.455  16.031  0.00  0.00    +0.000 HD
ATOM     15  H   UNL     1       6.598   6.474  17.461  0.00  0.00    +0.000 HD
ENDBRANCH   1  13
TORSDOF 1
ENDMDL
MODEL 5
REMARK VINA RESULT:      -5.3      2.315      5.302
REMARK  Name = 
REMARK  1 active torsions:
REMARK  status: ('A' for Active; 'I' for Inactive)
REMARK    1  A    between atoms: N_1  and  C_2
REMARK                            x       y       z     vdW  Elec       q    Type
REMARK                         _______ _______ _______ _____ _____    ______ ____
ROOT
ATOM      1  C   UNL     1       2.153   6.549  20.254  0.00  0.00    +0.000 C 
ATOM      2  C   UNL     1       0.954   5.568  20.205  0.00  0.00    +0.000 C 
ATOM      3  C   UNL     1       1.297   4.176  20.772  0.00  0.00    +0.000 C 
ATOM      4  C   UNL     1       1.023   3.036  19.777  0.00  0.00    +0.000 C 
ATOM      5  C   UNL     1       2.258   2.164  19.497  0.00  0.00    +0.000 C 
ATOM      6  C   UNL     1       2.615   2.075  18.003  0.00  0.00    +0.000 C 
ATOM      7  C   UNL     1       4.056   2.518  17.695  0.00  0.00    +0.000 C 
ATOM      8  C   UNL     1       4.135   3.651  16.658  0.00  0.00    +0.000 C 
ATOM      9  C   UNL     1       4.893   4.889  17.169  0.00  0.00    +0.000 C 
ATOM     10  C   UNL     1       4.065   6.183  17.088  0.00  0.00    +0.000 C 
ATOM     11  C   UNL     1       3.941   6.909  18.438  0.00  0.00    +0.000 C 
ATOM     12  C   UNL     1       2.478   7.146  18.865  0.00  0.00    +0.000 C 
ENDROOT
BRANCH   1  13
ATOM     13  N   UNL     1       1.874   7.637  21.198  0.00  0.00    +0.000 NA
ATOM     14  H   UNL     1       0.871   7.813  21.231  0.00  0.00    +0.000 HD
ATOM     15  H   UNL     1       2.301   8.501  20.864  0.00  0.00    +0.000 HD
ENDBRANCH   1  13
TORSDOF 1
ENDMDL
MODEL 6
REMARK VINA RESULT:      -5.2      1.633      3.924
REMARK  Name = 
REMARK  1 active torsions:
REMARK  status: ('A' for Active; 'I' for Inactive)
REMARK    1  A    between atoms: N_1  and  C_2
REMARK                            x       y       z     vdW  Elec       q    Type
REMARK                         _______ _______ _______ _____ _____    ______ ____
ROOT
ATOM      1  C   UNL     1       4.462   5.197  16.758  0.00  0.00    +0.000 C 
ATOM      2  C   UNL     1       4.967   3.819  17.255  0.00  0.00    +0.000 C 
ATOM      3  C   UNL     1       3.906   2.709  17.119  0.00  0.00    +0.000 C 
ATOM      4  C   UNL     1       3.608   1.994  18.447  0.00  0.00    +0.000 C 
ATOM      5  C   UNL     1       2.122   2.034  18.839  0.00  0.00    +0.000 C 
ATOM      6  C   UNL     1       1.875   2.640  20.232  0.00  0.00    +0.000 C 
ATOM      7  C   UNL     1       0.907   3.835  20.212  0.00  0.00    +0.000 C 
ATOM      8  C   UNL     1       1.506   5.113  20.822  0.00  0.00    +0.000 C 
ATOM      9  C   UNL     1       1.478   6.315  19.861  0.00  0.00    +0.000 C 
ATOM     10  C   UNL     1       2.865   6.938  19.628  0.00  0.00    +0.000 C 
ATOM     11  C   UNL     1       3.259   7.003  18.143  0.00  0.00    +0.000 C 
ATOM     12  C   UNL     1       4.595   6.295  17.840  0.00  0.00    +0.000 C 
ENDROOT
BRANCH   1  13
ATOM     13  N   UNL     1       5.205   5.603  15.560  0.00  0.00    +0.000 NA
ATOM     14  H   UNL     1       5.859   6.347  15.798  0.00  0.00    +0.000 HD
ATOM     15  H   UNL     1       4.563   6.001  14.874  0.00  0.00    +0.000 HD
ENDBRANCH   1  13
TORSDOF 1
ENDMDL
MODEL 7
REMARK VINA RESULT:      -5.2      2.342      4.194
REMARK  Name = 
REMARK  1 active torsions:
REMARK  status: ('A' for Active; 'I' for Inactive)
REMARK    1  A    between atoms: N_1  and  C_2
REMARK                            x       y       z     vdW  Elec       q    Type
REMARK                         _______ _______ _______ _____ _____    ______ ____
ROOT
ATOM      1  C   UNL     1       2.177   6.729  19.589  0.00  0.00    +0.000 C 
ATOM      2  C   UNL     1       3.670   6.741  19.176  0.00  0.00    +0.000 C 
ATOM      3  C   UNL     1       3.880   6.420  17.683  0.00  0.00    +0.000 C 
ATOM      4  C   UNL     1       4.826   5.229  17.450  0.00  0.00    +0.000 C 
ATOM      5  C   UNL     1       4.193   4.106  16.612  0.00  0.00    +0.000 C 
ATOM      6  C   UNL     1       4.218   2.736  17.313  0.00  0.00    +0.000 C 
ATOM      7  C   UNL     1       2.824   2.099  17.453  0.00  0.00    +0.000 C 
ATOM      8  C   UNL     1       2.455   1.758  18.906  0.00  0.00    +0.000 C 
ATOM      9  C   UNL     1       1.140   2.410  19.367  0.00  0.00    +0.000 C 
ATOM     10  C   UNL     1       1.300   3.271  20.632  0.00  0.00    +0.000 C 
ATOM     11  C   UNL     1       0.816   4.719  20.445  0.00  0.00    +0.000 C 
ATOM     12  C   UNL     1       1.902   5.766  20.767  0.00  0.00    +0.000 C 
ENDROOT
BRANCH   1  13
ATOM     13  N   UNL     1       1.747   8.083  19.957  0.00  0.00    +0.000 NA
ATOM     14  H   UNL     1       2.562   8.683  20.069  0.00  0.00    +0.000 HD
ATOM     15  H   UNL     1       1.285   8.063  20.867  0.00  0.00    +0.000 HD
ENDBRANCH   1  13
TORSDOF 1
ENDMDL
MODEL 8
REMARK VINA RESULT:      -5.2     10.850     12.838
REMARK  Name = 
REMARK  1 active torsions:
REMARK  status: ('A' for Active; 'I' for Inactive)
REMARK    1  A    between atoms: N_1  and  C_2
REMARK                            x       y       z     vdW  Elec       q    Type
REMARK                         _______ _______ _______ _____ _____    ______ ____
ROOT
ATOM      1  C   UNL     1      10.683  15.256  17.285  0.00  0.00    +0.000 C 
ATOM      2  C   UNL     1      11.673  14.065  17.234  0.00  0.00    +0.000 C 
ATOM      3  C   UNL     1      10.960  12.699  17.174  0.00  0.00    +0.000 C 
ATOM      4  C   UNL     1      11.385  11.748  18.307  0.00  0.00    +0.000 C 
ATOM      5  C   UNL     1      10.202  11.244  19.151  0.00  0.00    +0.000 C 
ATOM      6  C   UNL     1      10.360  11.536  20.654  0.00  0.00    +0.000 C 
ATOM      7  C   UNL     1       9.187  12.339  21.243  0.00  0.00    +0.000 C 
ATOM      8  C   UNL     1       9.627  13.645  21.926  0.00  0.00    +0.000 C 
ATOM      9  C   UNL     1       8.930  14.892  21.356  0.00  0.00    +0.000 C 
ATOM     10  C   UNL     1       9.915  15.961  20.852  0.00  0.00    +0.000 C 
ATOM     11  C   UNL     1       9.683  16.357  19.385  0.00  0.00    +0.000 C 
ATOM     12  C   UNL     1      10.934  16.175  18.503  0.00  0.00    +0.000 C 
ENDROOT
BRANCH   1  13
ATOM     13  N   UNL     1      10.784  16.045  16.052  0.00  0.00    +0.000 NA
ATOM     14  H   UNL     1      11.465  15.618  15.426  0.00  0.00    +0.000 HD
ATOM     15  H   UNL     1      11.143  16.976  16.266  0.00  0.00    +0.000 HD
ENDBRANCH   1  13
TORSDOF 1
ENDMDL
MODEL 9
REMARK VINA RESULT:      -5.1      2.158      4.172
REMARK  Name = 
REMARK  1 active torsions:
REMARK  status: ('A' for Active; 'I' for Inactive)
REMARK    1  A    between atoms: N_1  and  C_2
REMARK                            x       y       z     vdW  Elec       q    Type
REMARK                         _______ _______ _______ _____ _____    ______ ____
ROOT
ATOM      1  C   UNL     1       3.037   6.893  18.198  0.00  0.00    +0.000 C 
ATOM      2  C   UNL     1       4.384   6.236  17.801  0.00  0.00    +0.000 C 
ATOM      3  C   UNL     1       4.218   5.126  16.744  0.00  0.00    +0.000 C 
ATOM      4  C   UNL     1       4.803   3.776  17.192  0.00  0.00    +0.000 C 
ATOM      5  C   UNL     1       3.778   2.629  17.158  0.00  0.00    +0.000 C 
ATOM      6  C   UNL     1       3.626   1.908  18.508  0.00  0.00    +0.000 C 
ATOM      7  C   UNL     1       2.178   1.894  19.029  0.00  0.00    +0.000 C 
ATOM      8  C   UNL     1       2.032   2.505  20.432  0.00  0.00    +0.000 C 
ATOM      9  C   UNL     1       1.017   3.660  20.489  0.00  0.00    +0.000 C 
ATOM     10  C   UNL     1       1.614   4.967  21.039  0.00  0.00    +0.000 C 
ATOM     11  C   UNL     1       1.447   6.160  20.084  0.00  0.00    +0.000 C 
ATOM     12  C   UNL     1       2.785   6.836  19.723  0.00  0.00    +0.000 C 
ENDROOT
BRANCH   1  13
ATOM     13  N   UNL     1       3.009   8.290  17.751  0.00  0.00    +0.000 NA
ATOM     14  H   UNL     1       2.142   8.730  18.056  0.00  0.00    +0.000 HD
ATOM     15  H   UNL     1       2.999   8.327  16.732  0.00  0.00    +0.000 HD
ENDBRANCH   1  13
TORSDOF 1
ENDMDL
