MODEL 1
REMARK VINA RESULT:      -7.1      0.000      0.000
REMARK  Name = 
REMARK  6 active torsions:
REMARK  status: ('A' for Active; 'I' for Inactive)
REMARK    1  A    between atoms: C_1  and  C_2
REMARK    2  A    between atoms: C_2  and  C_3
REMARK    3  A    between atoms: C_2  and  N_4
REMARK    4  A    between atoms: C_7  and  C_8
REMARK    5  A    between atoms: C_7  and  C_9
REMARK    6  A    between atoms: C_12  and  C_13
REMARK                            x       y       z     vdW  Elec       q    Type
REMARK                         _______ _______ _______ _____ _____    ______ ____
ROOT
ATOM      1  C   UNL     1       4.460   5.185  18.251  0.00  0.00    +0.000 A 
ATOM      2  N   UNL     1       4.872   4.054  18.787  0.00  0.00    +0.000 NA
ATOM      3  C   UNL     1       3.956   3.747  19.780  0.00  0.00    +0.000 A 
ATOM      4  C   UNL     1       3.839   2.614  20.607  0.00  0.00    +0.000 A 
ATOM      5  C   UNL     1       2.760   2.552  21.509  0.00  0.00    +0.000 A 
ATOM      6  C   UNL     1       1.822   3.585  21.584  0.00  0.00    +0.000 A 
ATOM      7  C   UNL     1       1.925   4.715  20.769  0.00  0.00    +0.000 A 
ATOM      8  C   UNL     1       3.004   4.753  19.885  0.00  0.00    +0.000 A 
ATOM      9  N   UNL     1       3.375   5.674  18.943  0.00  0.00    +0.000 N 
ATOM     10  H   UNL     1       2.855   6.508  18.713  0.00  0.00    +0.000 HD
ENDROOT
BRANCH   1  14
ATOM     11  N   UNL     1       6.711   4.004  15.335  0.00  0.00    +0.000 NA
ATOM     12  C   UNL     1       5.329   3.613  15.672  0.00  0.00    +0.000 C 
ATOM     13  C   UNL     1       4.415   4.834  15.821  0.00  0.00    +0.000 C 
ATOM     14  C   UNL     1       4.915   5.791  16.935  0.00  0.00    +0.000 C 
ATOM     15  C   UNL     1       4.279   7.186  16.750  0.00  0.00    +0.000 C 
ATOM     16  C   UNL     1       6.458   5.978  16.882  0.00  0.00    +0.000 C 
ATOM     17  C   UNL     1       7.251   4.722  16.504  0.00  0.00    +0.000 C 
BRANCH  11  19
ATOM     18  C   UNL     1       8.214   5.290  13.762  0.00  0.00    +0.000 C 
ATOM     19  C   UNL     1       6.815   4.738  14.050  0.00  0.00    +0.000 C 
ATOM     20  C   UNL     1       6.416   3.844  12.854  0.00  0.00    +0.000 C 
ENDBRANCH  11  19
ENDBRANCH   1  14
BRANCH   4  21
ATOM     21  C   UNL     1       4.788   1.481  20.519  0.00  0.00    +0.000 C 
ATOM     22  N   UNL     1       4.758   0.719  19.387  0.00  0.00    +0.000 N 
ATOM     23  O   UNL     1       5.565   1.226  21.433  0.00  0.00    +0.000 OA
ATOM     24  H   UNL     1       4.093   0.916  18.642  0.00  0.00    +0.000 HD
ATOM     25  H   UNL     1       5.368  -0.079  19.314  0.00  0.00    +0.000 HD
ENDBRANCH   4  21
TORSDOF 3
ENDMDL
MODEL 2
REMARK VINA RESULT:      -6.9      4.147      6.335
REMARK  Name = 
REMARK  6 active torsions:
REMARK  status: ('A' for Active; 'I' for Inactive)
REMARK    1  A    between atoms: C_1  and  C_2
REMARK    2  A    between atoms: C_2  and  C_3
REMARK    3  A    between atoms: C_2  and  N_4
REMARK    4  A    between atoms: C_7  and  C_8
REMARK    5  A    between atoms: C_7  and  C_9
REMARK    6  A    between atoms: C_12  and  C_13
REMARK                            x       y       z     vdW  Elec       q    Type
REMARK                         _______ _______ _______ _____ _____    ______ ____
ROOT
ATOM      1  C   UNL     1       2.530   7.548  18.666  0.00  0.00    +0.000 A 
ATOM      2  N   UNL     1       2.177   7.893  19.887  0.00  0.00    +0.000 NA
ATOM      3  C   UNL     1       1.197   8.861  19.742  0.00  0.00    +0.000 A 
ATOM      4  C   UNL     1       0.396   9.513  20.697  0.00  0.00    +0.000 A 
ATOM      5  C   UNL     1      -0.570  10.434  20.246  0.00  0.00    +0.000 A 
ATOM      6  C   UNL     1      -0.736  10.695  18.885  0.00  0.00    +0.000 A 
ATOM      7  C   UNL     1       0.050  10.055  17.924  0.00  0.00    +0.000 A 
ATOM      8  C   UNL     1       1.001   9.149  18.397  0.00  0.00    +0.000 A 
ATOM      9  N   UNL     1       1.892   8.343  17.741  0.00  0.00    +0.000 N 
ATOM     10  H   UNL     1       1.967   8.258  16.739  0.00  0.00    +0.000 HD
ENDROOT
BRANCH   1  14
ATOM     11  N   UNL     1       2.472   3.804  19.640  0.00  0.00    +0.000 NA
ATOM     12  C   UNL     1       1.552   4.563  18.770  0.00  0.00    +0.000 C 
ATOM     13  C   UNL     1       2.307   5.315  17.668  0.00  0.00    +0.000 C 
ATOM     14  C   UNL     1       3.329   6.321  18.260  0.00  0.00    +0.000 C 
ATOM     15  C   UNL     1       4.369   6.704  17.183  0.00  0.00    +0.000 C 
ATOM     16  C   UNL     1       4.110   5.711  19.458  0.00  0.00    +0.000 C 
ATOM     17  C   UNL     1       3.287   4.794  20.368  0.00  0.00    +0.000 C 
BRANCH  11  19
ATOM     18  C   UNL     1       4.311   2.076  19.769  0.00  0.00    +0.000 C 
ATOM     19  C   UNL     1       3.248   2.771  18.913  0.00  0.00    +0.000 C 
ATOM     20  C   UNL     1       2.327   1.672  18.337  0.00  0.00    +0.000 C 
ENDBRANCH  11  19
ENDBRANCH   1  14
BRANCH   4  21
ATOM     21  C   UNL     1       0.514   9.223  22.145  0.00  0.00    +0.000 C 
ATOM     22  N   UNL     1       1.764   8.998  22.643  0.00  0.00    +0.000 N 
ATOM     23  O   UNL     1      -0.475   9.174  22.869  0.00  0.00    +0.000 OA
ATOM     24  H   UNL     1       2.580   9.012  22.034  0.00  0.00    +0.000 HD
ATOM     25  H   UNL     1       1.871   8.765  23.617  0.00  0.00    +0.000 HD
ENDBRANCH   4  21
TORSDOF 3
ENDMDL
MODEL 3
REMARK VINA RESULT:      -6.7      4.609      6.730
REMARK  Name = 
REMARK  6 active torsions:
REMARK  status: ('A' for Active; 'I' for Inactive)
REMARK    1  A    between atoms: C_1  and  C_2
REMARK    2  A    between atoms: C_2  and  C_3
REMARK    3  A    between atoms: C_2  and  N_4
REMARK    4  A    between atoms: C_7  and  C_8
REMARK    5  A    between atoms: C_7  and  C_9
REMARK    6  A    between atoms: C_12  and  C_13
REMARK                            x       y       z     vdW  Elec       q    Type
REMARK                         _______ _______ _______ _____ _____    ______ ____
ROOT
ATOM      1  C   UNL     1       2.126   7.385  19.289  0.00  0.00    +0.000 A 
ATOM      2  N   UNL     1       1.776   8.552  18.788  0.00  0.00    +0.000 NA
ATOM      3  C   UNL     1       1.236   9.273  19.841  0.00  0.00    +0.000 A 
ATOM      4  C   UNL     1       0.791  10.605  19.913  0.00  0.00    +0.000 A 
ATOM      5  C   UNL     1       0.327  11.091  21.151  0.00  0.00    +0.000 A 
ATOM      6  C   UNL     1       0.311  10.276  22.285  0.00  0.00    +0.000 A 
ATOM      7  C   UNL     1       0.751   8.951  22.229  0.00  0.00    +0.000 A 
ATOM      8  C   UNL     1       1.203   8.493  20.990  0.00  0.00    +0.000 A 
ATOM      9  N   UNL     1       1.724   7.289  20.602  0.00  0.00    +0.000 N 
ATOM     10  H   UNL     1       1.901   6.509  21.217  0.00  0.00    +0.000 HD
ENDROOT
BRANCH   1  14
ATOM     11  N   UNL     1       2.517   3.545  19.551  0.00  0.00    +0.000 NA
ATOM     12  C   UNL     1       1.488   4.339  18.853  0.00  0.00    +0.000 C 
ATOM     13  C   UNL     1       2.113   5.361  17.897  0.00  0.00    +0.000 C 
ATOM     14  C   UNL     1       3.039   6.354  18.648  0.00  0.00    +0.000 C 
ATOM     15  C   UNL     1       3.989   7.044  17.644  0.00  0.00    +0.000 C 
ATOM     16  C   UNL     1       3.928   5.630  19.698  0.00  0.00    +0.000 C 
ATOM     17  C   UNL     1       3.245   4.473  20.437  0.00  0.00    +0.000 C 
BRANCH  11  19
ATOM     18  C   UNL     1       4.356   1.824  19.346  0.00  0.00    +0.000 C 
ATOM     19  C   UNL     1       3.375   2.758  18.632  0.00  0.00    +0.000 C 
ATOM     20  C   UNL     1       2.529   1.894  17.670  0.00  0.00    +0.000 C 
ENDBRANCH  11  19
ENDBRANCH   1  14
BRANCH   4  21
ATOM     21  C   UNL     1       0.839  11.510  18.742  0.00  0.00    +0.000 C 
ATOM     22  N   UNL     1       1.960  11.478  17.965  0.00  0.00    +0.000 N 
ATOM     23  O   UNL     1      -0.088  12.271  18.483  0.00  0.00    +0.000 OA
ATOM     24  H   UNL     1       2.740  10.866  18.198  0.00  0.00    +0.000 HD
ATOM     25  H   UNL     1       2.036  12.107  17.182  0.00  0.00    +0.000 HD
ENDBRANCH   4  21
TORSDOF 3
ENDMDL
MODEL 4
REMARK VINA RESULT:      -6.7      3.122      7.047
REMARK  Name = 
REMARK  6 active torsions:
REMARK  status: ('A' for Active; 'I' for Inactive)
REMARK    1  A    between atoms: C_1  and  C_2
REMARK    2  A    between atoms: C_2  and  C_3
REMARK    3  A    between atoms: C_2  and  N_4
REMARK    4  A    between atoms: C_7  and  C_8
REMARK    5  A    between atoms: C_7  and  C_9
REMARK    6  A    between atoms: C_12  and  C_13
REMARK                            x       y       z     vdW  Elec       q    Type
REMARK                         _______ _______ _______ _____ _____    ______ ____
ROOT
ATOM      1  C   UNL     1       6.373   4.954  16.233  0.00  0.00    +0.000 A 
ATOM      2  N   UNL     1       7.208   5.453  15.344  0.00  0.00    +0.000 NA
ATOM      3  C   UNL     1       6.947   4.786  14.158  0.00  0.00    +0.000 A 
ATOM      4  C   UNL     1       7.462   4.973  12.863  0.00  0.00    +0.000 A 
ATOM      5  C   UNL     1       6.967   4.164  11.822  0.00  0.00    +0.000 A 
ATOM      6  C   UNL     1       5.985   3.201  12.061  0.00  0.00    +0.000 A 
ATOM      7  C   UNL     1       5.463   3.004  13.342  0.00  0.00    +0.000 A 
ATOM      8  C   UNL     1       5.971   3.816  14.357  0.00  0.00    +0.000 A 
ATOM      9  N   UNL     1       5.662   3.909  15.686  0.00  0.00    +0.000 N 
ATOM     10  H   UNL     1       4.938   3.382  16.151  0.00  0.00    +0.000 HD
ENDROOT
BRANCH   1  14
ATOM     11  N   UNL     1       3.107   5.425  18.252  0.00  0.00    +0.000 NA
ATOM     12  C   UNL     1       3.898   4.201  18.018  0.00  0.00    +0.000 C 
ATOM     13  C   UNL     1       5.369   4.396  18.404  0.00  0.00    +0.000 C 
ATOM     14  C   UNL     1       6.027   5.541  17.590  0.00  0.00    +0.000 C 
ATOM     15  C   UNL     1       7.314   6.015  18.302  0.00  0.00    +0.000 C 
ATOM     16  C   UNL     1       5.088   6.774  17.469  0.00  0.00    +0.000 C 
ATOM     17  C   UNL     1       3.600   6.442  17.305  0.00  0.00    +0.000 C 
BRANCH  11  19
ATOM     18  C   UNL     1       2.312   7.144  19.926  0.00  0.00    +0.000 C 
ATOM     19  C   UNL     1       3.093   5.851  19.673  0.00  0.00    +0.000 C 
ATOM     20  C   UNL     1       2.489   4.760  20.585  0.00  0.00    +0.000 C 
ENDBRANCH  11  19
ENDBRANCH   1  14
BRANCH   4  21
ATOM     21  C   UNL     1       8.469   6.017  12.566  0.00  0.00    +0.000 C 
ATOM     22  N   UNL     1       9.522   6.141  13.424  0.00  0.00    +0.000 N 
ATOM     23  O   UNL     1       8.356   6.754  11.592  0.00  0.00    +0.000 OA
ATOM     24  H   UNL     1       9.598   5.547  14.247  0.00  0.00    +0.000 HD
ATOM     25  H   UNL     1      10.204   6.865  13.266  0.00  0.00    +0.000 HD
ENDBRANCH   4  21
TORSDOF 3
ENDMDL
MODEL 5
REMARK VINA RESULT:      -6.7      2.918      6.929
REMARK  Name = 
REMARK  6 active torsions:
REMARK  status: ('A' for Active; 'I' for Inactive)
REMARK    1  A    between atoms: C_1  and  C_2
REMARK    2  A    between atoms: C_2  and  C_3
REMARK    3  A    between atoms: C_2  and  N_4
REMARK    4  A    between atoms: C_7  and  C_8
REMARK    5  A    between atoms: C_7  and  C_9
REMARK    6  A    between atoms: C_12  and  C_13
REMARK                            x       y       z     vdW  Elec       q    Type
REMARK                         _______ _______ _______ _____ _____    ______ ____
ROOT
ATOM      1  C   UNL     1       5.646   4.756  16.033  0.00  0.00    +0.000 A 
ATOM      2  N   UNL     1       5.240   4.095  14.969  0.00  0.00    +0.000 NA
ATOM      3  C   UNL     1       6.132   4.414  13.958  0.00  0.00    +0.000 A 
ATOM      4  C   UNL     1       6.246   3.929  12.642  0.00  0.00    +0.000 A 
ATOM      5  C   UNL     1       7.299   4.408  11.840  0.00  0.00    +0.000 A 
ATOM      6  C   UNL     1       8.215   5.340  12.334  0.00  0.00    +0.000 A 
ATOM      7  C   UNL     1       8.116   5.830  13.638  0.00  0.00    +0.000 A 
ATOM      8  C   UNL     1       7.062   5.341  14.412  0.00  0.00    +0.000 A 
ATOM      9  N   UNL     1       6.702   5.579  15.710  0.00  0.00    +0.000 N 
ATOM     10  H   UNL     1       7.213   6.163  16.355  0.00  0.00    +0.000 HD
ENDROOT
BRANCH   1  14
ATOM     11  N   UNL     1       2.254   4.632  17.889  0.00  0.00    +0.000 NA
ATOM     12  C   UNL     1       2.875   3.631  16.999  0.00  0.00    +0.000 C 
ATOM     13  C   UNL     1       4.295   3.275  17.453  0.00  0.00    +0.000 C 
ATOM     14  C   UNL     1       5.218   4.521  17.472  0.00  0.00    +0.000 C 
ATOM     15  C   UNL     1       6.458   4.240  18.350  0.00  0.00    +0.000 C 
ATOM     16  C   UNL     1       4.500   5.761  18.076  0.00  0.00    +0.000 C 
ATOM     17  C   UNL     1       3.014   5.884  17.722  0.00  0.00    +0.000 C 
BRANCH  11  19
ATOM     18  C   UNL     1       1.764   5.278  20.282  0.00  0.00    +0.000 C 
ATOM     19  C   UNL     1       2.119   4.166  19.291  0.00  0.00    +0.000 C 
ATOM     20  C   UNL     1       1.040   3.068  19.421  0.00  0.00    +0.000 C 
ENDBRANCH  11  19
ENDBRANCH   1  14
BRANCH   4  21
ATOM     21  C   UNL     1       5.321   2.906  12.104  0.00  0.00    +0.000 C 
ATOM     22  N   UNL     1       5.839   1.678  11.810  0.00  0.00    +0.000 N 
ATOM     23  O   UNL     1       4.134   3.153  11.916  0.00  0.00    +0.000 OA
ATOM     24  H   UNL     1       6.830   1.485  11.940  0.00  0.00    +0.000 HD
ATOM     25  H   UNL     1       5.241   0.974  11.410  0.00  0.00    +0.000 HD
ENDBRANCH   4  21
TORSDOF 3
ENDMDL
MODEL 6
REMARK VINA RESULT:      -6.3      3.760      5.592
REMARK  Name = 
REMARK  6 active torsions:
REMARK  status: ('A' for Active; 'I' for Inactive)
REMARK    1  A    between atoms: C_1  and  C_2
REMARK    2  A    between atoms: C_2  and  C_3
REMARK    3  A    between atoms: C_2  and  N_4
REMARK    4  A    between atoms: C_7  and  C_8
REMARK    5  A    between atoms: C_7  and  C_9
REMARK    6  A    between atoms: C_12  and  C_13
REMARK                            x       y       z     vdW  Elec       q    Type
REMARK                         _______ _______ _______ _____ _____    ______ ____
ROOT
ATOM      1  C   UNL     1       2.480   6.111  19.463  0.00  0.00    +0.000 A 
ATOM      2  N   UNL     1       2.070   7.132  18.739  0.00  0.00    +0.000 NA
ATOM      3  C   UNL     1       1.623   8.084  19.640  0.00  0.00    +0.000 A 
ATOM      4  C   UNL     1       1.170   9.401  19.441  0.00  0.00    +0.000 A 
ATOM      5  C   UNL     1       0.820  10.168  20.569  0.00  0.00    +0.000 A 
ATOM      6  C   UNL     1       0.921   9.641  21.859  0.00  0.00    +0.000 A 
ATOM      7  C   UNL     1       1.371   8.335  22.073  0.00  0.00    +0.000 A 
ATOM      8  C   UNL     1       1.709   7.596  20.938  0.00  0.00    +0.000 A 
ATOM      9  N   UNL     1       2.206   6.329  20.795  0.00  0.00    +0.000 N 
ATOM     10  H   UNL     1       2.450   5.713  21.556  0.00  0.00    +0.000 HD
ENDROOT
BRANCH   1  14
ATOM     11  N   UNL     1       5.649   5.765  17.272  0.00  0.00    +0.000 NA
ATOM     12  C   UNL     1       5.517   6.237  18.663  0.00  0.00    +0.000 C 
ATOM     13  C   UNL     1       4.769   5.223  19.536  0.00  0.00    +0.000 C 
ATOM     14  C   UNL     1       3.341   4.949  18.998  0.00  0.00    +0.000 C 
ATOM     15  C   UNL     1       2.803   3.627  19.590  0.00  0.00    +0.000 C 
ATOM     16  C   UNL     1       3.328   4.798  17.450  0.00  0.00    +0.000 C 
ATOM     17  C   UNL     1       4.290   5.726  16.701  0.00  0.00    +0.000 C 
BRANCH  11  19
ATOM     18  C   UNL     1       6.613   4.028  15.709  0.00  0.00    +0.000 C 
ATOM     19  C   UNL     1       6.412   4.498  17.153  0.00  0.00    +0.000 C 
ATOM     20  C   UNL     1       7.810   4.616  17.800  0.00  0.00    +0.000 C 
ENDBRANCH  11  19
ENDBRANCH   1  14
BRANCH   4  21
ATOM     21  C   UNL     1       1.096  10.007  18.092  0.00  0.00    +0.000 C 
ATOM     22  N   UNL     1      -0.143  10.224  17.565  0.00  0.00    +0.000 N 
ATOM     23  O   UNL     1       2.111  10.291  17.463  0.00  0.00    +0.000 OA
ATOM     24  H   UNL     1      -0.982   9.961  18.077  0.00  0.00    +0.000 HD
ATOM     25  H   UNL     1      -0.223  10.603  16.635  0.00  0.00    +0.000 HD
ENDBRANCH   4  21
TORSDOF 3
ENDMDL
MODEL 7
REMARK VINA RESULT:      -6.1      2.459      6.512
REMARK  Name = 
REMARK  6 active torsions:
REMARK  status: ('A' for Active; 'I' for Inactive)
REMARK    1  A    between atoms: C_1  and  C_2
REMARK    2  A    between atoms: C_2  and  C_3
REMARK    3  A    between atoms: C_2  and  N_4
REMARK    4  A    between atoms: C_7  and  C_8
REMARK    5  A    between atoms: C_7  and  C_9
REMARK    6  A    between atoms: C_12  and  C_13
REMARK                            x       y       z     vdW  Elec       q    Type
REMARK                         _______ _______ _______ _____ _____    ______ ____
ROOT
ATOM      1  C   UNL     1       4.879   3.278  17.623  0.00  0.00    +0.000 A 
ATOM      2  N   UNL     1       5.630   4.326  17.895  0.00  0.00    +0.000 NA
ATOM      3  C   UNL     1       6.232   4.684  16.700  0.00  0.00    +0.000 A 
ATOM      4  C   UNL     1       7.054   5.779  16.374  0.00  0.00    +0.000 A 
ATOM      5  C   UNL     1       7.489   5.917  15.042  0.00  0.00    +0.000 A 
ATOM      6  C   UNL     1       7.114   4.995  14.062  0.00  0.00    +0.000 A 
ATOM      7  C   UNL     1       6.298   3.904  14.370  0.00  0.00    +0.000 A 
ATOM      8  C   UNL     1       5.882   3.789  15.697  0.00  0.00    +0.000 A 
ATOM      9  N   UNL     1       5.068   2.881  16.318  0.00  0.00    +0.000 N 
ATOM     10  H   UNL     1       4.585   2.125  15.856  0.00  0.00    +0.000 HD
ENDROOT
BRANCH   1  14
ATOM     11  N   UNL     1       1.899   4.740  19.609  0.00  0.00    +0.000 NA
ATOM     12  C   UNL     1       2.049   4.537  18.156  0.00  0.00    +0.000 C 
ATOM     13  C   UNL     1       2.438   3.092  17.823  0.00  0.00    +0.000 C 
ATOM     14  C   UNL     1       3.779   2.693  18.492  0.00  0.00    +0.000 C 
ATOM     15  C   UNL     1       3.905   1.153  18.534  0.00  0.00    +0.000 C 
ATOM     16  C   UNL     1       3.864   3.200  19.959  0.00  0.00    +0.000 C 
ATOM     17  C   UNL     1       3.237   4.577  20.206  0.00  0.00    +0.000 C 
BRANCH  11  19
ATOM     18  C   UNL     1       0.279   2.831  19.264  0.00  0.00    +0.000 C 
ATOM     19  C   UNL     1       0.840   3.893  20.213  0.00  0.00    +0.000 C 
ATOM     20  C   UNL     1       1.351   3.163  21.475  0.00  0.00    +0.000 C 
ENDBRANCH  11  19
ENDBRANCH   1  14
BRANCH   4  21
ATOM     21  C   UNL     1       7.430   6.800  17.378  0.00  0.00    +0.000 C 
ATOM     22  N   UNL     1       7.784   6.362  18.621  0.00  0.00    +0.000 N 
ATOM     23  O   UNL     1       7.414   7.996  17.110  0.00  0.00    +0.000 OA
ATOM     24  H   UNL     1       7.770   5.370  18.850  0.00  0.00    +0.000 HD
ATOM     25  H   UNL     1       8.012   7.036  19.335  0.00  0.00    +0.000 HD
ENDBRANCH   4  21
TORSDOF 3
ENDMDL
MODEL 8
REMARK VINA RESULT:      -6.1      3.894      5.590
REMARK  Name = 
REMARK  6 active torsions:
REMARK  status: ('A' for Active; 'I' for Inactive)
REMARK    1  A    between atoms: C_1  and  C_2
REMARK    2  A    between atoms: C_2  and  C_3
REMARK    3  A    between atoms: C_2  and  N_4
REMARK    4  A    between atoms: C_7  and  C_8
REMARK    5  A    between atoms: C_7  and  C_9
REMARK    6  A    between atoms: C_12  and  C_13
REMARK                            x       y       z     vdW  Elec       q    Type
REMARK                         _______ _______ _______ _____ _____    ______ ____
ROOT
ATOM      1  C   UNL     1       2.692   7.116  18.685  0.00  0.00    +0.000 A 
ATOM      2  N   UNL     1       2.296   7.491  19.884  0.00  0.00    +0.000 NA
ATOM      3  C   UNL     1       1.495   8.605  19.690  0.00  0.00    +0.000 A 
ATOM      4  C   UNL     1       0.729   9.358  20.599  0.00  0.00    +0.000 A 
ATOM      5  C   UNL     1      -0.039  10.428  20.101  0.00  0.00    +0.000 A 
ATOM      6  C   UNL     1      -0.048  10.738  18.740  0.00  0.00    +0.000 A 
ATOM      7  C   UNL     1       0.706   9.999  17.825  0.00  0.00    +0.000 A 
ATOM      8  C   UNL     1       1.461   8.945  18.344  0.00  0.00    +0.000 A 
ATOM      9  N   UNL     1       2.265   8.019  17.737  0.00  0.00    +0.000 N 
ATOM     10  H   UNL     1       2.411   7.942  16.741  0.00  0.00    +0.000 HD
ENDROOT
BRANCH   1  14
ATOM     11  N   UNL     1       6.088   6.026  17.189  0.00  0.00    +0.000 NA
ATOM     12  C   UNL     1       5.764   6.467  18.559  0.00  0.00    +0.000 C 
ATOM     13  C   UNL     1       4.609   5.655  19.156  0.00  0.00    +0.000 C 
ATOM     14  C   UNL     1       3.319   5.786  18.305  0.00  0.00    +0.000 C 
ATOM     15  C   UNL     1       2.349   4.632  18.645  0.00  0.00    +0.000 C 
ATOM     16  C   UNL     1       3.622   5.698  16.783  0.00  0.00    +0.000 C 
ATOM     17  C   UNL     1       4.930   6.366  16.343  0.00  0.00    +0.000 C 
BRANCH  11  19
ATOM     18  C   UNL     1       6.618   4.062  15.688  0.00  0.00    +0.000 C 
ATOM     19  C   UNL     1       6.518   4.608  17.116  0.00  0.00    +0.000 C 
ATOM     20  C   UNL     1       7.894   4.398  17.788  0.00  0.00    +0.000 C 
ENDBRANCH  11  19
ENDBRANCH   1  14
BRANCH   4  21
ATOM     21  C   UNL     1       0.678   9.027  22.041  0.00  0.00    +0.000 C 
ATOM     22  N   UNL     1       1.865   8.907  22.703  0.00  0.00    +0.000 N 
ATOM     23  O   UNL     1      -0.390   8.853  22.619  0.00  0.00    +0.000 OA
ATOM     24  H   UNL     1       2.750   9.024  22.214  0.00  0.00    +0.000 HD
ATOM     25  H   UNL     1       1.862   8.649  23.677  0.00  0.00    +0.000 HD
ENDBRANCH   4  21
TORSDOF 3
ENDMDL
MODEL 9
REMARK VINA RESULT:      -6.0      4.064      5.777
REMARK  Name = 
REMARK  6 active torsions:
REMARK  status: ('A' for Active; 'I' for Inactive)
REMARK    1  A    between atoms: C_1  and  C_2
REMARK    2  A    between atoms: C_2  and  C_3
REMARK    3  A    between atoms: C_2  and  N_4
REMARK    4  A    between atoms: C_7  and  C_8
REMARK    5  A    between atoms: C_7  and  C_9
REMARK    6  A    between atoms: C_12  and  C_13
REMARK                            x       y       z     vdW  Elec       q    Type
REMARK                         _______ _______ _______ _____ _____    ______ ____
ROOT
ATOM      1  C   UNL     1       2.325   6.597  18.931  0.00  0.00    +0.000 A 
ATOM      2  N   UNL     1       1.917   7.763  18.472  0.00  0.00    +0.000 NA
ATOM      3  C   UNL     1       1.548   8.503  19.584  0.00  0.00    +0.000 A 
ATOM      4  C   UNL     1       1.133   9.842  19.704  0.00  0.00    +0.000 A 
ATOM      5  C   UNL     1       0.865  10.347  20.990  0.00  0.00    +0.000 A 
ATOM      6  C   UNL     1       1.010   9.546  22.125  0.00  0.00    +0.000 A 
ATOM      7  C   UNL     1       1.422   8.215  22.022  0.00  0.00    +0.000 A 
ATOM      8  C   UNL     1       1.679   7.737  20.736  0.00  0.00    +0.000 A 
ATOM      9  N   UNL     1       2.123   6.522  20.291  0.00  0.00    +0.000 N 
ATOM     10  H   UNL     1       2.381   5.747  20.883  0.00  0.00    +0.000 HD
ENDROOT
BRANCH   1  14
ATOM     11  N   UNL     1       6.053   6.131  18.010  0.00  0.00    +0.000 NA
ATOM     12  C   UNL     1       5.374   5.933  19.305  0.00  0.00    +0.000 C 
ATOM     13  C   UNL     1       4.170   4.994  19.174  0.00  0.00    +0.000 C 
ATOM     14  C   UNL     1       3.120   5.547  18.175  0.00  0.00    +0.000 C 
ATOM     15  C   UNL     1       2.183   4.406  17.718  0.00  0.00    +0.000 C 
ATOM     16  C   UNL     1       3.791   6.129  16.899  0.00  0.00    +0.000 C 
ATOM     17  C   UNL     1       5.114   6.864  17.141  0.00  0.00    +0.000 C 
BRANCH  11  19
ATOM     18  C   UNL     1       6.786   4.927  15.913  0.00  0.00    +0.000 C 
ATOM     19  C   UNL     1       6.589   4.876  17.431  0.00  0.00    +0.000 C 
ATOM     20  C   UNL     1       7.948   4.496  18.062  0.00  0.00    +0.000 C 
ENDBRANCH  11  19
ENDBRANCH   1  14
BRANCH   4  21
ATOM     21  C   UNL     1       1.016  10.732  18.526  0.00  0.00    +0.000 C 
ATOM     22  N   UNL     1       2.135  10.929  17.771  0.00  0.00    +0.000 N 
ATOM     23  O   UNL     1      -0.043  11.283  18.245  0.00  0.00    +0.000 OA
ATOM     24  H   UNL     1       3.020  10.493  18.023  0.00  0.00    +0.000 HD
ATOM     25  H   UNL     1       2.094  11.557  16.984  0.00  0.00    +0.000 HD
ENDBRANCH   4  21
TORSDOF 3
ENDMDL
