MODEL 1
REMARK VINA RESULT:      -8.4      0.000      0.000
REMARK  Name = 
REMARK  6 active torsions:
REMARK  status: ('A' for Active; 'I' for Inactive)
REMARK    1  A    between atoms: C_1  and  N_2
REMARK    2  A    between atoms: N_2  and  C_3
REMARK    3  A    between atoms: N_2  and  C_12
REMARK    4  A    between atoms: N_14  and  S_15
REMARK    5  A    between atoms: S_15  and  C_18
REMARK    6  A    between atoms: C_21  and  N_22
REMARK                            x       y       z     vdW  Elec       q    Type
REMARK                         _______ _______ _______ _____ _____    ______ ____
ROOT
ATOM      1  C   UNL     1       3.129   4.077  19.640  0.00  0.00    +0.000 C 
ATOM      2  C   UNL     1       3.154   5.626  19.781  0.00  0.00    +0.000 C 
ATOM      3  N   UNL     1       2.061   6.155  18.916  0.00  0.00    +0.000 NA
ATOM      4  C   UNL     1       1.816   5.152  17.851  0.00  0.00    +0.000 C 
ATOM      5  C   UNL     1       2.190   3.831  18.466  0.00  0.00    +0.000 C 
ATOM      6  C   UNL     1       2.226   2.573  17.610  0.00  0.00    +0.000 C 
ATOM      7  C   UNL     1       1.119   2.758  18.599  0.00  0.00    +0.000 C 
ENDROOT
BRANCH   3   8
ATOM      8  S   UNL     1       2.246   7.728  18.303  0.00  0.00    +0.000 S 
ATOM      9  O   UNL     1       3.666   8.013  18.259  0.00  0.00    +0.000 OA
ATOM     10  O   UNL     1       1.419   7.850  17.123  0.00  0.00    +0.000 OA
BRANCH   8  11
ATOM     11  C   UNL     1       1.513   8.756  19.557  0.00  0.00    +0.000 A 
ATOM     12  C   UNL     1       0.966   9.997  19.213  0.00  0.00    +0.000 A 
ATOM     13  C   UNL     1       0.353  10.781  20.196  0.00  0.00    +0.000 A 
ATOM     14  C   UNL     1       0.290  10.311  21.515  0.00  0.00    +0.000 A 
ATOM     15  C   UNL     1       0.829   9.061  21.857  0.00  0.00    +0.000 A 
ATOM     16  C   UNL     1       1.438   8.279  20.872  0.00  0.00    +0.000 A 
BRANCH  14  17
ATOM     17  N   UNL     1      -0.352  11.134  22.549  0.00  0.00    +0.000 N 
ATOM     18  O   UNL     1      -0.957  10.548  23.456  0.00  0.00    +0.000 OA
ATOM     19  O   UNL     1      -0.258  12.366  22.445  0.00  0.00    +0.000 OA
ENDBRANCH  14  17
ENDBRANCH   8  11
ENDBRANCH   3   8
BRANCH   1  21
ATOM     20  C   UNL     1       4.869   2.269  20.049  0.00  0.00    +0.000 C 
ATOM     21  N   UNL     1       4.472   3.527  19.424  0.00  0.00    +0.000 N 
BRANCH  21  22
ATOM     22  C   UNL     1       5.497   4.279  18.868  0.00  0.00    +0.000 A 
ATOM     23  N   UNL     1       6.343   4.938  19.712  0.00  0.00    +0.000 NA
ATOM     24  C   UNL     1       7.447   5.539  19.232  0.00  0.00    +0.000 A 
ATOM     25  N   UNL     1       7.877   5.575  17.966  0.00  0.00    +0.000 NA
ATOM     26  C   UNL     1       7.027   4.936  17.151  0.00  0.00    +0.000 A 
ATOM     27  N   UNL     1       7.243   4.769  15.812  0.00  0.00    +0.000 N 
ATOM     28  C   UNL     1       6.202   4.073  15.259  0.00  0.00    +0.000 A 
ATOM     29  C   UNL     1       5.312   3.779  16.273  0.00  0.00    +0.000 A 
ATOM     30  C   UNL     1       5.833   4.307  17.492  0.00  0.00    +0.000 A 
ATOM     31  H   UNL     1       8.076   5.090  15.337  0.00  0.00    +0.000 HD
ENDBRANCH  21  22
ENDBRANCH   1  21
TORSDOF 5
ENDMDL
MODEL 2
REMARK VINA RESULT:      -7.5      0.764      1.684
REMARK  Name = 
REMARK  6 active torsions:
REMARK  status: ('A' for Active; 'I' for Inactive)
REMARK    1  A    between atoms: C_1  and  N_2
REMARK    2  A    between atoms: N_2  and  C_3
REMARK    3  A    between atoms: N_2  and  C_12
REMARK    4  A    between atoms: N_14  and  S_15
REMARK    5  A    between atoms: S_15  and  C_18
REMARK    6  A    between atoms: C_21  and  N_22
REMARK                            x       y       z     vdW  Elec       q    Type
REMARK                         _______ _______ _______ _____ _____    ______ ____
ROOT
ATOM      1  C   UNL     1       3.212   4.088  19.844  0.00  0.00    +0.000 C 
ATOM      2  C   UNL     1       3.412   5.629  19.761  0.00  0.00    +0.000 C 
ATOM      3  N   UNL     1       2.129   6.202  19.261  0.00  0.00    +0.000 NA
ATOM      4  C   UNL     1       1.441   5.139  18.489  0.00  0.00    +0.000 C 
ATOM      5  C   UNL     1       1.900   3.847  19.108  0.00  0.00    +0.000 C 
ATOM      6  C   UNL     1       1.528   2.519  18.468  0.00  0.00    +0.000 C 
ATOM      7  C   UNL     1       0.862   2.932  19.742  0.00  0.00    +0.000 C 
ENDROOT
BRANCH   3   8
ATOM      8  S   UNL     1       2.212   7.674  18.418  0.00  0.00    +0.000 S 
ATOM      9  O   UNL     1       3.613   7.999  18.248  0.00  0.00    +0.000 OA
ATOM     10  O   UNL     1       1.317   7.593  17.284  0.00  0.00    +0.000 OA
BRANCH   8  11
ATOM     11  C   UNL     1       1.504   8.849  19.552  0.00  0.00    +0.000 A 
ATOM     12  C   UNL     1       1.113  10.113  19.097  0.00  0.00    +0.000 A 
ATOM     13  C   UNL     1       0.518  11.015  19.985  0.00  0.00    +0.000 A 
ATOM     14  C   UNL     1       0.316  10.640  21.321  0.00  0.00    +0.000 A 
ATOM     15  C   UNL     1       0.698   9.367  21.773  0.00  0.00    +0.000 A 
ATOM     16  C   UNL     1       1.290   8.467  20.882  0.00  0.00    +0.000 A 
BRANCH  14  17
ATOM     17  N   UNL     1      -0.308  11.587  22.254  0.00  0.00    +0.000 N 
ATOM     18  O   UNL     1      -1.117  11.136  23.074  0.00  0.00    +0.000 OA
ATOM     19  O   UNL     1       0.008  12.783  22.158  0.00  0.00    +0.000 OA
ENDBRANCH  14  17
ENDBRANCH   8  11
ENDBRANCH   3   8
BRANCH   1  21
ATOM     20  C   UNL     1       4.932   2.218  19.950  0.00  0.00    +0.000 C 
ATOM     21  N   UNL     1       4.341   3.358  19.257  0.00  0.00    +0.000 N 
BRANCH  21  22
ATOM     22  C   UNL     1       5.069   3.862  18.187  0.00  0.00    +0.000 A 
ATOM     23  N   UNL     1       4.625   3.596  16.925  0.00  0.00    +0.000 NA
ATOM     24  C   UNL     1       5.195   4.199  15.866  0.00  0.00    +0.000 A 
ATOM     25  N   UNL     1       6.189   5.094  15.867  0.00  0.00    +0.000 NA
ATOM     26  C   UNL     1       6.620   5.330  17.113  0.00  0.00    +0.000 A 
ATOM     27  N   UNL     1       7.592   6.243  17.417  0.00  0.00    +0.000 N 
ATOM     28  C   UNL     1       7.804   6.258  18.770  0.00  0.00    +0.000 A 
ATOM     29  C   UNL     1       6.938   5.345  19.338  0.00  0.00    +0.000 A 
ATOM     30  C   UNL     1       6.161   4.757  18.295  0.00  0.00    +0.000 A 
ATOM     31  H   UNL     1       8.039   6.832  16.728  0.00  0.00    +0.000 HD
ENDBRANCH  21  22
ENDBRANCH   1  21
TORSDOF 5
ENDMDL
MODEL 3
REMARK VINA RESULT:      -7.5      0.774      1.989
REMARK  Name = 
REMARK  6 active torsions:
REMARK  status: ('A' for Active; 'I' for Inactive)
REMARK    1  A    between atoms: C_1  and  N_2
REMARK    2  A    between atoms: N_2  and  C_3
REMARK    3  A    between atoms: N_2  and  C_12
REMARK    4  A    between atoms: N_14  and  S_15
REMARK    5  A    between atoms: S_15  and  C_18
REMARK    6  A    between atoms: C_21  and  N_22
REMARK                            x       y       z     vdW  Elec       q    Type
REMARK                         _______ _______ _______ _____ _____    ______ ____
ROOT
ATOM      1  C   UNL     1       3.209   4.083  19.833  0.00  0.00    +0.000 C 
ATOM      2  C   UNL     1       3.404   5.624  19.758  0.00  0.00    +0.000 C 
ATOM      3  N   UNL     1       2.120   6.197  19.258  0.00  0.00    +0.000 NA
ATOM      4  C   UNL     1       1.437   5.135  18.480  0.00  0.00    +0.000 C 
ATOM      5  C   UNL     1       1.899   3.842  19.094  0.00  0.00    +0.000 C 
ATOM      6  C   UNL     1       1.532   2.515  18.446  0.00  0.00    +0.000 C 
ATOM      7  C   UNL     1       0.863   2.920  19.721  0.00  0.00    +0.000 C 
ENDROOT
BRANCH   3   8
ATOM      8  S   UNL     1       2.201   7.673  18.423  0.00  0.00    +0.000 S 
ATOM      9  O   UNL     1       3.601   8.013  18.275  0.00  0.00    +0.000 OA
ATOM     10  O   UNL     1       1.323   7.588  17.276  0.00  0.00    +0.000 OA
BRANCH   8  11
ATOM     11  C   UNL     1       1.464   8.835  19.552  0.00  0.00    +0.000 A 
ATOM     12  C   UNL     1       1.356   8.517  20.910  0.00  0.00    +0.000 A 
ATOM     13  C   UNL     1       0.815   9.452  21.799  0.00  0.00    +0.000 A 
ATOM     14  C   UNL     1       0.392  10.699  21.319  0.00  0.00    +0.000 A 
ATOM     15  C   UNL     1       0.511  11.020  19.958  0.00  0.00    +0.000 A 
ATOM     16  C   UNL     1       1.055  10.085  19.073  0.00  0.00    +0.000 A 
BRANCH  14  17
ATOM     17  N   UNL     1      -0.178  11.681  22.251  0.00  0.00    +0.000 N 
ATOM     18  O   UNL     1       0.090  12.874  22.063  0.00  0.00    +0.000 OA
ATOM     19  O   UNL     1      -0.885  11.254  23.176  0.00  0.00    +0.000 OA
ENDBRANCH  14  17
ENDBRANCH   8  11
ENDBRANCH   3   8
BRANCH   1  21
ATOM     20  C   UNL     1       4.933   2.217  19.932  0.00  0.00    +0.000 C 
ATOM     21  N   UNL     1       4.341   3.360  19.245  0.00  0.00    +0.000 N 
BRANCH  21  22
ATOM     22  C   UNL     1       5.071   3.872  18.180  0.00  0.00    +0.000 A 
ATOM     23  N   UNL     1       4.626   3.620  16.915  0.00  0.00    +0.000 NA
ATOM     24  C   UNL     1       5.198   4.232  15.862  0.00  0.00    +0.000 A 
ATOM     25  N   UNL     1       6.195   5.123  15.873  0.00  0.00    +0.000 NA
ATOM     26  C   UNL     1       6.628   5.345  17.121  0.00  0.00    +0.000 A 
ATOM     27  N   UNL     1       7.602   6.251  17.434  0.00  0.00    +0.000 N 
ATOM     28  C   UNL     1       7.815   6.252  18.786  0.00  0.00    +0.000 A 
ATOM     29  C   UNL     1       6.946   5.336  19.346  0.00  0.00    +0.000 A 
ATOM     30  C   UNL     1       6.167   4.761  18.296  0.00  0.00    +0.000 A 
ATOM     31  H   UNL     1       8.052   6.845  16.751  0.00  0.00    +0.000 HD
ENDBRANCH  21  22
ENDBRANCH   1  21
TORSDOF 5
ENDMDL
MODEL 4
REMARK VINA RESULT:      -7.3      0.828      1.202
REMARK  Name = 
REMARK  6 active torsions:
REMARK  status: ('A' for Active; 'I' for Inactive)
REMARK    1  A    between atoms: C_1  and  N_2
REMARK    2  A    between atoms: N_2  and  C_3
REMARK    3  A    between atoms: N_2  and  C_12
REMARK    4  A    between atoms: N_14  and  S_15
REMARK    5  A    between atoms: S_15  and  C_18
REMARK    6  A    between atoms: C_21  and  N_22
REMARK                            x       y       z     vdW  Elec       q    Type
REMARK                         _______ _______ _______ _____ _____    ______ ____
ROOT
ATOM      1  C   UNL     1       3.114   4.746  19.614  0.00  0.00    +0.000 C 
ATOM      2  C   UNL     1       3.142   6.301  19.666  0.00  0.00    +0.000 C 
ATOM      3  N   UNL     1       1.970   6.779  18.877  0.00  0.00    +0.000 NA
ATOM      4  C   UNL     1       1.635   5.718  17.897  0.00  0.00    +0.000 C 
ATOM      5  C   UNL     1       2.072   4.433  18.548  0.00  0.00    +0.000 C 
ATOM      6  C   UNL     1       2.039   3.130  17.763  0.00  0.00    +0.000 C 
ATOM      7  C   UNL     1       1.025   3.368  18.837  0.00  0.00    +0.000 C 
ENDROOT
BRANCH   3   8
ATOM      8  S   UNL     1       2.088   8.316  18.164  0.00  0.00    +0.000 S 
ATOM      9  O   UNL     1       3.495   8.652  18.087  0.00  0.00    +0.000 OA
ATOM     10  O   UNL     1       1.247   8.330  16.987  0.00  0.00    +0.000 OA
BRANCH   8  11
ATOM     11  C   UNL     1       1.325   9.393  19.358  0.00  0.00    +0.000 A 
ATOM     12  C   UNL     1       0.890   8.879  20.585  0.00  0.00    +0.000 A 
ATOM     13  C   UNL     1       0.330   9.739  21.536  0.00  0.00    +0.000 A 
ATOM     14  C   UNL     1       0.217  11.107  21.250  0.00  0.00    +0.000 A 
ATOM     15  C   UNL     1       0.664  11.621  20.023  0.00  0.00    +0.000 A 
ATOM     16  C   UNL     1       1.226  10.760  19.076  0.00  0.00    +0.000 A 
BRANCH  14  17
ATOM     17  N   UNL     1      -0.372  12.010  22.247  0.00  0.00    +0.000 N 
ATOM     18  O   UNL     1      -0.682  11.530  23.345  0.00  0.00    +0.000 OA
ATOM     19  O   UNL     1      -0.531  13.198  21.927  0.00  0.00    +0.000 OA
ENDBRANCH  14  17
ENDBRANCH   8  11
ENDBRANCH   3   8
BRANCH   1  21
ATOM     20  C   UNL     1       4.820   2.871  19.807  0.00  0.00    +0.000 C 
ATOM     21  N   UNL     1       4.435   4.186  19.307  0.00  0.00    +0.000 N 
BRANCH  21  22
ATOM     22  C   UNL     1       5.461   4.961  18.784  0.00  0.00    +0.000 A 
ATOM     23  N   UNL     1       6.468   5.346  19.621  0.00  0.00    +0.000 NA
ATOM     24  C   UNL     1       7.564   5.951  19.128  0.00  0.00    +0.000 A 
ATOM     25  N   UNL     1       7.841   6.235  17.851  0.00  0.00    +0.000 NA
ATOM     26  C   UNL     1       6.835   5.863  17.047  0.00  0.00    +0.000 A 
ATOM     27  N   UNL     1       6.870   5.984  15.686  0.00  0.00    +0.000 N 
ATOM     28  C   UNL     1       5.702   5.512  15.150  0.00  0.00    +0.000 A 
ATOM     29  C   UNL     1       4.913   5.070  16.194  0.00  0.00    +0.000 A 
ATOM     30  C   UNL     1       5.631   5.270  17.412  0.00  0.00    +0.000 A 
ATOM     31  H   UNL     1       7.670   6.336  15.177  0.00  0.00    +0.000 HD
ENDBRANCH  21  22
ENDBRANCH   1  21
TORSDOF 5
ENDMDL
MODEL 5
REMARK VINA RESULT:      -7.0      3.499     10.056
REMARK  Name = 
REMARK  6 active torsions:
REMARK  status: ('A' for Active; 'I' for Inactive)
REMARK    1  A    between atoms: C_1  and  N_2
REMARK    2  A    between atoms: N_2  and  C_3
REMARK    3  A    between atoms: N_2  and  C_12
REMARK    4  A    between atoms: N_14  and  S_15
REMARK    5  A    between atoms: S_15  and  C_18
REMARK    6  A    between atoms: C_21  and  N_22
REMARK                            x       y       z     vdW  Elec       q    Type
REMARK                         _______ _______ _______ _____ _____    ______ ____
ROOT
ATOM      1  C   UNL     1      -0.762  12.492  19.590  0.00  0.00    +0.000 C 
ATOM      2  C   UNL     1       0.254  11.730  20.487  0.00  0.00    +0.000 C 
ATOM      3  N   UNL     1       0.248  10.309  20.033  0.00  0.00    +0.000 NA
ATOM      4  C   UNL     1      -1.069  10.053  19.402  0.00  0.00    +0.000 C 
ATOM      5  C   UNL     1      -1.505  11.384  18.853  0.00  0.00    +0.000 C 
ATOM      6  C   UNL     1      -2.901  11.551  18.273  0.00  0.00    +0.000 C 
ATOM      7  C   UNL     1      -1.722  11.520  17.353  0.00  0.00    +0.000 C 
ENDROOT
BRANCH   3   8
ATOM      8  S   UNL     1       0.667   9.126  21.177  0.00  0.00    +0.000 S 
ATOM      9  O   UNL     1       1.575   9.739  22.124  0.00  0.00    +0.000 OA
ATOM     10  O   UNL     1      -0.549   8.475  21.615  0.00  0.00    +0.000 OA
BRANCH   8  11
ATOM     11  C   UNL     1       1.581   7.929  20.228  0.00  0.00    +0.000 A 
ATOM     12  C   UNL     1       1.740   6.626  20.714  0.00  0.00    +0.000 A 
ATOM     13  C   UNL     1       2.422   5.679  19.943  0.00  0.00    +0.000 A 
ATOM     14  C   UNL     1       2.935   6.046  18.690  0.00  0.00    +0.000 A 
ATOM     15  C   UNL     1       2.765   7.350  18.201  0.00  0.00    +0.000 A 
ATOM     16  C   UNL     1       2.080   8.293  18.972  0.00  0.00    +0.000 A 
BRANCH  14  17
ATOM     17  N   UNL     1       3.653   5.052  17.881  0.00  0.00    +0.000 N 
ATOM     18  O   UNL     1       2.978   4.256  17.218  0.00  0.00    +0.000 OA
ATOM     19  O   UNL     1       4.893   5.066  17.919  0.00  0.00    +0.000 OA
ENDBRANCH  14  17
ENDBRANCH   8  11
ENDBRANCH   3   8
BRANCH   1  21
ATOM     20  C   UNL     1      -1.534  14.804  20.314  0.00  0.00    +0.000 C 
ATOM     21  N   UNL     1      -1.651  13.351  20.380  0.00  0.00    +0.000 N 
BRANCH  21  22
ATOM     22  C   UNL     1      -2.436  12.851  21.411  0.00  0.00    +0.000 A 
ATOM     23  N   UNL     1      -1.810  12.411  22.540  0.00  0.00    +0.000 NA
ATOM     24  C   UNL     1      -2.529  12.077  23.627  0.00  0.00    +0.000 A 
ATOM     25  N   UNL     1      -3.857  12.133  23.781  0.00  0.00    +0.000 NA
ATOM     26  C   UNL     1      -4.454  12.552  22.658  0.00  0.00    +0.000 A 
ATOM     27  N   UNL     1      -5.801  12.755  22.547  0.00  0.00    +0.000 N 
ATOM     28  C   UNL     1      -6.101  13.189  21.284  0.00  0.00    +0.000 A 
ATOM     29  C   UNL     1      -4.915  13.277  20.581  0.00  0.00    +0.000 A 
ATOM     30  C   UNL     1      -3.851  12.891  21.450  0.00  0.00    +0.000 A 
ATOM     31  H   UNL     1      -6.448  12.632  23.314  0.00  0.00    +0.000 HD
ENDBRANCH  21  22
ENDBRANCH   1  21
TORSDOF 5
ENDMDL
MODEL 6
REMARK VINA RESULT:      -6.9      4.012      9.227
REMARK  Name = 
REMARK  6 active torsions:
REMARK  status: ('A' for Active; 'I' for Inactive)
REMARK    1  A    between atoms: C_1  and  N_2
REMARK    2  A    between atoms: N_2  and  C_3
REMARK    3  A    between atoms: N_2  and  C_12
REMARK    4  A    between atoms: N_14  and  S_15
REMARK    5  A    between atoms: S_15  and  C_18
REMARK    6  A    between atoms: C_21  and  N_22
REMARK                            x       y       z     vdW  Elec       q    Type
REMARK                         _______ _______ _______ _____ _____    ______ ____
ROOT
ATOM      1  C   UNL     1       0.486  12.140  19.178  0.00  0.00    +0.000 C 
ATOM      2  C   UNL     1       1.338  11.032  19.860  0.00  0.00    +0.000 C 
ATOM      3  N   UNL     1       0.479   9.815  19.939  0.00  0.00    +0.000 NA
ATOM      4  C   UNL     1      -0.932  10.270  19.934  0.00  0.00    +0.000 C 
ATOM      5  C   UNL     1      -0.924  11.562  19.163  0.00  0.00    +0.000 C 
ATOM      6  C   UNL     1      -2.181  12.415  19.090  0.00  0.00    +0.000 C 
ATOM      7  C   UNL     1      -1.739  11.652  17.881  0.00  0.00    +0.000 C 
ENDROOT
BRANCH   3   8
ATOM      8  S   UNL     1       0.808   8.711  21.187  0.00  0.00    +0.000 S 
ATOM      9  O   UNL     1       1.732   9.351  22.101  0.00  0.00    +0.000 OA
ATOM     10  O   UNL     1      -0.451   8.170  21.650  0.00  0.00    +0.000 OA
BRANCH   8  11
ATOM     11  C   UNL     1       1.668   7.389  20.363  0.00  0.00    +0.000 A 
ATOM     12  C   UNL     1       1.637   6.096  20.895  0.00  0.00    +0.000 A 
ATOM     13  C   UNL     1       2.279   5.053  20.219  0.00  0.00    +0.000 A 
ATOM     14  C   UNL     1       2.944   5.316  19.013  0.00  0.00    +0.000 A 
ATOM     15  C   UNL     1       2.965   6.612  18.475  0.00  0.00    +0.000 A 
ATOM     16  C   UNL     1       2.319   7.651  19.151  0.00  0.00    +0.000 A 
BRANCH  14  17
ATOM     17  N   UNL     1       3.620   4.222  18.303  0.00  0.00    +0.000 N 
ATOM     18  O   UNL     1       3.175   3.895  17.196  0.00  0.00    +0.000 OA
ATOM     19  O   UNL     1       4.590   3.686  18.861  0.00  0.00    +0.000 OA
ENDBRANCH  14  17
ENDBRANCH   8  11
ENDBRANCH   3   8
BRANCH   1  21
ATOM     20  C   UNL     1       0.236  13.499  21.312  0.00  0.00    +0.000 C 
ATOM     21  N   UNL     1       0.574  13.417  19.895  0.00  0.00    +0.000 N 
BRANCH  21  22
ATOM     22  C   UNL     1       0.703  14.629  19.231  0.00  0.00    +0.000 A 
ATOM     23  N   UNL     1      -0.337  15.509  19.291  0.00  0.00    +0.000 NA
ATOM     24  C   UNL     1      -0.196  16.758  18.809  0.00  0.00    +0.000 A 
ATOM     25  N   UNL     1       0.891  17.306  18.257  0.00  0.00    +0.000 NA
ATOM     26  C   UNL     1       1.896  16.422  18.193  0.00  0.00    +0.000 A 
ATOM     27  N   UNL     1       3.144  16.727  17.726  0.00  0.00    +0.000 N 
ATOM     28  C   UNL     1       3.946  15.620  17.795  0.00  0.00    +0.000 A 
ATOM     29  C   UNL     1       3.195  14.593  18.331  0.00  0.00    +0.000 A 
ATOM     30  C   UNL     1       1.887  15.095  18.609  0.00  0.00    +0.000 A 
ATOM     31  H   UNL     1       3.414  17.652  17.419  0.00  0.00    +0.000 HD
ENDBRANCH  21  22
ENDBRANCH   1  21
TORSDOF 5
ENDMDL
MODEL 7
REMARK VINA RESULT:      -6.9      2.325      3.951
REMARK  Name = 
REMARK  6 active torsions:
REMARK  status: ('A' for Active; 'I' for Inactive)
REMARK    1  A    between atoms: C_1  and  N_2
REMARK    2  A    between atoms: N_2  and  C_3
REMARK    3  A    between atoms: N_2  and  C_12
REMARK    4  A    between atoms: N_14  and  S_15
REMARK    5  A    between atoms: S_15  and  C_18
REMARK    6  A    between atoms: C_21  and  N_22
REMARK                            x       y       z     vdW  Elec       q    Type
REMARK                         _______ _______ _______ _____ _____    ______ ____
ROOT
ATOM      1  C   UNL     1       5.642   5.791  16.677  0.00  0.00    +0.000 C 
ATOM      2  C   UNL     1       4.154   6.033  17.060  0.00  0.00    +0.000 C 
ATOM      3  N   UNL     1       4.117   6.230  18.538  0.00  0.00    +0.000 NA
ATOM      4  C   UNL     1       5.300   5.540  19.105  0.00  0.00    +0.000 C 
ATOM      5  C   UNL     1       6.337   5.583  18.016  0.00  0.00    +0.000 C 
ATOM      6  C   UNL     1       7.644   4.820  18.174  0.00  0.00    +0.000 C 
ATOM      7  C   UNL     1       7.646   6.312  18.282  0.00  0.00    +0.000 C 
ENDROOT
BRANCH   3   8
ATOM      8  S   UNL     1       2.676   5.825  19.341  0.00  0.00    +0.000 S 
ATOM      9  O   UNL     1       1.810   5.175  18.378  0.00  0.00    +0.000 OA
ATOM     10  O   UNL     1       3.023   5.185  20.591  0.00  0.00    +0.000 OA
BRANCH   8  11
ATOM     11  C   UNL     1       1.964   7.405  19.748  0.00  0.00    +0.000 A 
ATOM     12  C   UNL     1       1.879   8.405  18.774  0.00  0.00    +0.000 A 
ATOM     13  C   UNL     1       1.280   9.629  19.089  0.00  0.00    +0.000 A 
ATOM     14  C   UNL     1       0.767   9.838  20.377  0.00  0.00    +0.000 A 
ATOM     15  C   UNL     1       0.844   8.829  21.350  0.00  0.00    +0.000 A 
ATOM     16  C   UNL     1       1.441   7.606  21.031  0.00  0.00    +0.000 A 
BRANCH  14  17
ATOM     17  N   UNL     1       0.140  11.123  20.710  0.00  0.00    +0.000 N 
ATOM     18  O   UNL     1       0.731  11.862  21.507  0.00  0.00    +0.000 OA
ATOM     19  O   UNL     1      -0.949  11.388  20.178  0.00  0.00    +0.000 OA
ENDBRANCH  14  17
ENDBRANCH   8  11
ENDBRANCH   3   8
BRANCH   1  21
ATOM     20  C   UNL     1       5.592   3.286  16.247  0.00  0.00    +0.000 C 
ATOM     21  N   UNL     1       5.793   4.649  15.768  0.00  0.00    +0.000 N 
BRANCH  21  22
ATOM     22  C   UNL     1       6.391   4.773  14.521  0.00  0.00    +0.000 A 
ATOM     23  N   UNL     1       7.543   5.498  14.429  0.00  0.00    +0.000 NA
ATOM     24  C   UNL     1       8.249   5.506  13.283  0.00  0.00    +0.000 A 
ATOM     25  N   UNL     1       7.978   4.851  12.149  0.00  0.00    +0.000 NA
ATOM     26  C   UNL     1       6.836   4.159  12.254  0.00  0.00    +0.000 A 
ATOM     27  N   UNL     1       6.346   3.354  11.264  0.00  0.00    +0.000 N 
ATOM     28  C   UNL     1       5.173   2.779  11.675  0.00  0.00    +0.000 A 
ATOM     29  C   UNL     1       4.921   3.219  12.959  0.00  0.00    +0.000 A 
ATOM     30  C   UNL     1       5.984   4.087  13.351  0.00  0.00    +0.000 A 
ATOM     31  H   UNL     1       6.822   3.195  10.386  0.00  0.00    +0.000 HD
ENDBRANCH  21  22
ENDBRANCH   1  21
TORSDOF 5
ENDMDL
MODEL 8
REMARK VINA RESULT:      -6.8      3.992      9.181
REMARK  Name = 
REMARK  6 active torsions:
REMARK  status: ('A' for Active; 'I' for Inactive)
REMARK    1  A    between atoms: C_1  and  N_2
REMARK    2  A    between atoms: N_2  and  C_3
REMARK    3  A    between atoms: N_2  and  C_12
REMARK    4  A    between atoms: N_14  and  S_15
REMARK    5  A    between atoms: S_15  and  C_18
REMARK    6  A    between atoms: C_21  and  N_22
REMARK                            x       y       z     vdW  Elec       q    Type
REMARK                         _______ _______ _______ _____ _____    ______ ____
ROOT
ATOM      1  C   UNL     1       0.473  12.116  19.158  0.00  0.00    +0.000 C 
ATOM      2  C   UNL     1       1.337  10.996  19.803  0.00  0.00    +0.000 C 
ATOM      3  N   UNL     1       0.486   9.772  19.856  0.00  0.00    +0.000 NA
ATOM      4  C   UNL     1      -0.928  10.218  19.875  0.00  0.00    +0.000 C 
ATOM      5  C   UNL     1      -0.933  11.530  19.139  0.00  0.00    +0.000 C 
ATOM      6  C   UNL     1      -2.197  12.378  19.099  0.00  0.00    +0.000 C 
ATOM      7  C   UNL     1      -1.760  11.650  17.867  0.00  0.00    +0.000 C 
ENDROOT
BRANCH   3   8
ATOM      8  S   UNL     1       0.831   8.637  21.072  0.00  0.00    +0.000 S 
ATOM      9  O   UNL     1       1.760   9.257  21.994  0.00  0.00    +0.000 OA
ATOM     10  O   UNL     1      -0.421   8.076  21.530  0.00  0.00    +0.000 OA
BRANCH   8  11
ATOM     11  C   UNL     1       1.691   7.342  20.205  0.00  0.00    +0.000 A 
ATOM     12  C   UNL     1       2.351   7.624  19.003  0.00  0.00    +0.000 A 
ATOM     13  C   UNL     1       3.061   6.612  18.349  0.00  0.00    +0.000 A 
ATOM     14  C   UNL     1       3.107   5.327  18.909  0.00  0.00    +0.000 A 
ATOM     15  C   UNL     1       2.454   5.049  20.119  0.00  0.00    +0.000 A 
ATOM     16  C   UNL     1       1.748   6.063  20.772  0.00  0.00    +0.000 A 
BRANCH  14  17
ATOM     17  N   UNL     1       3.851   4.262  18.222  0.00  0.00    +0.000 N 
ATOM     18  O   UNL     1       4.234   3.301  18.900  0.00  0.00    +0.000 OA
ATOM     19  O   UNL     1       4.058   4.396  17.006  0.00  0.00    +0.000 OA
ENDBRANCH  14  17
ENDBRANCH   8  11
ENDBRANCH   3   8
BRANCH   1  21
ATOM     20  C   UNL     1       0.234  13.416  21.330  0.00  0.00    +0.000 C 
ATOM     21  N   UNL     1       0.559  13.374  19.909  0.00  0.00    +0.000 N 
BRANCH  21  22
ATOM     22  C   UNL     1       0.675  14.604  19.276  0.00  0.00    +0.000 A 
ATOM     23  N   UNL     1      -0.343  15.500  19.421  0.00  0.00    +0.000 NA
ATOM     24  C   UNL     1      -0.205  16.761  18.971  0.00  0.00    +0.000 A 
ATOM     25  N   UNL     1       0.861  17.308  18.377  0.00  0.00    +0.000 NA
ATOM     26  C   UNL     1       1.844  16.409  18.230  0.00  0.00    +0.000 A 
ATOM     27  N   UNL     1       3.069  16.706  17.704  0.00  0.00    +0.000 N 
ATOM     28  C   UNL     1       3.853  15.584  17.694  0.00  0.00    +0.000 A 
ATOM     29  C   UNL     1       3.113  14.554  18.239  0.00  0.00    +0.000 A 
ATOM     30  C   UNL     1       1.832  15.069  18.604  0.00  0.00    +0.000 A 
ATOM     31  H   UNL     1       3.340  17.636  17.411  0.00  0.00    +0.000 HD
ENDBRANCH  21  22
ENDBRANCH   1  21
TORSDOF 5
ENDMDL
MODEL 9
REMARK VINA RESULT:      -6.8      2.324      4.014
REMARK  Name = 
REMARK  6 active torsions:
REMARK  status: ('A' for Active; 'I' for Inactive)
REMARK    1  A    between atoms: C_1  and  N_2
REMARK    2  A    between atoms: N_2  and  C_3
REMARK    3  A    between atoms: N_2  and  C_12
REMARK    4  A    between atoms: N_14  and  S_15
REMARK    5  A    between atoms: S_15  and  C_18
REMARK    6  A    between atoms: C_21  and  N_22
REMARK                            x       y       z     vdW  Elec       q    Type
REMARK                         _______ _______ _______ _____ _____    ______ ____
ROOT
ATOM      1  C   UNL     1       5.589   5.793  16.666  0.00  0.00    +0.000 C 
ATOM      2  C   UNL     1       4.098   5.987  17.062  0.00  0.00    +0.000 C 
ATOM      3  N   UNL     1       4.069   6.201  18.538  0.00  0.00    +0.000 NA
ATOM      4  C   UNL     1       5.281   5.559  19.101  0.00  0.00    +0.000 C 
ATOM      5  C   UNL     1       6.305   5.626  18.000  0.00  0.00    +0.000 C 
ATOM      6  C   UNL     1       7.639   4.910  18.155  0.00  0.00    +0.000 C 
ATOM      7  C   UNL     1       7.590   6.403  18.245  0.00  0.00    +0.000 C 
ENDROOT
BRANCH   3   8
ATOM      8  S   UNL     1       2.650   5.756  19.360  0.00  0.00    +0.000 S 
ATOM      9  O   UNL     1       1.781   5.103  18.403  0.00  0.00    +0.000 OA
ATOM     10  O   UNL     1       3.032   5.105  20.594  0.00  0.00    +0.000 OA
BRANCH   8  11
ATOM     11  C   UNL     1       1.915   7.315  19.803  0.00  0.00    +0.000 A 
ATOM     12  C   UNL     1       1.421   7.512  21.098  0.00  0.00    +0.000 A 
ATOM     13  C   UNL     1       0.884   8.753  21.453  0.00  0.00    +0.000 A 
ATOM     14  C   UNL     1       0.851   9.789  20.507  0.00  0.00    +0.000 A 
ATOM     15  C   UNL     1       1.357   9.592  19.213  0.00  0.00    +0.000 A 
ATOM     16  C   UNL     1       1.896   8.351  18.862  0.00  0.00    +0.000 A 
BRANCH  14  17
ATOM     17  N   UNL     1       0.286  11.092  20.878  0.00  0.00    +0.000 N 
ATOM     18  O   UNL     1      -0.942  11.226  20.808  0.00  0.00    +0.000 OA
ATOM     19  O   UNL     1       1.074  11.983  21.231  0.00  0.00    +0.000 OA
ENDBRANCH  14  17
ENDBRANCH   8  11
ENDBRANCH   3   8
BRANCH   1  21
ATOM     20  C   UNL     1       5.589   3.284  16.258  0.00  0.00    +0.000 C 
ATOM     21  N   UNL     1       5.772   4.647  15.770  0.00  0.00    +0.000 N 
BRANCH  21  22
ATOM     22  C   UNL     1       6.382   4.770  14.529  0.00  0.00    +0.000 A 
ATOM     23  N   UNL     1       7.532   5.500  14.447  0.00  0.00    +0.000 NA
ATOM     24  C   UNL     1       8.249   5.509  13.309  0.00  0.00    +0.000 A 
ATOM     25  N   UNL     1       7.993   4.851  12.173  0.00  0.00    +0.000 NA
ATOM     26  C   UNL     1       6.854   4.153  12.267  0.00  0.00    +0.000 A 
ATOM     27  N   UNL     1       6.377   3.344  11.275  0.00  0.00    +0.000 N 
ATOM     28  C   UNL     1       5.203   2.765  11.674  0.00  0.00    +0.000 A 
ATOM     29  C   UNL     1       4.935   3.206  12.955  0.00  0.00    +0.000 A 
ATOM     30  C   UNL     1       5.990   4.080  13.356  0.00  0.00    +0.000 A 
ATOM     31  H   UNL     1       6.863   3.186  10.402  0.00  0.00    +0.000 HD
ENDBRANCH  21  22
ENDBRANCH   1  21
TORSDOF 5
ENDMDL
