MODEL 1
REMARK VINA RESULT:      -8.0      0.000      0.000
REMARK  Name = 
REMARK  9 active torsions:
REMARK  status: ('A' for Active; 'I' for Inactive)
REMARK    1  A    between atoms: C_1  and  O_2
REMARK    2  A    between atoms: O_2  and  C_3
REMARK    3  A    between atoms: C_5  and  C_6
REMARK    4  A    between atoms: C_7  and  C_8
REMARK    5  A    between atoms: C_8  and  C_10
REMARK    6  A    between atoms: C_10  and  C_11
REMARK    7  A    between atoms: C_11  and  C_12
REMARK    8  A    between atoms: C_12  and  N_13
REMARK    9  A    between atoms: C_25  and  O_26
REMARK                            x       y       z     vdW  Elec       q    Type
REMARK                         _______ _______ _______ _____ _____    ______ ____
ROOT
ATOM      1  C   UNL     1       2.333   4.693  20.130  0.00  0.00    +0.000 C 
ATOM      2  O   UNL     1       2.016   4.191  21.209  0.00  0.00    +0.000 OA
ENDROOT
BRANCH   1   3
ATOM      3  C   UNL     1       3.071   3.883  19.064  0.00  0.00    +0.000 C 
ATOM      4  C   UNL     1       3.584   2.569  19.653  0.00  0.00    +0.000 C 
ATOM      5  C   UNL     1       3.550   1.611  18.496  0.00  0.00    +0.000 C 
ATOM      6  O   UNL     1       2.487   2.066  17.662  0.00  0.00    +0.000 OA
ATOM      7  C   UNL     1       2.167   3.355  17.979  0.00  0.00    +0.000 C 
ATOM      8  O   UNL     1       1.305   3.990  17.391  0.00  0.00    +0.000 OA
BRANCH   3   9
ATOM      9  C   UNL     1       4.163   4.743  18.385  0.00  0.00    +0.000 C 
BRANCH   9  10
ATOM     10  C   UNL     1       5.374   5.029  19.288  0.00  0.00    +0.000 C 
BRANCH  10  11
ATOM     11  N   UNL     1       6.654   4.666  18.656  0.00  0.00    +0.000 NA
ATOM     12  C   UNL     1       7.685   5.676  18.967  0.00  0.00    +0.000 C 
ATOM     13  C   UNL     1       7.511   6.752  17.912  0.00  0.00    +0.000 C 
ATOM     14  C   UNL     1       7.179   5.956  16.667  0.00  0.00    +0.000 C 
ATOM     15  C   UNL     1       6.597   4.643  17.180  0.00  0.00    +0.000 C 
ENDBRANCH  10  11
ENDBRANCH   9  10
ENDBRANCH   3   9
ENDBRANCH   1   3
BRANCH   1  17
ATOM     16  C   UNL     1       1.574   6.897  20.888  0.00  0.00    +0.000 C 
ATOM     17  C   UNL     1       2.080   6.145  19.898  0.00  0.00    +0.000 C 
BRANCH  16  20
ATOM     18  C   UNL     1       0.405  10.396  21.747  0.00  0.00    +0.000 A 
ATOM     19  C   UNL     1       0.778   9.044  21.853  0.00  0.00    +0.000 A 
ATOM     20  C   UNL     1       1.258   8.326  20.749  0.00  0.00    +0.000 A 
ATOM     21  C   UNL     1       1.346   8.975  19.515  0.00  0.00    +0.000 A 
ATOM     22  C   UNL     1       0.981  10.316  19.389  0.00  0.00    +0.000 A 
ATOM     23  C   UNL     1       0.510  11.024  20.497  0.00  0.00    +0.000 A 
BRANCH  18  25
ATOM     24  C   UNL     1      -1.435  11.092  23.108  0.00  0.00    +0.000 C 
ATOM     25  O   UNL     1      -0.034  10.928  22.928  0.00  0.00    +0.000 OA
ENDBRANCH  18  25
BRANCH  23  26
ATOM     26  O   UNL     1       0.152  12.330  20.314  0.00  0.00    +0.000 OA
ATOM     27  H   UNL     1      -0.607  12.537  20.883  0.00  0.00    +0.000 HD
ENDBRANCH  23  26
ENDBRANCH  16  20
ENDBRANCH   1  17
TORSDOF 8
ENDMDL
MODEL 2
REMARK VINA RESULT:      -8.0      2.631      4.504
REMARK  Name = 
REMARK  9 active torsions:
REMARK  status: ('A' for Active; 'I' for Inactive)
REMARK    1  A    between atoms: C_1  and  O_2
REMARK    2  A    between atoms: O_2  and  C_3
REMARK    3  A    between atoms: C_5  and  C_6
REMARK    4  A    between atoms: C_7  and  C_8
REMARK    5  A    between atoms: C_8  and  C_10
REMARK    6  A    between atoms: C_10  and  C_11
REMARK    7  A    between atoms: C_11  and  C_12
REMARK    8  A    between atoms: C_12  and  N_13
REMARK    9  A    between atoms: C_25  and  O_26
REMARK                            x       y       z     vdW  Elec       q    Type
REMARK                         _______ _______ _______ _____ _____    ______ ____
ROOT
ATOM      1  C   UNL     1       4.768   6.565  16.617  0.00  0.00    +0.000 C 
ATOM      2  O   UNL     1       4.803   7.284  15.618  0.00  0.00    +0.000 OA
ENDROOT
BRANCH   1   3
ATOM      3  C   UNL     1       5.548   5.251  16.676  0.00  0.00    +0.000 C 
ATOM      4  C   UNL     1       5.491   4.536  15.326  0.00  0.00    +0.000 C 
ATOM      5  C   UNL     1       6.798   3.797  15.247  0.00  0.00    +0.000 C 
ATOM      6  O   UNL     1       7.718   4.580  16.004  0.00  0.00    +0.000 OA
ATOM      7  C   UNL     1       7.038   5.444  16.813  0.00  0.00    +0.000 C 
ATOM      8  O   UNL     1       7.593   6.209  17.587  0.00  0.00    +0.000 OA
BRANCH   3   9
ATOM      9  C   UNL     1       5.077   4.391  17.871  0.00  0.00    +0.000 C 
BRANCH   9  10
ATOM     10  C   UNL     1       4.102   3.269  17.477  0.00  0.00    +0.000 C 
BRANCH  10  11
ATOM     11  N   UNL     1       3.391   2.699  18.633  0.00  0.00    +0.000 NA
ATOM     12  C   UNL     1       2.025   2.291  18.247  0.00  0.00    +0.000 C 
ATOM     13  C   UNL     1       1.185   3.545  18.395  0.00  0.00    +0.000 C 
ATOM     14  C   UNL     1       1.763   4.198  19.634  0.00  0.00    +0.000 C 
ATOM     15  C   UNL     1       3.188   3.663  19.734  0.00  0.00    +0.000 C 
ENDBRANCH  10  11
ENDBRANCH   9  10
ENDBRANCH   3   9
ENDBRANCH   1   3
BRANCH   1  17
ATOM     16  C   UNL     1       2.944   7.889  17.578  0.00  0.00    +0.000 C 
ATOM     17  C   UNL     1       3.869   6.931  17.749  0.00  0.00    +0.000 C 
BRANCH  16  20
ATOM     18  C   UNL     1       0.365   9.957  19.427  0.00  0.00    +0.000 A 
ATOM     19  C   UNL     1       1.202   9.451  18.418  0.00  0.00    +0.000 A 
ATOM     20  C   UNL     1       2.035   8.345  18.640  0.00  0.00    +0.000 A 
ATOM     21  C   UNL     1       2.036   7.752  19.905  0.00  0.00    +0.000 A 
ATOM     22  C   UNL     1       1.213   8.240  20.921  0.00  0.00    +0.000 A 
ATOM     23  C   UNL     1       0.382   9.338  20.686  0.00  0.00    +0.000 A 
BRANCH  18  25
ATOM     24  C   UNL     1      -1.673  10.794  18.495  0.00  0.00    +0.000 C 
ATOM     25  O   UNL     1      -0.375  11.034  19.024  0.00  0.00    +0.000 OA
ENDBRANCH  18  25
BRANCH  23  26
ATOM     26  O   UNL     1      -0.393   9.784  21.719  0.00  0.00    +0.000 OA
ATOM     27  H   UNL     1      -0.946   9.054  22.042  0.00  0.00    +0.000 HD
ENDBRANCH  23  26
ENDBRANCH  16  20
ENDBRANCH   1  17
TORSDOF 8
ENDMDL
MODEL 3
REMARK VINA RESULT:      -7.9      4.741      7.180
REMARK  Name = 
REMARK  9 active torsions:
REMARK  status: ('A' for Active; 'I' for Inactive)
REMARK    1  A    between atoms: C_1  and  O_2
REMARK    2  A    between atoms: O_2  and  C_3
REMARK    3  A    between atoms: C_5  and  C_6
REMARK    4  A    between atoms: C_7  and  C_8
REMARK    5  A    between atoms: C_8  and  C_10
REMARK    6  A    between atoms: C_10  and  C_11
REMARK    7  A    between atoms: C_11  and  C_12
REMARK    8  A    between atoms: C_12  and  N_13
REMARK    9  A    between atoms: C_25  and  O_26
REMARK                            x       y       z     vdW  Elec       q    Type
REMARK                         _______ _______ _______ _____ _____    ______ ____
ROOT
ATOM      1  C   UNL     1       7.626   6.901  18.177  0.00  0.00    +0.000 C 
ATOM      2  O   UNL     1       8.325   6.319  19.007  0.00  0.00    +0.000 OA
ENDROOT
BRANCH   1   3
ATOM      3  C   UNL     1       6.451   6.200  17.496  0.00  0.00    +0.000 C 
ATOM      4  C   UNL     1       5.245   7.135  17.417  0.00  0.00    +0.000 C 
ATOM      5  C   UNL     1       4.535   6.713  16.161  0.00  0.00    +0.000 C 
ATOM      6  O   UNL     1       5.557   6.213  15.302  0.00  0.00    +0.000 OA
ATOM      7  C   UNL     1       6.680   5.934  16.028  0.00  0.00    +0.000 C 
ATOM      8  O   UNL     1       7.693   5.465  15.534  0.00  0.00    +0.000 OA
BRANCH   3   9
ATOM      9  C   UNL     1       6.159   4.842  18.176  0.00  0.00    +0.000 C 
BRANCH   9  10
ATOM     10  C   UNL     1       5.042   4.908  19.230  0.00  0.00    +0.000 C 
BRANCH  10  11
ATOM     11  N   UNL     1       4.209   3.694  19.254  0.00  0.00    +0.000 NA
ATOM     12  C   UNL     1       3.756   3.354  17.890  0.00  0.00    +0.000 C 
ATOM     13  C   UNL     1       2.495   4.172  17.681  0.00  0.00    +0.000 C 
ATOM     14  C   UNL     1       1.827   4.121  19.040  0.00  0.00    +0.000 C 
ATOM     15  C   UNL     1       2.959   3.851  20.026  0.00  0.00    +0.000 C 
ENDBRANCH  10  11
ENDBRANCH   9  10
ENDBRANCH   3   9
ENDBRANCH   1   3
BRANCH   1  17
ATOM     16  C   UNL     1       8.693   9.069  18.590  0.00  0.00    +0.000 C 
ATOM     17  C   UNL     1       7.995   8.284  17.754  0.00  0.00    +0.000 C 
BRANCH  16  20
ATOM     18  C   UNL     1       8.429  12.690  17.511  0.00  0.00    +0.000 A 
ATOM     19  C   UNL     1       8.097  11.373  17.876  0.00  0.00    +0.000 A 
ATOM     20  C   UNL     1       9.075  10.455  18.281  0.00  0.00    +0.000 A 
ATOM     21  C   UNL     1      10.410  10.865  18.303  0.00  0.00    +0.000 A 
ATOM     22  C   UNL     1      10.760  12.167  17.945  0.00  0.00    +0.000 A 
ATOM     23  C   UNL     1       9.776  13.076  17.548  0.00  0.00    +0.000 A 
BRANCH  18  25
ATOM     24  C   UNL     1       6.866  14.413  18.067  0.00  0.00    +0.000 C 
ATOM     25  O   UNL     1       7.343  13.439  17.149  0.00  0.00    +0.000 OA
ENDBRANCH  18  25
BRANCH  23  26
ATOM     26  O   UNL     1      10.176  14.335  17.194  0.00  0.00    +0.000 OA
ATOM     27  H   UNL     1      11.145  14.366  17.166  0.00  0.00    +0.000 HD
ENDBRANCH  23  26
ENDBRANCH  16  20
ENDBRANCH   1  17
TORSDOF 8
ENDMDL
MODEL 4
REMARK VINA RESULT:      -7.9      2.382      4.068
REMARK  Name = 
REMARK  9 active torsions:
REMARK  status: ('A' for Active; 'I' for Inactive)
REMARK    1  A    between atoms: C_1  and  O_2
REMARK    2  A    between atoms: O_2  and  C_3
REMARK    3  A    between atoms: C_5  and  C_6
REMARK    4  A    between atoms: C_7  and  C_8
REMARK    5  A    between atoms: C_8  and  C_10
REMARK    6  A    between atoms: C_10  and  C_11
REMARK    7  A    between atoms: C_11  and  C_12
REMARK    8  A    between atoms: C_12  and  N_13
REMARK    9  A    between atoms: C_25  and  O_26
REMARK                            x       y       z     vdW  Elec       q    Type
REMARK                         _______ _______ _______ _____ _____    ______ ____
ROOT
ATOM      1  C   UNL     1       4.778   5.602  18.511  0.00  0.00    +0.000 C 
ATOM      2  O   UNL     1       5.172   5.319  19.643  0.00  0.00    +0.000 OA
ENDROOT
BRANCH   1   3
ATOM      3  C   UNL     1       5.286   4.847  17.283  0.00  0.00    +0.000 C 
ATOM      4  C   UNL     1       5.071   5.678  16.019  0.00  0.00    +0.000 C 
ATOM      5  C   UNL     1       6.206   5.278  15.119  0.00  0.00    +0.000 C 
ATOM      6  O   UNL     1       7.273   4.921  15.995  0.00  0.00    +0.000 OA
ATOM      7  C   UNL     1       6.787   4.694  17.251  0.00  0.00    +0.000 C 
ATOM      8  O   UNL     1       7.491   4.345  18.185  0.00  0.00    +0.000 OA
BRANCH   3   9
ATOM      9  C   UNL     1       4.671   3.429  17.222  0.00  0.00    +0.000 C 
BRANCH   9  10
ATOM     10  C   UNL     1       3.134   3.424  17.195  0.00  0.00    +0.000 C 
BRANCH  10  11
ATOM     11  N   UNL     1       2.551   2.432  18.114  0.00  0.00    +0.000 NA
ATOM     12  C   UNL     1       1.189   2.839  18.513  0.00  0.00    +0.000 C 
ATOM     13  C   UNL     1       1.387   3.765  19.698  0.00  0.00    +0.000 C 
ATOM     14  C   UNL     1       2.540   3.122  20.442  0.00  0.00    +0.000 C 
ATOM     15  C   UNL     1       3.284   2.307  19.390  0.00  0.00    +0.000 C 
ENDBRANCH  10  11
ENDBRANCH   9  10
ENDBRANCH   3   9
ENDBRANCH   1   3
BRANCH   1  17
ATOM     16  C   UNL     1       2.953   7.052  19.269  0.00  0.00    +0.000 C 
ATOM     17  C   UNL     1       3.865   6.767  18.326  0.00  0.00    +0.000 C 
BRANCH  16  20
ATOM     18  C   UNL     1       0.375   9.647  20.253  0.00  0.00    +0.000 A 
ATOM     19  C   UNL     1       1.351   8.636  20.317  0.00  0.00    +0.000 A 
ATOM     20  C   UNL     1       1.988   8.156  19.164  0.00  0.00    +0.000 A 
ATOM     21  C   UNL     1       1.624   8.691  17.927  0.00  0.00    +0.000 A 
ATOM     22  C   UNL     1       0.658   9.694  17.841  0.00  0.00    +0.000 A 
ATOM     23  C   UNL     1       0.033  10.169  18.997  0.00  0.00    +0.000 A 
BRANCH  18  25
ATOM     24  C   UNL     1      -0.433   8.939  22.390  0.00  0.00    +0.000 C 
ATOM     25  O   UNL     1      -0.131   9.986  21.477  0.00  0.00    +0.000 OA
ENDBRANCH  18  25
BRANCH  23  26
ATOM     26  O   UNL     1      -0.915  11.143  18.855  0.00  0.00    +0.000 OA
ATOM     27  H   UNL     1      -0.523  12.005  19.068  0.00  0.00    +0.000 HD
ENDBRANCH  23  26
ENDBRANCH  16  20
ENDBRANCH   1  17
TORSDOF 8
ENDMDL
MODEL 5
REMARK VINA RESULT:      -7.8      2.180      2.912
REMARK  Name = 
REMARK  9 active torsions:
REMARK  status: ('A' for Active; 'I' for Inactive)
REMARK    1  A    between atoms: C_1  and  O_2
REMARK    2  A    between atoms: O_2  and  C_3
REMARK    3  A    between atoms: C_5  and  C_6
REMARK    4  A    between atoms: C_7  and  C_8
REMARK    5  A    between atoms: C_8  and  C_10
REMARK    6  A    between atoms: C_10  and  C_11
REMARK    7  A    between atoms: C_11  and  C_12
REMARK    8  A    between atoms: C_12  and  N_13
REMARK    9  A    between atoms: C_25  and  O_26
REMARK                            x       y       z     vdW  Elec       q    Type
REMARK                         _______ _______ _______ _____ _____    ______ ____
ROOT
ATOM      1  C   UNL     1       3.016   6.771  18.173  0.00  0.00    +0.000 C 
ATOM      2  O   UNL     1       3.752   6.946  17.201  0.00  0.00    +0.000 OA
ENDROOT
BRANCH   1   3
ATOM      3  C   UNL     1       2.932   5.414  18.871  0.00  0.00    +0.000 C 
ATOM      4  C   UNL     1       2.630   5.596  20.358  0.00  0.00    +0.000 C 
ATOM      5  C   UNL     1       1.840   4.372  20.725  0.00  0.00    +0.000 C 
ATOM      6  O   UNL     1       1.153   3.996  19.533  0.00  0.00    +0.000 OA
ATOM      7  C   UNL     1       1.734   4.597  18.453  0.00  0.00    +0.000 C 
ATOM      8  O   UNL     1       1.354   4.418  17.307  0.00  0.00    +0.000 OA
BRANCH   3   9
ATOM      9  C   UNL     1       4.196   4.572  18.578  0.00  0.00    +0.000 C 
BRANCH   9  10
ATOM     10  C   UNL     1       5.428   5.005  19.390  0.00  0.00    +0.000 C 
BRANCH  10  11
ATOM     11  N   UNL     1       6.697   4.661  18.728  0.00  0.00    +0.000 NA
ATOM     12  C   UNL     1       7.717   5.693  19.004  0.00  0.00    +0.000 C 
ATOM     13  C   UNL     1       7.495   6.756  17.945  0.00  0.00    +0.000 C 
ATOM     14  C   UNL     1       7.145   5.943  16.715  0.00  0.00    +0.000 C 
ATOM     15  C   UNL     1       6.602   4.624  17.254  0.00  0.00    +0.000 C 
ENDBRANCH  10  11
ENDBRANCH   9  10
ENDBRANCH   3   9
ENDBRANCH   1   3
BRANCH   1  17
ATOM     16  C   UNL     1       1.961   8.958  17.834  0.00  0.00    +0.000 C 
ATOM     17  C   UNL     1       2.115   7.875  18.613  0.00  0.00    +0.000 C 
BRANCH  16  20
ATOM     18  C   UNL     1      -1.092  11.155  18.281  0.00  0.00    +0.000 A 
ATOM     19  C   UNL     1      -0.263  10.051  18.008  0.00  0.00    +0.000 A 
ATOM     20  C   UNL     1       1.125  10.112  18.194  0.00  0.00    +0.000 A 
ATOM     21  C   UNL     1       1.688  11.307  18.646  0.00  0.00    +0.000 A 
ATOM     22  C   UNL     1       0.884  12.413  18.923  0.00  0.00    +0.000 A 
ATOM     23  C   UNL     1      -0.499  12.340  18.739  0.00  0.00    +0.000 A 
BRANCH  18  25
ATOM     24  C   UNL     1      -2.782   9.609  17.592  0.00  0.00    +0.000 C 
ATOM     25  O   UNL     1      -2.416  10.906  18.043  0.00  0.00    +0.000 OA
ENDBRANCH  18  25
BRANCH  23  26
ATOM     26  O   UNL     1      -1.239  13.457  19.011  0.00  0.00    +0.000 OA
ATOM     27  H   UNL     1      -0.679  14.108  19.465  0.00  0.00    +0.000 HD
ENDBRANCH  23  26
ENDBRANCH  16  20
ENDBRANCH   1  17
TORSDOF 8
ENDMDL
MODEL 6
REMARK VINA RESULT:      -7.7      1.388      1.968
REMARK  Name = 
REMARK  9 active torsions:
REMARK  status: ('A' for Active; 'I' for Inactive)
REMARK    1  A    between atoms: C_1  and  O_2
REMARK    2  A    between atoms: O_2  and  C_3
REMARK    3  A    between atoms: C_5  and  C_6
REMARK    4  A    between atoms: C_7  and  C_8
REMARK    5  A    between atoms: C_8  and  C_10
REMARK    6  A    between atoms: C_10  and  C_11
REMARK    7  A    between atoms: C_11  and  C_12
REMARK    8  A    between atoms: C_12  and  N_13
REMARK    9  A    between atoms: C_25  and  O_26
REMARK                            x       y       z     vdW  Elec       q    Type
REMARK                         _______ _______ _______ _____ _____    ______ ____
ROOT
ATOM      1  C   UNL     1       3.032   6.603  18.383  0.00  0.00    +0.000 C 
ATOM      2  O   UNL     1       3.712   6.990  17.433  0.00  0.00    +0.000 OA
ENDROOT
BRANCH   1   3
ATOM      3  C   UNL     1       3.061   5.144  18.837  0.00  0.00    +0.000 C 
ATOM      4  C   UNL     1       2.845   5.050  20.347  0.00  0.00    +0.000 C 
ATOM      5  C   UNL     1       2.142   3.735  20.536  0.00  0.00    +0.000 C 
ATOM      6  O   UNL     1       1.401   3.529  19.335  0.00  0.00    +0.000 OA
ATOM      7  C   UNL     1       1.882   4.340  18.348  0.00  0.00    +0.000 C 
ATOM      8  O   UNL     1       1.439   4.337  17.209  0.00  0.00    +0.000 OA
BRANCH   3   9
ATOM      9  C   UNL     1       4.344   4.442  18.335  0.00  0.00    +0.000 C 
BRANCH   9  10
ATOM     10  C   UNL     1       5.565   4.667  19.242  0.00  0.00    +0.000 C 
BRANCH  10  11
ATOM     11  N   UNL     1       6.843   4.525  18.524  0.00  0.00    +0.000 NA
ATOM     12  C   UNL     1       7.753   5.636  18.867  0.00  0.00    +0.000 C 
ATOM     13  C   UNL     1       7.382   6.755  17.912  0.00  0.00    +0.000 C 
ATOM     14  C   UNL     1       7.084   6.017  16.623  0.00  0.00    +0.000 C 
ATOM     15  C   UNL     1       6.706   4.604  17.055  0.00  0.00    +0.000 C 
ENDBRANCH  10  11
ENDBRANCH   9  10
ENDBRANCH   3   9
ENDBRANCH   1   3
BRANCH   1  17
ATOM     16  C   UNL     1       1.696   8.658  18.385  0.00  0.00    +0.000 C 
ATOM     17  C   UNL     1       2.087   7.553  19.039  0.00  0.00    +0.000 C 
BRANCH  16  20
ATOM     18  C   UNL     1      -0.050  10.855  20.929  0.00  0.00    +0.000 A 
ATOM     19  C   UNL     1       0.835   9.939  20.332  0.00  0.00    +0.000 A 
ATOM     20  C   UNL     1       0.797   9.671  18.957  0.00  0.00    +0.000 A 
ATOM     21  C   UNL     1      -0.160  10.322  18.175  0.00  0.00    +0.000 A 
ATOM     22  C   UNL     1      -1.048  11.233  18.748  0.00  0.00    +0.000 A 
ATOM     23  C   UNL     1      -0.996  11.498  20.119  0.00  0.00    +0.000 A 
BRANCH  18  25
ATOM     24  C   UNL     1      -0.778  10.343  23.150  0.00  0.00    +0.000 C 
ATOM     25  O   UNL     1       0.140  10.988  22.277  0.00  0.00    +0.000 OA
ENDBRANCH  18  25
BRANCH  23  26
ATOM     26  O   UNL     1      -1.898  12.388  20.630  0.00  0.00    +0.000 OA
ATOM     27  H   UNL     1      -2.605  11.902  21.084  0.00  0.00    +0.000 HD
ENDBRANCH  23  26
ENDBRANCH  16  20
ENDBRANCH   1  17
TORSDOF 8
ENDMDL
MODEL 7
REMARK VINA RESULT:      -7.7      3.292      6.897
REMARK  Name = 
REMARK  9 active torsions:
REMARK  status: ('A' for Active; 'I' for Inactive)
REMARK    1  A    between atoms: C_1  and  O_2
REMARK    2  A    between atoms: O_2  and  C_3
REMARK    3  A    between atoms: C_5  and  C_6
REMARK    4  A    between atoms: C_7  and  C_8
REMARK    5  A    between atoms: C_8  and  C_10
REMARK    6  A    between atoms: C_10  and  C_11
REMARK    7  A    between atoms: C_11  and  C_12
REMARK    8  A    between atoms: C_12  and  N_13
REMARK    9  A    between atoms: C_25  and  O_26
REMARK                            x       y       z     vdW  Elec       q    Type
REMARK                         _______ _______ _______ _____ _____    ______ ____
ROOT
ATOM      1  C   UNL     1       2.006   3.464  18.393  0.00  0.00    +0.000 C 
ATOM      2  O   UNL     1       1.020   2.864  17.962  0.00  0.00    +0.000 OA
ENDROOT
BRANCH   1   3
ATOM      3  C   UNL     1       2.194   3.707  19.891  0.00  0.00    +0.000 C 
ATOM      4  C   UNL     1       0.888   3.446  20.641  0.00  0.00    +0.000 C 
ATOM      5  C   UNL     1       1.333   2.955  21.990  0.00  0.00    +0.000 C 
ATOM      6  O   UNL     1       2.582   2.308  21.762  0.00  0.00    +0.000 OA
ATOM      7  C   UNL     1       3.091   2.693  20.555  0.00  0.00    +0.000 C 
ATOM      8  O   UNL     1       4.169   2.304  20.132  0.00  0.00    +0.000 OA
BRANCH   3   9
ATOM      9  C   UNL     1       2.802   5.106  20.143  0.00  0.00    +0.000 C 
BRANCH   9  10
ATOM     10  C   UNL     1       1.827   6.262  19.866  0.00  0.00    +0.000 C 
BRANCH  10  11
ATOM     11  N   UNL     1       2.513   7.549  19.660  0.00  0.00    +0.000 NA
ATOM     12  C   UNL     1       1.682   8.661  20.163  0.00  0.00    +0.000 C 
ATOM     13  C   UNL     1       0.757   9.011  19.013  0.00  0.00    +0.000 C 
ATOM     14  C   UNL     1       1.648   8.847  17.798  0.00  0.00    +0.000 C 
ATOM     15  C   UNL     1       2.739   7.875  18.237  0.00  0.00    +0.000 C 
ENDBRANCH  10  11
ENDBRANCH   9  10
ENDBRANCH   3   9
ENDBRANCH   1   3
BRANCH   1  17
ATOM     16  C   UNL     1       4.190   3.480  17.280  0.00  0.00    +0.000 C 
ATOM     17  C   UNL     1       2.983   4.049  17.430  0.00  0.00    +0.000 C 
BRANCH  16  20
ATOM     18  C   UNL     1       6.978   5.661  15.933  0.00  0.00    +0.000 A 
ATOM     19  C   UNL     1       6.014   5.094  16.785  0.00  0.00    +0.000 A 
ATOM     20  C   UNL     1       5.233   4.000  16.384  0.00  0.00    +0.000 A 
ATOM     21  C   UNL     1       5.416   3.482  15.100  0.00  0.00    +0.000 A 
ATOM     22  C   UNL     1       6.367   4.031  14.240  0.00  0.00    +0.000 A 
ATOM     23  C   UNL     1       7.144   5.117  14.652  0.00  0.00    +0.000 A 
BRANCH  18  25
ATOM     24  C   UNL     1       7.660   6.812  17.916  0.00  0.00    +0.000 C 
ATOM     25  O   UNL     1       7.642   6.715  16.498  0.00  0.00    +0.000 OA
ENDBRANCH  18  25
BRANCH  23  26
ATOM     26  O   UNL     1       8.051   5.625  13.764  0.00  0.00    +0.000 OA
ATOM     27  H   UNL     1       8.306   4.931  13.136  0.00  0.00    +0.000 HD
ENDBRANCH  23  26
ENDBRANCH  16  20
ENDBRANCH   1  17
TORSDOF 8
ENDMDL
MODEL 8
REMARK VINA RESULT:      -7.7      2.087      2.682
REMARK  Name = 
REMARK  9 active torsions:
REMARK  status: ('A' for Active; 'I' for Inactive)
REMARK    1  A    between atoms: C_1  and  O_2
REMARK    2  A    between atoms: O_2  and  C_3
REMARK    3  A    between atoms: C_5  and  C_6
REMARK    4  A    between atoms: C_7  and  C_8
REMARK    5  A    between atoms: C_8  and  C_10
REMARK    6  A    between atoms: C_10  and  C_11
REMARK    7  A    between atoms: C_11  and  C_12
REMARK    8  A    between atoms: C_12  and  N_13
REMARK    9  A    between atoms: C_25  and  O_26
REMARK                            x       y       z     vdW  Elec       q    Type
REMARK                         _______ _______ _______ _____ _____    ______ ____
ROOT
ATOM      1  C   UNL     1       3.037   6.664  17.975  0.00  0.00    +0.000 C 
ATOM      2  O   UNL     1       3.912   6.912  17.145  0.00  0.00    +0.000 OA
ENDROOT
BRANCH   1   3
ATOM      3  C   UNL     1       3.013   5.333  18.727  0.00  0.00    +0.000 C 
ATOM      4  C   UNL     1       2.759   5.567  20.216  0.00  0.00    +0.000 C 
ATOM      5  C   UNL     1       2.013   4.339  20.658  0.00  0.00    +0.000 C 
ATOM      6  O   UNL     1       1.295   3.900  19.507  0.00  0.00    +0.000 OA
ATOM      7  C   UNL     1       1.822   4.472  18.385  0.00  0.00    +0.000 C 
ATOM      8  O   UNL     1       1.407   4.239  17.260  0.00  0.00    +0.000 OA
BRANCH   3   9
ATOM      9  C   UNL     1       4.287   4.511  18.422  0.00  0.00    +0.000 C 
BRANCH   9  10
ATOM     10  C   UNL     1       5.476   4.855  19.334  0.00  0.00    +0.000 C 
BRANCH  10  11
ATOM     11  N   UNL     1       6.777   4.612  18.689  0.00  0.00    +0.000 NA
ATOM     12  C   UNL     1       7.719   5.705  19.003  0.00  0.00    +0.000 C 
ATOM     13  C   UNL     1       7.443   6.772  17.960  0.00  0.00    +0.000 C 
ATOM     14  C   UNL     1       7.171   5.962  16.709  0.00  0.00    +0.000 C 
ATOM     15  C   UNL     1       6.711   4.598  17.214  0.00  0.00    +0.000 C 
ENDBRANCH  10  11
ENDBRANCH   9  10
ENDBRANCH   3   9
ENDBRANCH   1   3
BRANCH   1  17
ATOM     16  C   UNL     1       2.141   8.945  17.965  0.00  0.00    +0.000 C 
ATOM     17  C   UNL     1       1.925   7.637  18.177  0.00  0.00    +0.000 C 
BRANCH  16  20
ATOM     18  C   UNL     1       0.536  12.223  18.978  0.00  0.00    +0.000 A 
ATOM     19  C   UNL     1       1.490  11.225  18.709  0.00  0.00    +0.000 A 
ATOM     20  C   UNL     1       1.122   9.984  18.168  0.00  0.00    +0.000 A 
ATOM     21  C   UNL     1      -0.230   9.741  17.911  0.00  0.00    +0.000 A 
ATOM     22  C   UNL     1      -1.191  10.718  18.171  0.00  0.00    +0.000 A 
ATOM     23  C   UNL     1      -0.812  11.953  18.704  0.00  0.00    +0.000 A 
BRANCH  18  25
ATOM     24  C   UNL     1       1.153  13.487  20.912  0.00  0.00    +0.000 C 
ATOM     25  O   UNL     1       1.083  13.364  19.498  0.00  0.00    +0.000 OA
ENDBRANCH  18  25
BRANCH  23  26
ATOM     26  O   UNL     1      -1.796  12.869  18.953  0.00  0.00    +0.000 OA
ATOM     27  H   UNL     1      -2.654  12.416  18.985  0.00  0.00    +0.000 HD
ENDBRANCH  23  26
ENDBRANCH  16  20
ENDBRANCH   1  17
TORSDOF 8
ENDMDL
MODEL 9
REMARK VINA RESULT:      -7.6      0.698      1.824
REMARK  Name = 
REMARK  9 active torsions:
REMARK  status: ('A' for Active; 'I' for Inactive)
REMARK    1  A    between atoms: C_1  and  O_2
REMARK    2  A    between atoms: O_2  and  C_3
REMARK    3  A    between atoms: C_5  and  C_6
REMARK    4  A    between atoms: C_7  and  C_8
REMARK    5  A    between atoms: C_8  and  C_10
REMARK    6  A    between atoms: C_10  and  C_11
REMARK    7  A    between atoms: C_11  and  C_12
REMARK    8  A    between atoms: C_12  and  N_13
REMARK    9  A    between atoms: C_25  and  O_26
REMARK                            x       y       z     vdW  Elec       q    Type
REMARK                         _______ _______ _______ _____ _____    ______ ____
ROOT
ATOM      1  C   UNL     1       2.334   4.737  20.177  0.00  0.00    +0.000 C 
ATOM      2  O   UNL     1       2.141   4.144  21.238  0.00  0.00    +0.000 OA
ENDROOT
BRANCH   1   3
ATOM      3  C   UNL     1       3.012   4.046  18.994  0.00  0.00    +0.000 C 
ATOM      4  C   UNL     1       3.499   2.655  19.396  0.00  0.00    +0.000 C 
ATOM      5  C   UNL     1       3.398   1.851  18.130  0.00  0.00    +0.000 C 
ATOM      6  O   UNL     1       2.325   2.437  17.397  0.00  0.00    +0.000 OA
ATOM      7  C   UNL     1       2.058   3.685  17.883  0.00  0.00    +0.000 C 
ATOM      8  O   UNL     1       1.200   4.414  17.409  0.00  0.00    +0.000 OA
BRANCH   3   9
ATOM      9  C   UNL     1       4.110   4.953  18.390  0.00  0.00    +0.000 C 
BRANCH   9  10
ATOM     10  C   UNL     1       5.310   5.174  19.324  0.00  0.00    +0.000 C 
BRANCH  10  11
ATOM     11  N   UNL     1       6.586   4.748  18.724  0.00  0.00    +0.000 NA
ATOM     12  C   UNL     1       7.643   5.741  19.003  0.00  0.00    +0.000 C 
ATOM     13  C   UNL     1       7.511   6.773  17.899  0.00  0.00    +0.000 C 
ATOM     14  C   UNL     1       7.169   5.932  16.686  0.00  0.00    +0.000 C 
ATOM     15  C   UNL     1       6.544   4.661  17.250  0.00  0.00    +0.000 C 
ENDBRANCH  10  11
ENDBRANCH   9  10
ENDBRANCH   3   9
ENDBRANCH   1   3
BRANCH   1  17
ATOM     16  C   UNL     1       1.367   6.792  21.101  0.00  0.00    +0.000 C 
ATOM     17  C   UNL     1       1.990   6.185  20.077  0.00  0.00    +0.000 C 
BRANCH  16  20
ATOM     18  C   UNL     1       0.874  10.355  19.916  0.00  0.00    +0.000 A 
ATOM     19  C   UNL     1       1.194   8.986  19.948  0.00  0.00    +0.000 A 
ATOM     20  C   UNL     1       0.957   8.203  21.086  0.00  0.00    +0.000 A 
ATOM     21  C   UNL     1       0.403   8.813  22.214  0.00  0.00    +0.000 A 
ATOM     22  C   UNL     1       0.079  10.170  22.203  0.00  0.00    +0.000 A 
ATOM     23  C   UNL     1       0.315  10.940  21.061  0.00  0.00    +0.000 A 
BRANCH  18  25
ATOM     24  C   UNL     1       2.097  10.297  17.861  0.00  0.00    +0.000 C 
ATOM     25  O   UNL     1       1.174  10.951  18.722  0.00  0.00    +0.000 OA
ENDBRANCH  18  25
BRANCH  23  26
ATOM     26  O   UNL     1      -0.009  12.267  21.109  0.00  0.00    +0.000 OA
ATOM     27  H   UNL     1      -0.835  12.412  20.621  0.00  0.00    +0.000 HD
ENDBRANCH  23  26
ENDBRANCH  16  20
ENDBRANCH   1  17
TORSDOF 8
ENDMDL
