MODEL 1
REMARK VINA RESULT:      -4.8      0.000      0.000
REMARK  Name = 
REMARK  4 active torsions:
REMARK  status: ('A' for Active; 'I' for Inactive)
REMARK    1  A    between atoms: N_1  and  CA_2
REMARK    2  A    between atoms: CA_2  and  C_3
REMARK    3  A    between atoms: CA_2  and  C_6
REMARK    4  A    between atoms: C_3  and  OXT_5
REMARK                            x       y       z     vdW  Elec       q    Type
REMARK                         _______ _______ _______ _____ _____    ______ ____
ROOT
ATOM      1  CA  UNL     1       5.642   5.141  15.278  0.00  0.00    +0.000 C 
ENDROOT
BRANCH   1   2
ATOM      2  C   UNL     1       6.192   4.827  16.640  0.00  0.00    +0.000 A 
ATOM      3  C   UNL     1       5.570   4.374  17.789  0.00  0.00    +0.000 A 
ATOM      4  N   UNL     1       6.564   4.240  18.716  0.00  0.00    +0.000 N 
ATOM      5  C   UNL     1       7.735   4.613  18.124  0.00  0.00    +0.000 A 
ATOM      6  N   UNL     1       7.545   5.005  16.885  0.00  0.00    +0.000 NA
ATOM      7  H   UNL     1       6.456   3.914  19.668  0.00  0.00    +0.000 HD
ENDBRANCH   1   2
BRANCH   1   8
ATOM      8  N   UNL     1       5.324   6.587  15.172  0.00  0.00    +0.000 NA
ATOM      9  H1  UNL     1       5.920   6.957  14.428  0.00  0.00    +0.000 HD
ATOM     10  H2  UNL     1       5.680   7.040  16.012  0.00  0.00    +0.000 HD
ENDBRANCH   1   8
BRANCH   1  11
ATOM     11  C   UNL     1       6.612   4.729  14.147  0.00  0.00    +0.000 C 
ATOM     12  O   UNL     1       6.407   3.765  13.412  0.00  0.00    +0.000 OA
BRANCH  11  13
ATOM     13  OXT UNL     1       7.745   5.467  14.042  0.00  0.00    +0.000 OA
ATOM     14  HXT UNL     1       7.621   6.383  14.400  0.00  0.00    +0.000 HD
ENDBRANCH  11  13
ENDBRANCH   1  11
TORSDOF 4
ENDMDL
MODEL 2
REMARK VINA RESULT:      -4.8      2.725      4.169
REMARK  Name = 
REMARK  4 active torsions:
REMARK  status: ('A' for Active; 'I' for Inactive)
REMARK    1  A    between atoms: N_1  and  CA_2
REMARK    2  A    between atoms: CA_2  and  C_3
REMARK    3  A    between atoms: CA_2  and  C_6
REMARK    4  A    between atoms: C_3  and  OXT_5
REMARK                            x       y       z     vdW  Elec       q    Type
REMARK                         _______ _______ _______ _____ _____    ______ ____
ROOT
ATOM      1  CA  UNL     1       6.231   5.355  18.539  0.00  0.00    +0.000 C 
ENDROOT
BRANCH   1   2
ATOM      2  C   UNL     1       6.307   5.360  17.039  0.00  0.00    +0.000 A 
ATOM      3  C   UNL     1       5.535   6.007  16.092  0.00  0.00    +0.000 A 
ATOM      4  N   UNL     1       6.074   5.669  14.884  0.00  0.00    +0.000 N 
ATOM      5  C   UNL     1       7.130   4.837  15.121  0.00  0.00    +0.000 A 
ATOM      6  N   UNL     1       7.279   4.602  16.404  0.00  0.00    +0.000 NA
ATOM      7  H   UNL     1       5.756   5.983  13.976  0.00  0.00    +0.000 HD
ENDBRANCH   1   2
BRANCH   1   8
ATOM      8  N   UNL     1       5.986   3.979  19.037  0.00  0.00    +0.000 NA
ATOM      9  H1  UNL     1       5.957   4.044  20.058  0.00  0.00    +0.000 HD
ATOM     10  H2  UNL     1       6.827   3.433  18.855  0.00  0.00    +0.000 HD
ENDBRANCH   1   8
BRANCH   1  11
ATOM     11  C   UNL     1       7.509   5.932  19.191  0.00  0.00    +0.000 C 
ATOM     12  O   UNL     1       8.168   6.836  18.679  0.00  0.00    +0.000 OA
BRANCH  11  13
ATOM     13  OXT UNL     1       7.901   5.343  20.347  0.00  0.00    +0.000 OA
ATOM     14  HXT UNL     1       8.847   5.549  20.561  0.00  0.00    +0.000 HD
ENDBRANCH  11  13
ENDBRANCH   1  11
TORSDOF 4
ENDMDL
MODEL 3
REMARK VINA RESULT:      -4.7      2.943      3.872
REMARK  Name = 
REMARK  4 active torsions:
REMARK  status: ('A' for Active; 'I' for Inactive)
REMARK    1  A    between atoms: N_1  and  CA_2
REMARK    2  A    between atoms: CA_2  and  C_3
REMARK    3  A    between atoms: CA_2  and  C_6
REMARK    4  A    between atoms: C_3  and  OXT_5
REMARK                            x       y       z     vdW  Elec       q    Type
REMARK                         _______ _______ _______ _____ _____    ______ ____
ROOT
ATOM      1  CA  UNL     1       6.342   5.274  18.747  0.00  0.00    +0.000 C 
ENDROOT
BRANCH   1   2
ATOM      2  C   UNL     1       5.052   4.686  19.242  0.00  0.00    +0.000 A 
ATOM      3  C   UNL     1       3.838   5.278  19.539  0.00  0.00    +0.000 A 
ATOM      4  N   UNL     1       3.016   4.258  19.922  0.00  0.00    +0.000 N 
ATOM      5  C   UNL     1       3.734   3.100  19.858  0.00  0.00    +0.000 A 
ATOM      6  N   UNL     1       4.974   3.323  19.485  0.00  0.00    +0.000 NA
ATOM      7  H   UNL     1       2.044   4.341  20.195  0.00  0.00    +0.000 HD
ENDBRANCH   1   2
BRANCH   1   8
ATOM      8  N   UNL     1       7.329   5.352  19.852  0.00  0.00    +0.000 NA
ATOM      9  H1  UNL     1       8.186   4.915  19.503  0.00  0.00    +0.000 HD
ATOM     10  H2  UNL     1       7.018   4.717  20.585  0.00  0.00    +0.000 HD
ENDBRANCH   1   8
BRANCH   1  11
ATOM     11  C   UNL     1       6.935   4.471  17.565  0.00  0.00    +0.000 C 
ATOM     12  O   UNL     1       8.144   4.385  17.360  0.00  0.00    +0.000 OA
BRANCH  11  13
ATOM     13  OXT UNL     1       6.035   3.905  16.724  0.00  0.00    +0.000 OA
ATOM     14  HXT UNL     1       6.135   4.242  15.798  0.00  0.00    +0.000 HD
ENDBRANCH  11  13
ENDBRANCH   1  11
TORSDOF 4
ENDMDL
MODEL 4
REMARK VINA RESULT:      -4.7      1.602      2.721
REMARK  Name = 
REMARK  4 active torsions:
REMARK  status: ('A' for Active; 'I' for Inactive)
REMARK    1  A    between atoms: N_1  and  CA_2
REMARK    2  A    between atoms: CA_2  and  C_3
REMARK    3  A    between atoms: CA_2  and  C_6
REMARK    4  A    between atoms: C_3  and  OXT_5
REMARK                            x       y       z     vdW  Elec       q    Type
REMARK                         _______ _______ _______ _____ _____    ______ ____
ROOT
ATOM      1  CA  UNL     1       6.998   4.898  16.896  0.00  0.00    +0.000 C 
ENDROOT
BRANCH   1   2
ATOM      2  C   UNL     1       5.657   4.609  17.506  0.00  0.00    +0.000 A 
ATOM      3  C   UNL     1       5.308   4.175  18.772  0.00  0.00    +0.000 A 
ATOM      4  N   UNL     1       3.945   4.110  18.776  0.00  0.00    +0.000 N 
ATOM      5  C   UNL     1       3.508   4.489  17.540  0.00  0.00    +0.000 A 
ATOM      6  N   UNL     1       4.512   4.765  16.739  0.00  0.00    +0.000 NA
ATOM      7  H   UNL     1       3.359   3.839  19.556  0.00  0.00    +0.000 HD
ENDBRANCH   1   2
BRANCH   1   8
ATOM      8  N   UNL     1       8.056   4.117  17.586  0.00  0.00    +0.000 NA
ATOM      9  H1  UNL     1       8.888   4.711  17.599  0.00  0.00    +0.000 HD
ATOM     10  H2  UNL     1       8.318   3.348  16.972  0.00  0.00    +0.000 HD
ENDBRANCH   1   8
BRANCH   1  11
ATOM     11  C   UNL     1       7.028   4.599  15.379  0.00  0.00    +0.000 C 
ATOM     12  O   UNL     1       7.590   5.332  14.568  0.00  0.00    +0.000 OA
BRANCH  11  13
ATOM     13  OXT UNL     1       6.344   3.499  14.980  0.00  0.00    +0.000 OA
ATOM     14  HXT UNL     1       6.928   2.699  14.939  0.00  0.00    +0.000 HD
ENDBRANCH  11  13
ENDBRANCH   1  11
TORSDOF 4
ENDMDL
MODEL 5
REMARK VINA RESULT:      -4.7      4.748      5.856
REMARK  Name = 
REMARK  4 active torsions:
REMARK  status: ('A' for Active; 'I' for Inactive)
REMARK    1  A    between atoms: N_1  and  CA_2
REMARK    2  A    between atoms: CA_2  and  C_3
REMARK    3  A    between atoms: CA_2  and  C_6
REMARK    4  A    between atoms: C_3  and  OXT_5
REMARK                            x       y       z     vdW  Elec       q    Type
REMARK                         _______ _______ _______ _____ _____    ______ ____
ROOT
ATOM      1  CA  UNL     1       3.612   4.478  19.198  0.00  0.00    +0.000 C 
ENDROOT
BRANCH   1   2
ATOM      2  C   UNL     1       2.483   3.793  19.913  0.00  0.00    +0.000 A 
ATOM      3  C   UNL     1       1.181   3.540  19.524  0.00  0.00    +0.000 A 
ATOM      4  N   UNL     1       0.611   2.863  20.564  0.00  0.00    +0.000 N 
ATOM      5  C   UNL     1       1.556   2.731  21.539  0.00  0.00    +0.000 A 
ATOM      6  N   UNL     1       2.685   3.309  21.197  0.00  0.00    +0.000 NA
ATOM      7  H   UNL     1      -0.338   2.512  20.603  0.00  0.00    +0.000 HD
ENDBRANCH   1   2
BRANCH   1   8
ATOM      8  N   UNL     1       3.809   5.846  19.739  0.00  0.00    +0.000 NA
ATOM      9  H1  UNL     1       4.538   6.279  19.168  0.00  0.00    +0.000 HD
ATOM     10  H2  UNL     1       4.245   5.752  20.655  0.00  0.00    +0.000 HD
ENDBRANCH   1   8
BRANCH   1  11
ATOM     11  C   UNL     1       4.933   3.680  19.289  0.00  0.00    +0.000 C 
ATOM     12  O   UNL     1       6.034   4.191  19.095  0.00  0.00    +0.000 OA
BRANCH  11  13
ATOM     13  OXT UNL     1       4.806   2.354  19.544  0.00  0.00    +0.000 OA
ATOM     14  HXT UNL     1       5.674   1.881  19.463  0.00  0.00    +0.000 HD
ENDBRANCH  11  13
ENDBRANCH   1  11
TORSDOF 4
ENDMDL
MODEL 6
REMARK VINA RESULT:      -4.7      2.662      4.031
REMARK  Name = 
REMARK  4 active torsions:
REMARK  status: ('A' for Active; 'I' for Inactive)
REMARK    1  A    between atoms: N_1  and  CA_2
REMARK    2  A    between atoms: CA_2  and  C_3
REMARK    3  A    between atoms: CA_2  and  C_6
REMARK    4  A    between atoms: C_3  and  OXT_5
REMARK                            x       y       z     vdW  Elec       q    Type
REMARK                         _______ _______ _______ _____ _____    ______ ____
ROOT
ATOM      1  CA  UNL     1       5.988   5.037  18.561  0.00  0.00    +0.000 C 
ENDROOT
BRANCH   1   2
ATOM      2  C   UNL     1       6.082   4.911  17.068  0.00  0.00    +0.000 A 
ATOM      3  C   UNL     1       5.105   4.943  16.089  0.00  0.00    +0.000 A 
ATOM      4  N   UNL     1       5.767   4.806  14.904  0.00  0.00    +0.000 N 
ATOM      5  C   UNL     1       7.098   4.689  15.184  0.00  0.00    +0.000 A 
ATOM      6  N   UNL     1       7.321   4.714  16.478  0.00  0.00    +0.000 NA
ATOM      7  H   UNL     1       5.351   4.802  13.981  0.00  0.00    +0.000 HD
ENDBRANCH   1   2
BRANCH   1   8
ATOM      8  N   UNL     1       5.714   3.712  19.172  0.00  0.00    +0.000 NA
ATOM      9  H1  UNL     1       5.973   3.792  20.158  0.00  0.00    +0.000 HD
ATOM     10  H2  UNL     1       6.397   3.056  18.797  0.00  0.00    +0.000 HD
ENDBRANCH   1   8
BRANCH   1  11
ATOM     11  C   UNL     1       7.267   5.648  19.178  0.00  0.00    +0.000 C 
ATOM     12  O   UNL     1       7.716   5.292  20.266  0.00  0.00    +0.000 OA
BRANCH  11  13
ATOM     13  OXT UNL     1       7.844   6.651  18.471  0.00  0.00    +0.000 OA
ATOM     14  HXT UNL     1       8.508   6.306  17.820  0.00  0.00    +0.000 HD
ENDBRANCH  11  13
ENDBRANCH   1  11
TORSDOF 4
ENDMDL
MODEL 7
REMARK VINA RESULT:      -4.6      5.481      6.626
REMARK  Name = 
REMARK  4 active torsions:
REMARK  status: ('A' for Active; 'I' for Inactive)
REMARK    1  A    between atoms: N_1  and  CA_2
REMARK    2  A    between atoms: CA_2  and  C_3
REMARK    3  A    between atoms: CA_2  and  C_6
REMARK    4  A    between atoms: C_3  and  OXT_5
REMARK                            x       y       z     vdW  Elec       q    Type
REMARK                         _______ _______ _______ _____ _____    ______ ____
ROOT
ATOM      1  CA  UNL     1       2.615   4.195  20.849  0.00  0.00    +0.000 C 
ENDROOT
BRANCH   1   2
ATOM      2  C   UNL     1       3.276   3.847  19.546  0.00  0.00    +0.000 A 
ATOM      3  C   UNL     1       4.496   3.254  19.275  0.00  0.00    +0.000 A 
ATOM      4  N   UNL     1       4.564   3.159  17.915  0.00  0.00    +0.000 N 
ATOM      5  C   UNL     1       3.416   3.691  17.404  0.00  0.00    +0.000 A 
ATOM      6  N   UNL     1       2.632   4.146  18.355  0.00  0.00    +0.000 NA
ATOM      7  H   UNL     1       5.324   2.758  17.379  0.00  0.00    +0.000 HD
ENDBRANCH   1   2
BRANCH   1   8
ATOM      8  N   UNL     1       2.102   5.587  20.809  0.00  0.00    +0.000 NA
ATOM      9  H1  UNL     1       2.535   6.075  21.596  0.00  0.00    +0.000 HD
ATOM     10  H2  UNL     1       1.115   5.557  21.058  0.00  0.00    +0.000 HD
ENDBRANCH   1   8
BRANCH   1  11
ATOM     11  C   UNL     1       1.468   3.220  21.202  0.00  0.00    +0.000 C 
ATOM     12  O   UNL     1       1.498   2.488  22.189  0.00  0.00    +0.000 OA
BRANCH  11  13
ATOM     13  OXT UNL     1       0.437   3.177  20.323  0.00  0.00    +0.000 OA
ATOM     14  HXT UNL     1       0.497   2.387  19.726  0.00  0.00    +0.000 HD
ENDBRANCH  11  13
ENDBRANCH   1  11
TORSDOF 4
ENDMDL
MODEL 8
REMARK VINA RESULT:      -4.6      1.362      2.088
REMARK  Name = 
REMARK  4 active torsions:
REMARK  status: ('A' for Active; 'I' for Inactive)
REMARK    1  A    between atoms: N_1  and  CA_2
REMARK    2  A    between atoms: CA_2  and  C_3
REMARK    3  A    between atoms: CA_2  and  C_6
REMARK    4  A    between atoms: C_3  and  OXT_5
REMARK                            x       y       z     vdW  Elec       q    Type
REMARK                         _______ _______ _______ _____ _____    ______ ____
ROOT
ATOM      1  CA  UNL     1       6.342   5.660  16.006  0.00  0.00    +0.000 C 
ENDROOT
BRANCH   1   2
ATOM      2  C   UNL     1       5.790   4.774  17.085  0.00  0.00    +0.000 A 
ATOM      3  C   UNL     1       6.266   4.475  18.349  0.00  0.00    +0.000 A 
ATOM      4  N   UNL     1       5.342   3.635  18.900  0.00  0.00    +0.000 N 
ATOM      5  C   UNL     1       4.355   3.440  17.978  0.00  0.00    +0.000 A 
ATOM      6  N   UNL     1       4.608   4.083  16.860  0.00  0.00    +0.000 NA
ATOM      7  H   UNL     1       5.375   3.234  19.829  0.00  0.00    +0.000 HD
ENDBRANCH   1   2
BRANCH   1   8
ATOM      8  N   UNL     1       7.385   6.558  16.562  0.00  0.00    +0.000 NA
ATOM      9  H1  UNL     1       7.509   7.310  15.880  0.00  0.00    +0.000 HD
ATOM     10  H2  UNL     1       8.271   6.055  16.529  0.00  0.00    +0.000 HD
ENDBRANCH   1   8
BRANCH   1  11
ATOM     11  C   UNL     1       6.920   4.850  14.823  0.00  0.00    +0.000 C 
ATOM     12  O   UNL     1       7.750   5.312  14.042  0.00  0.00    +0.000 OA
BRANCH  11  13
ATOM     13  OXT UNL     1       6.414   3.603  14.656  0.00  0.00    +0.000 OA
ATOM     14  HXT UNL     1       6.166   3.430  13.712  0.00  0.00    +0.000 HD
ENDBRANCH  11  13
ENDBRANCH   1  11
TORSDOF 4
ENDMDL
MODEL 9
REMARK VINA RESULT:      -4.6      1.728      2.547
REMARK  Name = 
REMARK  4 active torsions:
REMARK  status: ('A' for Active; 'I' for Inactive)
REMARK    1  A    between atoms: N_1  and  CA_2
REMARK    2  A    between atoms: CA_2  and  C_3
REMARK    3  A    between atoms: CA_2  and  C_6
REMARK    4  A    between atoms: C_3  and  OXT_5
REMARK                            x       y       z     vdW  Elec       q    Type
REMARK                         _______ _______ _______ _____ _____    ______ ____
ROOT
ATOM      1  CA  UNL     1       7.152   5.040  17.065  0.00  0.00    +0.000 C 
ENDROOT
BRANCH   1   2
ATOM      2  C   UNL     1       5.871   5.041  17.848  0.00  0.00    +0.000 A 
ATOM      3  C   UNL     1       4.738   5.826  17.738  0.00  0.00    +0.000 A 
ATOM      4  N   UNL     1       3.878   5.367  18.694  0.00  0.00    +0.000 N 
ATOM      5  C   UNL     1       4.498   4.345  19.352  0.00  0.00    +0.000 A 
ATOM      6  N   UNL     1       5.712   4.142  18.893  0.00  0.00    +0.000 NA
ATOM      7  H   UNL     1       2.945   5.713  18.878  0.00  0.00    +0.000 HD
ENDBRANCH   1   2
BRANCH   1   8
ATOM      8  N   UNL     1       8.137   4.122  17.689  0.00  0.00    +0.000 NA
ATOM      9  H1  UNL     1       8.112   3.259  17.142  0.00  0.00    +0.000 HD
ATOM     10  H2  UNL     1       7.763   3.842  18.595  0.00  0.00    +0.000 HD
ENDBRANCH   1   8
BRANCH   1  11
ATOM     11  C   UNL     1       6.932   4.649  15.585  0.00  0.00    +0.000 C 
ATOM     12  O   UNL     1       6.202   3.721  15.243  0.00  0.00    +0.000 OA
BRANCH  11  13
ATOM     13  OXT UNL     1       7.640   5.361  14.674  0.00  0.00    +0.000 OA
ATOM     14  HXT UNL     1       7.114   6.120  14.312  0.00  0.00    +0.000 HD
ENDBRANCH  11  13
ENDBRANCH   1  11
TORSDOF 4
ENDMDL
