MODEL 1
REMARK VINA RESULT:      -8.6      0.000      0.000
REMARK  Name = 
REMARK  4 active torsions:
REMARK  status: ('A' for Active; 'I' for Inactive)
REMARK    1  A    between atoms: C_2  and  C_17
REMARK    2  A    between atoms: N_3  and  C_4
REMARK    3  A    between atoms: N_8  and  C_9
REMARK    4  A    between atoms: C_17  and  C_19
REMARK                            x       y       z     vdW  Elec       q    Type
REMARK                         _______ _______ _______ _____ _____    ______ ____
ROOT
ATOM      1  O   UNL     1       1.795   5.415  18.362  0.00  0.00    +0.000 OA
ATOM      2  C   UNL     1       2.684   6.240  18.214  0.00  0.00    +0.000 C 
ATOM      3  N   UNL     1       4.016   5.927  17.996  0.00  0.00    +0.000 N 
ATOM      4  H   UNL     1       4.685   6.684  18.114  0.00  0.00    +0.000 HD
ENDROOT
BRANCH   3   5
ATOM      5  C   UNL     1       4.463   4.534  17.988  0.00  0.00    +0.000 C 
ATOM      6  C   UNL     1       5.886   4.379  18.507  0.00  0.00    +0.000 C 
ATOM      7  C   UNL     1       6.735   4.493  17.262  0.00  0.00    +0.000 C 
ATOM      8  O   UNL     1       7.945   4.661  17.302  0.00  0.00    +0.000 OA
ATOM      9  N   UNL     1       5.907   4.298  16.149  0.00  0.00    +0.000 N 
ATOM     10  C   UNL     1       4.566   3.958  16.572  0.00  0.00    +0.000 C 
BRANCH   9  11
ATOM     11  C   UNL     1       6.304   4.323  14.786  0.00  0.00    +0.000 A 
ATOM     12  C   UNL     1       5.695   3.496  13.830  0.00  0.00    +0.000 A 
ATOM     13  C   UNL     1       6.099   3.510  12.488  0.00  0.00    +0.000 A 
ATOM     14  C   UNL     1       7.121   4.359  12.079  0.00  0.00    +0.000 A 
ATOM     15  C   UNL     1       7.732   5.177  13.017  0.00  0.00    +0.000 A 
ATOM     16  F   UNL     1       8.718   5.998  12.632  0.00  0.00    +0.000 F 
ATOM     17  C   UNL     1       7.339   5.164  14.355  0.00  0.00    +0.000 A 
ENDBRANCH   9  11
ENDBRANCH   3   5
BRANCH   2  18
ATOM     18  C   UNL     1       2.388   7.740  18.275  0.00  0.00    +0.000 C 
ATOM     19  O   UNL     1       2.729   8.391  17.286  0.00  0.00    +0.000 OA
BRANCH  18  20
ATOM     20  C   UNL     1       1.662   8.334  19.396  0.00  0.00    +0.000 A 
ATOM     21  C   UNL     1       1.755   7.855  20.694  0.00  0.00    +0.000 A 
ATOM     22  N   UNL     1       1.003   8.648  21.514  0.00  0.00    +0.000 N 
ATOM     23  C   UNL     1       0.410   9.648  20.786  0.00  0.00    +0.000 A 
ATOM     24  C   UNL     1      -0.422  10.692  21.218  0.00  0.00    +0.000 A 
ATOM     25  C   UNL     1      -0.906  11.582  20.258  0.00  0.00    +0.000 A 
ATOM     26  C   UNL     1      -0.574  11.429  18.917  0.00  0.00    +0.000 A 
ATOM     27  C   UNL     1       0.262  10.386  18.504  0.00  0.00    +0.000 A 
ATOM     28  C   UNL     1       0.781   9.471  19.449  0.00  0.00    +0.000 A 
ATOM     29  H   UNL     1       0.900   8.526  22.511  0.00  0.00    +0.000 HD
ENDBRANCH  18  20
ENDBRANCH   2  18
TORSDOF 4
ENDMDL
MODEL 2
REMARK VINA RESULT:      -8.6      0.920      1.302
REMARK  Name = 
REMARK  4 active torsions:
REMARK  status: ('A' for Active; 'I' for Inactive)
REMARK    1  A    between atoms: C_2  and  C_17
REMARK    2  A    between atoms: N_3  and  C_4
REMARK    3  A    between atoms: N_8  and  C_9
REMARK    4  A    between atoms: C_17  and  C_19
REMARK                            x       y       z     vdW  Elec       q    Type
REMARK                         _______ _______ _______ _____ _____    ______ ____
ROOT
ATOM      1  O   UNL     1       1.817   5.430  18.026  0.00  0.00    +0.000 OA
ATOM      2  C   UNL     1       2.726   6.247  18.045  0.00  0.00    +0.000 C 
ATOM      3  N   UNL     1       4.073   5.923  18.003  0.00  0.00    +0.000 N 
ATOM      4  H   UNL     1       4.725   6.663  18.251  0.00  0.00    +0.000 HD
ENDROOT
BRANCH   3   5
ATOM      5  C   UNL     1       4.503   4.525  17.993  0.00  0.00    +0.000 C 
ATOM      6  C   UNL     1       5.927   4.353  18.506  0.00  0.00    +0.000 C 
ATOM      7  C   UNL     1       6.772   4.458  17.258  0.00  0.00    +0.000 C 
ATOM      8  O   UNL     1       7.984   4.612  17.294  0.00  0.00    +0.000 OA
ATOM      9  N   UNL     1       5.938   4.273  16.148  0.00  0.00    +0.000 N 
ATOM     10  C   UNL     1       4.594   3.949  16.576  0.00  0.00    +0.000 C 
BRANCH   9  11
ATOM     11  C   UNL     1       6.330   4.295  14.784  0.00  0.00    +0.000 A 
ATOM     12  C   UNL     1       7.335   5.160  14.323  0.00  0.00    +0.000 A 
ATOM     13  C   UNL     1       7.709   5.192  12.974  0.00  0.00    +0.000 A 
ATOM     14  C   UNL     1       7.084   4.354  12.059  0.00  0.00    +0.000 A 
ATOM     15  C   UNL     1       6.086   3.499  12.503  0.00  0.00    +0.000 A 
ATOM     16  F   UNL     1       5.477   2.686  11.629  0.00  0.00    +0.000 F 
ATOM     17  C   UNL     1       5.705   3.465  13.844  0.00  0.00    +0.000 A 
ENDBRANCH   9  11
ENDBRANCH   3   5
BRANCH   2  18
ATOM     18  C   UNL     1       2.437   7.747  18.134  0.00  0.00    +0.000 C 
ATOM     19  O   UNL     1       2.780   8.414  17.157  0.00  0.00    +0.000 OA
BRANCH  18  20
ATOM     20  C   UNL     1       1.716   8.323  19.267  0.00  0.00    +0.000 A 
ATOM     21  C   UNL     1       1.808   7.818  20.556  0.00  0.00    +0.000 A 
ATOM     22  N   UNL     1       1.062   8.600  21.391  0.00  0.00    +0.000 N 
ATOM     23  C   UNL     1       0.475   9.618  20.684  0.00  0.00    +0.000 A 
ATOM     24  C   UNL     1      -0.350  10.659  21.138  0.00  0.00    +0.000 A 
ATOM     25  C   UNL     1      -0.829  11.570  20.196  0.00  0.00    +0.000 A 
ATOM     26  C   UNL     1      -0.499  11.442  18.852  0.00  0.00    +0.000 A 
ATOM     27  C   UNL     1       0.330  10.402  18.417  0.00  0.00    +0.000 A 
ATOM     28  C   UNL     1       0.843   9.465  19.343  0.00  0.00    +0.000 A 
ATOM     29  H   UNL     1       0.959   8.459  22.387  0.00  0.00    +0.000 HD
ENDBRANCH  18  20
ENDBRANCH   2  18
TORSDOF 4
ENDMDL
MODEL 3
REMARK VINA RESULT:      -8.2      1.846      2.501
REMARK  Name = 
REMARK  4 active torsions:
REMARK  status: ('A' for Active; 'I' for Inactive)
REMARK    1  A    between atoms: C_2  and  C_17
REMARK    2  A    between atoms: N_3  and  C_4
REMARK    3  A    between atoms: N_8  and  C_9
REMARK    4  A    between atoms: C_17  and  C_19
REMARK                            x       y       z     vdW  Elec       q    Type
REMARK                         _______ _______ _______ _____ _____    ______ ____
ROOT
ATOM      1  O   UNL     1       3.761   2.969  17.957  0.00  0.00    +0.000 OA
ATOM      2  C   UNL     1       3.614   4.167  18.147  0.00  0.00    +0.000 C 
ATOM      3  N   UNL     1       4.654   5.068  18.311  0.00  0.00    +0.000 N 
ATOM      4  H   UNL     1       4.408   5.983  18.683  0.00  0.00    +0.000 HD
ENDROOT
BRANCH   3   5
ATOM      5  C   UNL     1       6.043   4.609  18.326  0.00  0.00    +0.000 C 
ATOM      6  C   UNL     1       7.036   5.764  18.345  0.00  0.00    +0.000 C 
ATOM      7  C   UNL     1       7.305   6.029  16.882  0.00  0.00    +0.000 C 
ATOM      8  O   UNL     1       7.864   7.042  16.488  0.00  0.00    +0.000 OA
ATOM      9  N   UNL     1       6.879   4.913  16.150  0.00  0.00    +0.000 N 
ATOM     10  C   UNL     1       6.430   3.867  17.043  0.00  0.00    +0.000 C 
BRANCH   9  11
ATOM     11  C   UNL     1       6.950   4.750  14.742  0.00  0.00    +0.000 A 
ATOM     12  C   UNL     1       7.824   5.517  13.958  0.00  0.00    +0.000 A 
ATOM     13  C   UNL     1       7.881   5.366  12.566  0.00  0.00    +0.000 A 
ATOM     14  C   UNL     1       7.063   4.438  11.934  0.00  0.00    +0.000 A 
ATOM     15  C   UNL     1       6.192   3.678  12.699  0.00  0.00    +0.000 A 
ATOM     16  F   UNL     1       5.399   2.780  12.099  0.00  0.00    +0.000 F 
ATOM     17  C   UNL     1       6.126   3.826  14.084  0.00  0.00    +0.000 A 
ENDBRANCH   9  11
ENDBRANCH   3   5
BRANCH   2  18
ATOM     18  C   UNL     1       2.219   4.788  18.236  0.00  0.00    +0.000 C 
ATOM     19  O   UNL     1       1.347   4.236  17.563  0.00  0.00    +0.000 OA
BRANCH  18  20
ATOM     20  C   UNL     1       1.931   5.902  19.136  0.00  0.00    +0.000 A 
ATOM     21  C   UNL     1       1.752   5.742  20.502  0.00  0.00    +0.000 A 
ATOM     22  N   UNL     1       1.550   6.969  21.068  0.00  0.00    +0.000 N 
ATOM     23  C   UNL     1       1.591   7.945  20.105  0.00  0.00    +0.000 A 
ATOM     24  C   UNL     1       1.456   9.335  20.238  0.00  0.00    +0.000 A 
ATOM     25  C   UNL     1       1.528  10.112  19.081  0.00  0.00    +0.000 A 
ATOM     26  C   UNL     1       1.723   9.519  17.838  0.00  0.00    +0.000 A 
ATOM     27  C   UNL     1       1.862   8.131  17.724  0.00  0.00    +0.000 A 
ATOM     28  C   UNL     1       1.805   7.313  18.875  0.00  0.00    +0.000 A 
ATOM     29  H   UNL     1       1.399   7.141  22.052  0.00  0.00    +0.000 HD
ENDBRANCH  18  20
ENDBRANCH   2  18
TORSDOF 4
ENDMDL
MODEL 4
REMARK VINA RESULT:      -8.2      4.068      8.897
REMARK  Name = 
REMARK  4 active torsions:
REMARK  status: ('A' for Active; 'I' for Inactive)
REMARK    1  A    between atoms: C_2  and  C_17
REMARK    2  A    between atoms: N_3  and  C_4
REMARK    3  A    between atoms: N_8  and  C_9
REMARK    4  A    between atoms: C_17  and  C_19
REMARK                            x       y       z     vdW  Elec       q    Type
REMARK                         _______ _______ _______ _____ _____    ______ ____
ROOT
ATOM      1  O   UNL     1       1.721   7.389  20.581  0.00  0.00    +0.000 OA
ATOM      2  C   UNL     1       1.932   7.910  19.496  0.00  0.00    +0.000 C 
ATOM      3  N   UNL     1       1.403   9.127  19.095  0.00  0.00    +0.000 N 
ATOM      4  H   UNL     1       1.466   9.343  18.102  0.00  0.00    +0.000 HD
ENDROOT
BRANCH   3   5
ATOM      5  C   UNL     1       0.478   9.859  19.959  0.00  0.00    +0.000 C 
ATOM      6  C   UNL     1      -0.832  10.191  19.257  0.00  0.00    +0.000 C 
ATOM      7  C   UNL     1      -0.577  11.549  18.646  0.00  0.00    +0.000 C 
ATOM      8  O   UNL     1      -1.309  12.039  17.799  0.00  0.00    +0.000 OA
ATOM      9  N   UNL     1       0.546  12.106  19.272  0.00  0.00    +0.000 N 
ATOM     10  C   UNL     1       1.004  11.246  20.341  0.00  0.00    +0.000 C 
BRANCH   9  11
ATOM     11  C   UNL     1       1.125  13.372  18.996  0.00  0.00    +0.000 A 
ATOM     12  C   UNL     1       0.454  14.567  19.295  0.00  0.00    +0.000 A 
ATOM     13  C   UNL     1       1.020  15.816  19.008  0.00  0.00    +0.000 A 
ATOM     14  C   UNL     1       2.275  15.889  18.416  0.00  0.00    +0.000 A 
ATOM     15  C   UNL     1       2.945  14.715  18.112  0.00  0.00    +0.000 A 
ATOM     16  F   UNL     1       4.156  14.775  17.542  0.00  0.00    +0.000 F 
ATOM     17  C   UNL     1       2.386  13.468  18.391  0.00  0.00    +0.000 A 
ENDBRANCH   9  11
ENDBRANCH   3   5
BRANCH   2  18
ATOM     18  C   UNL     1       2.817   7.228  18.451  0.00  0.00    +0.000 C 
ATOM     19  O   UNL     1       3.097   7.910  17.464  0.00  0.00    +0.000 OA
BRANCH  18  20
ATOM     20  C   UNL     1       3.366   5.891  18.665  0.00  0.00    +0.000 A 
ATOM     21  C   UNL     1       4.702   5.661  18.955  0.00  0.00    +0.000 A 
ATOM     22  N   UNL     1       4.889   4.321  19.148  0.00  0.00    +0.000 N 
ATOM     23  C   UNL     1       3.701   3.653  18.993  0.00  0.00    +0.000 A 
ATOM     24  C   UNL     1       3.425   2.284  19.122  0.00  0.00    +0.000 A 
ATOM     25  C   UNL     1       2.115   1.857  18.899  0.00  0.00    +0.000 A 
ATOM     26  C   UNL     1       1.121   2.767  18.556  0.00  0.00    +0.000 A 
ATOM     27  C   UNL     1       1.412   4.131  18.439  0.00  0.00    +0.000 A 
ATOM     28  C   UNL     1       2.725   4.601  18.667  0.00  0.00    +0.000 A 
ATOM     29  H   UNL     1       5.769   3.881  19.378  0.00  0.00    +0.000 HD
ENDBRANCH  18  20
ENDBRANCH   2  18
TORSDOF 4
ENDMDL
MODEL 5
REMARK VINA RESULT:      -8.2      4.695     10.194
REMARK  Name = 
REMARK  4 active torsions:
REMARK  status: ('A' for Active; 'I' for Inactive)
REMARK    1  A    between atoms: C_2  and  C_17
REMARK    2  A    between atoms: N_3  and  C_4
REMARK    3  A    between atoms: N_8  and  C_9
REMARK    4  A    between atoms: C_17  and  C_19
REMARK                            x       y       z     vdW  Elec       q    Type
REMARK                         _______ _______ _______ _____ _____    ______ ____
ROOT
ATOM      1  O   UNL     1       2.295   8.927  17.282  0.00  0.00    +0.000 OA
ATOM      2  C   UNL     1       1.928   8.713  18.428  0.00  0.00    +0.000 C 
ATOM      3  N   UNL     1       1.156   9.584  19.180  0.00  0.00    +0.000 N 
ATOM      4  H   UNL     1       1.108   9.399  20.180  0.00  0.00    +0.000 HD
ENDROOT
BRANCH   3   5
ATOM      5  C   UNL     1       0.769  10.889  18.645  0.00  0.00    +0.000 C 
ATOM      6  C   UNL     1       1.615  12.022  19.211  0.00  0.00    +0.000 C 
ATOM      7  C   UNL     1       0.843  12.469  20.431  0.00  0.00    +0.000 C 
ATOM      8  O   UNL     1       1.325  13.197  21.286  0.00  0.00    +0.000 OA
ATOM      9  N   UNL     1      -0.463  11.972  20.329  0.00  0.00    +0.000 N 
ATOM     10  C   UNL     1      -0.647  11.298  19.062  0.00  0.00    +0.000 C 
BRANCH   9  11
ATOM     11  C   UNL     1      -1.514  12.160  21.264  0.00  0.00    +0.000 A 
ATOM     12  C   UNL     1      -1.441  11.637  22.564  0.00  0.00    +0.000 A 
ATOM     13  C   UNL     1      -2.486  11.809  23.481  0.00  0.00    +0.000 A 
ATOM     14  C   UNL     1      -3.625  12.515  23.111  0.00  0.00    +0.000 A 
ATOM     15  C   UNL     1      -3.709  13.032  21.828  0.00  0.00    +0.000 A 
ATOM     16  F   UNL     1      -4.803  13.714  21.462  0.00  0.00    +0.000 F 
ATOM     17  C   UNL     1      -2.675  12.860  20.908  0.00  0.00    +0.000 A 
ENDBRANCH   9  11
ENDBRANCH   3   5
BRANCH   2  18
ATOM     18  C   UNL     1       2.319   7.424  19.154  0.00  0.00    +0.000 C 
ATOM     19  O   UNL     1       1.991   7.361  20.340  0.00  0.00    +0.000 OA
BRANCH  18  20
ATOM     20  C   UNL     1       2.955   6.311  18.453  0.00  0.00    +0.000 A 
ATOM     21  C   UNL     1       4.157   6.436  17.772  0.00  0.00    +0.000 A 
ATOM     22  N   UNL     1       4.510   5.215  17.270  0.00  0.00    +0.000 N 
ATOM     23  C   UNL     1       3.566   4.278  17.604  0.00  0.00    +0.000 A 
ATOM     24  C   UNL     1       3.534   2.904  17.320  0.00  0.00    +0.000 A 
ATOM     25  C   UNL     1       2.439   2.169  17.774  0.00  0.00    +0.000 A 
ATOM     26  C   UNL     1       1.413   2.785  18.481  0.00  0.00    +0.000 A 
ATOM     27  C   UNL     1       1.464   4.156  18.762  0.00  0.00    +0.000 A 
ATOM     28  C   UNL     1       2.563   4.932  18.328  0.00  0.00    +0.000 A 
ATOM     29  H   UNL     1       5.346   5.023  16.736  0.00  0.00    +0.000 HD
ENDBRANCH  18  20
ENDBRANCH   2  18
TORSDOF 4
ENDMDL
MODEL 6
REMARK VINA RESULT:      -8.1      1.733      2.344
REMARK  Name = 
REMARK  4 active torsions:
REMARK  status: ('A' for Active; 'I' for Inactive)
REMARK    1  A    between atoms: C_2  and  C_17
REMARK    2  A    between atoms: N_3  and  C_4
REMARK    3  A    between atoms: N_8  and  C_9
REMARK    4  A    between atoms: C_17  and  C_19
REMARK                            x       y       z     vdW  Elec       q    Type
REMARK                         _______ _______ _______ _____ _____    ______ ____
ROOT
ATOM      1  O   UNL     1       3.902   3.694  20.125  0.00  0.00    +0.000 OA
ATOM      2  C   UNL     1       3.772   4.851  19.754  0.00  0.00    +0.000 C 
ATOM      3  N   UNL     1       4.788   5.616  19.202  0.00  0.00    +0.000 N 
ATOM      4  H   UNL     1       4.620   6.618  19.144  0.00  0.00    +0.000 HD
ENDROOT
BRANCH   3   5
ATOM      5  C   UNL     1       6.144   5.081  19.082  0.00  0.00    +0.000 C 
ATOM      6  C   UNL     1       7.178   6.170  18.832  0.00  0.00    +0.000 C 
ATOM      7  C   UNL     1       7.248   6.257  17.325  0.00  0.00    +0.000 C 
ATOM      8  O   UNL     1       7.789   7.186  16.743  0.00  0.00    +0.000 OA
ATOM      9  N   UNL     1       6.676   5.095  16.793  0.00  0.00    +0.000 N 
ATOM     10  C   UNL     1       6.313   4.181  17.854  0.00  0.00    +0.000 C 
BRANCH   9  11
ATOM     11  C   UNL     1       6.539   4.774  15.417  0.00  0.00    +0.000 A 
ATOM     12  C   UNL     1       5.485   3.974  14.951  0.00  0.00    +0.000 A 
ATOM     13  C   UNL     1       5.360   3.645  13.595  0.00  0.00    +0.000 A 
ATOM     14  C   UNL     1       6.292   4.115  12.678  0.00  0.00    +0.000 A 
ATOM     15  C   UNL     1       7.341   4.902  13.128  0.00  0.00    +0.000 A 
ATOM     16  F   UNL     1       8.245   5.361  12.251  0.00  0.00    +0.000 F 
ATOM     17  C   UNL     1       7.474   5.230  14.477  0.00  0.00    +0.000 A 
ENDBRANCH   9  11
ENDBRANCH   3   5
BRANCH   2  18
ATOM     18  C   UNL     1       2.433   5.578  19.887  0.00  0.00    +0.000 C 
ATOM     19  O   UNL     1       1.584   5.008  20.574  0.00  0.00    +0.000 OA
BRANCH  18  20
ATOM     20  C   UNL     1       2.218   6.904  19.311  0.00  0.00    +0.000 A 
ATOM     21  C   UNL     1       2.483   7.201  17.983  0.00  0.00    +0.000 A 
ATOM     22  N   UNL     1       2.134   8.500  17.742  0.00  0.00    +0.000 N 
ATOM     23  C   UNL     1       1.640   9.074  18.886  0.00  0.00    +0.000 A 
ATOM     24  C   UNL     1       1.147  10.372  19.091  0.00  0.00    +0.000 A 
ATOM     25  C   UNL     1       0.709  10.709  20.372  0.00  0.00    +0.000 A 
ATOM     26  C   UNL     1       0.766   9.785  21.408  0.00  0.00    +0.000 A 
ATOM     27  C   UNL     1       1.255   8.493  21.185  0.00  0.00    +0.000 A 
ATOM     28  C   UNL     1       1.698   8.111  19.898  0.00  0.00    +0.000 A 
ATOM     29  H   UNL     1       2.218   8.973  16.853  0.00  0.00    +0.000 HD
ENDBRANCH  18  20
ENDBRANCH   2  18
TORSDOF 4
ENDMDL
MODEL 7
REMARK VINA RESULT:      -8.1      4.121     10.002
REMARK  Name = 
REMARK  4 active torsions:
REMARK  status: ('A' for Active; 'I' for Inactive)
REMARK    1  A    between atoms: C_2  and  C_17
REMARK    2  A    between atoms: N_3  and  C_4
REMARK    3  A    between atoms: N_8  and  C_9
REMARK    4  A    between atoms: C_17  and  C_19
REMARK                            x       y       z     vdW  Elec       q    Type
REMARK                         _______ _______ _______ _____ _____    ______ ____
ROOT
ATOM      1  O   UNL     1       2.586   8.575  17.070  0.00  0.00    +0.000 OA
ATOM      2  C   UNL     1       2.151   8.325  18.185  0.00  0.00    +0.000 C 
ATOM      3  N   UNL     1       1.315   9.163  18.906  0.00  0.00    +0.000 N 
ATOM      4  H   UNL     1       1.206   8.954  19.895  0.00  0.00    +0.000 HD
ENDROOT
BRANCH   3   5
ATOM      5  C   UNL     1       0.937  10.474  18.377  0.00  0.00    +0.000 C 
ATOM      6  C   UNL     1       1.855  11.585  18.869  0.00  0.00    +0.000 C 
ATOM      7  C   UNL     1       1.180  12.074  20.130  0.00  0.00    +0.000 C 
ATOM      8  O   UNL     1       1.741  12.797  20.940  0.00  0.00    +0.000 OA
ATOM      9  N   UNL     1      -0.145  11.620  20.121  0.00  0.00    +0.000 N 
ATOM     10  C   UNL     1      -0.435  10.936  18.879  0.00  0.00    +0.000 C 
BRANCH   9  11
ATOM     11  C   UNL     1      -1.126  11.856  21.120  0.00  0.00    +0.000 A 
ATOM     12  C   UNL     1      -1.009  11.308  22.406  0.00  0.00    +0.000 A 
ATOM     13  C   UNL     1      -1.985  11.529  23.386  0.00  0.00    +0.000 A 
ATOM     14  C   UNL     1      -3.099  12.307  23.094  0.00  0.00    +0.000 A 
ATOM     15  C   UNL     1      -3.226  12.849  21.824  0.00  0.00    +0.000 A 
ATOM     16  F   UNL     1      -4.296  13.602  21.533  0.00  0.00    +0.000 F 
ATOM     17  C   UNL     1      -2.261  12.630  20.842  0.00  0.00    +0.000 A 
ENDBRANCH   9  11
ENDBRANCH   3   5
BRANCH   2  18
ATOM     18  C   UNL     1       2.521   7.027  18.905  0.00  0.00    +0.000 C 
ATOM     19  O   UNL     1       2.241   6.985  20.103  0.00  0.00    +0.000 OA
BRANCH  18  20
ATOM     20  C   UNL     1       3.082   5.885  18.187  0.00  0.00    +0.000 A 
ATOM     21  C   UNL     1       2.371   4.717  17.953  0.00  0.00    +0.000 A 
ATOM     22  N   UNL     1       3.147   3.866  17.219  0.00  0.00    +0.000 N 
ATOM     23  C   UNL     1       4.364   4.444  16.958  0.00  0.00    +0.000 A 
ATOM     24  C   UNL     1       5.450   3.943  16.226  0.00  0.00    +0.000 A 
ATOM     25  C   UNL     1       6.590   4.742  16.119  0.00  0.00    +0.000 A 
ATOM     26  C   UNL     1       6.640   5.991  16.726  0.00  0.00    +0.000 A 
ATOM     27  C   UNL     1       5.545   6.479  17.447  0.00  0.00    +0.000 A 
ATOM     28  C   UNL     1       4.369   5.703  17.568  0.00  0.00    +0.000 A 
ATOM     29  H   UNL     1       2.870   2.946  16.905  0.00  0.00    +0.000 HD
ENDBRANCH  18  20
ENDBRANCH   2  18
TORSDOF 4
ENDMDL
MODEL 8
REMARK VINA RESULT:      -8.0      4.440      9.168
REMARK  Name = 
REMARK  4 active torsions:
REMARK  status: ('A' for Active; 'I' for Inactive)
REMARK    1  A    between atoms: C_2  and  C_17
REMARK    2  A    between atoms: N_3  and  C_4
REMARK    3  A    between atoms: N_8  and  C_9
REMARK    4  A    between atoms: C_17  and  C_19
REMARK                            x       y       z     vdW  Elec       q    Type
REMARK                         _______ _______ _______ _____ _____    ______ ____
ROOT
ATOM      1  O   UNL     1       1.883   7.549  20.366  0.00  0.00    +0.000 OA
ATOM      2  C   UNL     1       1.971   8.045  19.252  0.00  0.00    +0.000 C 
ATOM      3  N   UNL     1       1.353   9.225  18.869  0.00  0.00    +0.000 N 
ATOM      4  H   UNL     1       1.315   9.413  17.870  0.00  0.00    +0.000 HD
ENDROOT
BRANCH   3   5
ATOM      5  C   UNL     1       0.479   9.944  19.795  0.00  0.00    +0.000 C 
ATOM      6  C   UNL     1      -0.861  10.303  19.167  0.00  0.00    +0.000 C 
ATOM      7  C   UNL     1      -0.624  11.674  18.576  0.00  0.00    +0.000 C 
ATOM      8  O   UNL     1      -1.393  12.190  17.779  0.00  0.00    +0.000 OA
ATOM      9  N   UNL     1       0.533  12.206  19.159  0.00  0.00    +0.000 N 
ATOM     10  C   UNL     1       1.036  11.317  20.184  0.00  0.00    +0.000 C 
BRANCH   9  11
ATOM     11  C   UNL     1       1.110  13.474  18.885  0.00  0.00    +0.000 A 
ATOM     12  C   UNL     1       2.359  13.591  18.256  0.00  0.00    +0.000 A 
ATOM     13  C   UNL     1       2.935  14.842  18.001  0.00  0.00    +0.000 A 
ATOM     14  C   UNL     1       2.266  16.002  18.370  0.00  0.00    +0.000 A 
ATOM     15  C   UNL     1       1.033  15.898  18.996  0.00  0.00    +0.000 A 
ATOM     16  F   UNL     1       0.380  17.012  19.355  0.00  0.00    +0.000 F 
ATOM     17  C   UNL     1       0.456  14.656  19.258  0.00  0.00    +0.000 A 
ENDBRANCH   9  11
ENDBRANCH   3   5
BRANCH   2  18
ATOM     18  C   UNL     1       2.787   7.370  18.149  0.00  0.00    +0.000 C 
ATOM     19  O   UNL     1       2.970   8.043  17.134  0.00  0.00    +0.000 OA
BRANCH  18  20
ATOM     20  C   UNL     1       3.385   6.049  18.335  0.00  0.00    +0.000 A 
ATOM     21  C   UNL     1       4.746   5.856  18.517  0.00  0.00    +0.000 A 
ATOM     22  N   UNL     1       4.982   4.525  18.712  0.00  0.00    +0.000 N 
ATOM     23  C   UNL     1       3.802   3.826  18.666  0.00  0.00    +0.000 A 
ATOM     24  C   UNL     1       3.572   2.452  18.837  0.00  0.00    +0.000 A 
ATOM     25  C   UNL     1       2.260   1.991  18.729  0.00  0.00    +0.000 A 
ATOM     26  C   UNL     1       1.218   2.871  18.457  0.00  0.00    +0.000 A 
ATOM     27  C   UNL     1       1.464   4.240  18.297  0.00  0.00    +0.000 A 
ATOM     28  C   UNL     1       2.779   4.745  18.409  0.00  0.00    +0.000 A 
ATOM     29  H   UNL     1       5.888   4.109  18.875  0.00  0.00    +0.000 HD
ENDBRANCH  18  20
ENDBRANCH   2  18
TORSDOF 4
ENDMDL
MODEL 9
REMARK VINA RESULT:      -8.0      1.868      2.612
REMARK  Name = 
REMARK  4 active torsions:
REMARK  status: ('A' for Active; 'I' for Inactive)
REMARK    1  A    between atoms: C_2  and  C_17
REMARK    2  A    between atoms: N_3  and  C_4
REMARK    3  A    between atoms: N_8  and  C_9
REMARK    4  A    between atoms: C_17  and  C_19
REMARK                            x       y       z     vdW  Elec       q    Type
REMARK                         _______ _______ _______ _____ _____    ______ ____
ROOT
ATOM      1  O   UNL     1       3.988   3.941  20.194  0.00  0.00    +0.000 OA
ATOM      2  C   UNL     1       3.740   4.790  19.351  0.00  0.00    +0.000 C 
ATOM      3  N   UNL     1       4.659   5.280  18.436  0.00  0.00    +0.000 N 
ATOM      4  H   UNL     1       4.400   6.133  17.945  0.00  0.00    +0.000 HD
ENDROOT
BRANCH   3   5
ATOM      5  C   UNL     1       6.052   4.834  18.467  0.00  0.00    +0.000 C 
ATOM      6  C   UNL     1       7.034   5.997  18.426  0.00  0.00    +0.000 C 
ATOM      7  C   UNL     1       7.295   6.192  16.950  0.00  0.00    +0.000 C 
ATOM      8  O   UNL     1       7.844   7.189  16.503  0.00  0.00    +0.000 OA
ATOM      9  N   UNL     1       6.876   5.038  16.276  0.00  0.00    +0.000 N 
ATOM     10  C   UNL     1       6.440   4.033  17.221  0.00  0.00    +0.000 C 
BRANCH   9  11
ATOM     11  C   UNL     1       6.942   4.806  14.877  0.00  0.00    +0.000 A 
ATOM     12  C   UNL     1       7.856   5.492  14.062  0.00  0.00    +0.000 A 
ATOM     13  C   UNL     1       7.909   5.274  12.679  0.00  0.00    +0.000 A 
ATOM     14  C   UNL     1       7.047   4.359  12.087  0.00  0.00    +0.000 A 
ATOM     15  C   UNL     1       6.137   3.680  12.882  0.00  0.00    +0.000 A 
ATOM     16  F   UNL     1       5.302   2.795  12.320  0.00  0.00    +0.000 F 
ATOM     17  C   UNL     1       6.075   3.895  14.259  0.00  0.00    +0.000 A 
ENDBRANCH   9  11
ENDBRANCH   3   5
BRANCH   2  18
ATOM     18  C   UNL     1       2.346   5.412  19.244  0.00  0.00    +0.000 C 
ATOM     19  O   UNL     1       1.404   4.646  19.449  0.00  0.00    +0.000 OA
BRANCH  18  20
ATOM     20  C   UNL     1       2.161   6.842  19.007  0.00  0.00    +0.000 A 
ATOM     21  C   UNL     1       2.447   7.449  17.793  0.00  0.00    +0.000 A 
ATOM     22  N   UNL     1       2.122   8.774  17.874  0.00  0.00    +0.000 N 
ATOM     23  C   UNL     1       1.624   9.062  19.119  0.00  0.00    +0.000 A 
ATOM     24  C   UNL     1       1.149  10.279  19.630  0.00  0.00    +0.000 A 
ATOM     25  C   UNL     1       0.701  10.303  20.951  0.00  0.00    +0.000 A 
ATOM     26  C   UNL     1       0.730   9.153  21.732  0.00  0.00    +0.000 A 
ATOM     27  C   UNL     1       1.201   7.945  21.204  0.00  0.00    +0.000 A 
ATOM     28  C   UNL     1       1.653   7.880  19.866  0.00  0.00    +0.000 A 
ATOM     29  H   UNL     1       2.225   9.448  17.127  0.00  0.00    +0.000 HD
ENDBRANCH  18  20
ENDBRANCH   2  18
TORSDOF 4
ENDMDL
