MODEL 1
REMARK VINA RESULT:      -8.7      0.000      0.000
REMARK  Name = 
REMARK  5 active torsions:
REMARK  status: ('A' for Active; 'I' for Inactive)
REMARK    1  A    between atoms: C_1  and  C_2
REMARK    2  A    between atoms: C_5  and  C_6
REMARK    3  A    between atoms: N_7  and  N_8
REMARK    4  A    between atoms: N_13  and  C_14
REMARK    5  A    between atoms: C_17  and  C_18
REMARK                            x       y       z     vdW  Elec       q    Type
REMARK                         _______ _______ _______ _____ _____    ______ ____
ROOT
ATOM      1  N   UNL     1       7.253   7.754  18.037  0.00  0.00    +0.000 N 
ATOM      2  C   UNL     1       6.971   6.707  17.216  0.00  0.00    +0.000 A 
ATOM      3  N   UNL     1       7.665   6.329  16.140  0.00  0.00    +0.000 NA
ATOM      4  S   UNL     1       6.830   5.077  15.436  0.00  0.00    +0.000 S 
ATOM      5  C   UNL     1       5.596   5.078  16.640  0.00  0.00    +0.000 A 
ATOM      6  N   UNL     1       4.540   4.231  16.596  0.00  0.00    +0.000 N 
ATOM      7  N   UNL     1       5.824   6.007  17.545  0.00  0.00    +0.000 NA
ATOM      8  H   UNL     1       6.539   7.927  18.741  0.00  0.00    +0.000 HD
ATOM      9  H   UNL     1       4.372   3.690  15.757  0.00  0.00    +0.000 HD
ENDROOT
BRANCH   6  10
ATOM     10  C   UNL     1       3.743   3.874  17.700  0.00  0.00    +0.000 A 
ATOM     11  C   UNL     1       2.426   4.340  17.784  0.00  0.00    +0.000 A 
ATOM     12  C   UNL     1       1.646   4.086  18.921  0.00  0.00    +0.000 A 
ATOM     13  C   UNL     1       2.171   3.355  19.991  0.00  0.00    +0.000 A 
ATOM     14  C   UNL     1       1.379   3.107  21.239  0.00  0.00    +0.000 C 
ATOM     15  C   UNL     1       3.479   2.874  19.905  0.00  0.00    +0.000 A 
ATOM     16  C   UNL     1       4.253   3.141  18.778  0.00  0.00    +0.000 A 
ENDBRANCH   6  10
BRANCH   1  18
ATOM     17  C   UNL     1       8.485   9.580  18.537  0.00  0.00    +0.000 C 
ATOM     18  N   UNL     1       8.020   8.800  17.616  0.00  0.00    +0.000 NA
BRANCH  17  23
ATOM     19  C   UNL     1      11.527  14.311  17.217  0.00  0.00    +0.000 C 
ATOM     20  C   UNL     1      10.732  13.081  17.544  0.00  0.00    +0.000 A 
ATOM     21  C   UNL     1       9.337  13.088  17.444  0.00  0.00    +0.000 A 
ATOM     22  C   UNL     1       8.605  11.940  17.756  0.00  0.00    +0.000 A 
ATOM     23  C   UNL     1       9.262  10.781  18.175  0.00  0.00    +0.000 A 
ATOM     24  C   UNL     1      10.655  10.762  18.275  0.00  0.00    +0.000 A 
ATOM     25  C   UNL     1      11.385  11.911  17.958  0.00  0.00    +0.000 A 
ENDBRANCH  17  23
ENDBRANCH   1  18
TORSDOF 3
ENDMDL
MODEL 2
REMARK VINA RESULT:      -8.7      0.316      1.043
REMARK  Name = 
REMARK  5 active torsions:
REMARK  status: ('A' for Active; 'I' for Inactive)
REMARK    1  A    between atoms: C_1  and  C_2
REMARK    2  A    between atoms: C_5  and  C_6
REMARK    3  A    between atoms: N_7  and  N_8
REMARK    4  A    between atoms: N_13  and  C_14
REMARK    5  A    between atoms: C_17  and  C_18
REMARK                            x       y       z     vdW  Elec       q    Type
REMARK                         _______ _______ _______ _____ _____    ______ ____
ROOT
ATOM      1  N   UNL     1       7.453   7.829  18.203  0.00  0.00    +0.000 N 
ATOM      2  C   UNL     1       7.066   6.810  17.391  0.00  0.00    +0.000 A 
ATOM      3  N   UNL     1       7.655   6.430  16.254  0.00  0.00    +0.000 NA
ATOM      4  S   UNL     1       6.719   5.222  15.601  0.00  0.00    +0.000 S 
ATOM      5  C   UNL     1       5.590   5.240  16.903  0.00  0.00    +0.000 A 
ATOM      6  N   UNL     1       4.505   4.431  16.932  0.00  0.00    +0.000 N 
ATOM      7  N   UNL     1       5.926   6.142  17.802  0.00  0.00    +0.000 NA
ATOM      8  H   UNL     1       6.806   8.012  18.967  0.00  0.00    +0.000 HD
ATOM      9  H   UNL     1       4.249   3.913  16.101  0.00  0.00    +0.000 HD
ENDROOT
BRANCH   6  10
ATOM     10  C   UNL     1       3.790   4.079  18.092  0.00  0.00    +0.000 A 
ATOM     11  C   UNL     1       4.321   3.127  18.972  0.00  0.00    +0.000 A 
ATOM     12  C   UNL     1       3.584   2.683  20.079  0.00  0.00    +0.000 A 
ATOM     13  C   UNL     1       2.305   3.191  20.328  0.00  0.00    +0.000 A 
ATOM     14  C   UNL     1       1.475   2.702  21.475  0.00  0.00    +0.000 C 
ATOM     15  C   UNL     1       1.778   4.152  19.464  0.00  0.00    +0.000 A 
ATOM     16  C   UNL     1       2.510   4.579  18.358  0.00  0.00    +0.000 A 
ENDBRANCH   6  10
BRANCH   1  18
ATOM     17  C   UNL     1       8.627   9.713  18.617  0.00  0.00    +0.000 C 
ATOM     18  N   UNL     1       8.219   8.856  17.739  0.00  0.00    +0.000 NA
BRANCH  17  23
ATOM     19  C   UNL     1      11.650  14.391  17.078  0.00  0.00    +0.000 C 
ATOM     20  C   UNL     1      10.860  13.174  17.462  0.00  0.00    +0.000 A 
ATOM     21  C   UNL     1       9.461  13.194  17.427  0.00  0.00    +0.000 A 
ATOM     22  C   UNL     1       8.733  12.060  17.792  0.00  0.00    +0.000 A 
ATOM     23  C   UNL     1       9.398  10.900  18.200  0.00  0.00    +0.000 A 
ATOM     24  C   UNL     1      10.794  10.868  18.235  0.00  0.00    +0.000 A 
ATOM     25  C   UNL     1      11.520  12.004  17.865  0.00  0.00    +0.000 A 
ENDBRANCH  17  23
ENDBRANCH   1  18
TORSDOF 3
ENDMDL
MODEL 3
REMARK VINA RESULT:      -8.7      0.245      1.038
REMARK  Name = 
REMARK  5 active torsions:
REMARK  status: ('A' for Active; 'I' for Inactive)
REMARK    1  A    between atoms: C_1  and  C_2
REMARK    2  A    between atoms: C_5  and  C_6
REMARK    3  A    between atoms: N_7  and  N_8
REMARK    4  A    between atoms: N_13  and  C_14
REMARK    5  A    between atoms: C_17  and  C_18
REMARK                            x       y       z     vdW  Elec       q    Type
REMARK                         _______ _______ _______ _____ _____    ______ ____
ROOT
ATOM      1  N   UNL     1       7.403   7.673  18.147  0.00  0.00    +0.000 N 
ATOM      2  C   UNL     1       7.030   6.676  17.301  0.00  0.00    +0.000 A 
ATOM      3  N   UNL     1       7.626   6.340  16.154  0.00  0.00    +0.000 NA
ATOM      4  S   UNL     1       6.707   5.142  15.460  0.00  0.00    +0.000 S 
ATOM      5  C   UNL     1       5.574   5.106  16.758  0.00  0.00    +0.000 A 
ATOM      6  N   UNL     1       4.498   4.283  16.758  0.00  0.00    +0.000 N 
ATOM      7  N   UNL     1       5.896   5.982  17.687  0.00  0.00    +0.000 NA
ATOM      8  H   UNL     1       6.752   7.824  18.914  0.00  0.00    +0.000 HD
ATOM      9  H   UNL     1       4.250   3.790  15.910  0.00  0.00    +0.000 HD
ENDROOT
BRANCH   6  10
ATOM     10  C   UNL     1       3.785   3.886  17.904  0.00  0.00    +0.000 A 
ATOM     11  C   UNL     1       2.564   4.501  18.209  0.00  0.00    +0.000 A 
ATOM     12  C   UNL     1       1.885   4.198  19.398  0.00  0.00    +0.000 A 
ATOM     13  C   UNL     1       2.414   3.269  20.298  0.00  0.00    +0.000 A 
ATOM     14  C   UNL     1       1.736   2.959  21.598  0.00  0.00    +0.000 C 
ATOM     15  C   UNL     1       3.623   2.641  19.991  0.00  0.00    +0.000 A 
ATOM     16  C   UNL     1       4.299   2.956  18.815  0.00  0.00    +0.000 A 
ENDBRANCH   6  10
BRANCH   1  18
ATOM     17  C   UNL     1       8.546   9.561  18.623  0.00  0.00    +0.000 C 
ATOM     18  N   UNL     1       8.158   8.723  17.718  0.00  0.00    +0.000 NA
BRANCH  17  23
ATOM     19  C   UNL     1      11.516  14.262  17.051  0.00  0.00    +0.000 C 
ATOM     20  C   UNL     1      10.749  13.043  17.475  0.00  0.00    +0.000 A 
ATOM     21  C   UNL     1      11.419  11.912  17.953  0.00  0.00    +0.000 A 
ATOM     22  C   UNL     1      10.698  10.780  18.340  0.00  0.00    +0.000 A 
ATOM     23  C   UNL     1       9.303  10.770  18.246  0.00  0.00    +0.000 A 
ATOM     24  C   UNL     1       8.625  11.896  17.773  0.00  0.00    +0.000 A 
ATOM     25  C   UNL     1       9.349  13.028  17.390  0.00  0.00    +0.000 A 
ENDBRANCH  17  23
ENDBRANCH   1  18
TORSDOF 3
ENDMDL
MODEL 4
REMARK VINA RESULT:      -8.7      0.338      1.455
REMARK  Name = 
REMARK  5 active torsions:
REMARK  status: ('A' for Active; 'I' for Inactive)
REMARK    1  A    between atoms: C_1  and  C_2
REMARK    2  A    between atoms: C_5  and  C_6
REMARK    3  A    between atoms: N_7  and  N_8
REMARK    4  A    between atoms: N_13  and  C_14
REMARK    5  A    between atoms: C_17  and  C_18
REMARK                            x       y       z     vdW  Elec       q    Type
REMARK                         _______ _______ _______ _____ _____    ______ ____
ROOT
ATOM      1  N   UNL     1       7.503   7.783  18.238  0.00  0.00    +0.000 N 
ATOM      2  C   UNL     1       7.072   6.799  17.404  0.00  0.00    +0.000 A 
ATOM      3  N   UNL     1       7.624   6.441  16.243  0.00  0.00    +0.000 NA
ATOM      4  S   UNL     1       6.644   5.277  15.575  0.00  0.00    +0.000 S 
ATOM      5  C   UNL     1       5.546   5.282  16.903  0.00  0.00    +0.000 A 
ATOM      6  N   UNL     1       4.441   4.499  16.933  0.00  0.00    +0.000 N 
ATOM      7  N   UNL     1       5.924   6.147  17.821  0.00  0.00    +0.000 NA
ATOM      8  H   UNL     1       6.879   7.957  19.022  0.00  0.00    +0.000 HD
ATOM      9  H   UNL     1       4.153   4.014  16.093  0.00  0.00    +0.000 HD
ENDROOT
BRANCH   6  10
ATOM     10  C   UNL     1       3.744   4.129  18.099  0.00  0.00    +0.000 A 
ATOM     11  C   UNL     1       4.298   3.179  18.965  0.00  0.00    +0.000 A 
ATOM     12  C   UNL     1       3.580   2.717  20.077  0.00  0.00    +0.000 A 
ATOM     13  C   UNL     1       2.297   3.204  20.343  0.00  0.00    +0.000 A 
ATOM     14  C   UNL     1       1.486   2.696  21.497  0.00  0.00    +0.000 C 
ATOM     15  C   UNL     1       1.747   4.164  19.493  0.00  0.00    +0.000 A 
ATOM     16  C   UNL     1       2.461   4.609  18.382  0.00  0.00    +0.000 A 
ENDBRANCH   6  10
BRANCH   1  18
ATOM     17  C   UNL     1       8.618   9.700  18.658  0.00  0.00    +0.000 C 
ATOM     18  N   UNL     1       8.284   8.804  17.787  0.00  0.00    +0.000 NA
BRANCH  17  23
ATOM     19  C   UNL     1      11.674  14.301  16.959  0.00  0.00    +0.000 C 
ATOM     20  C   UNL     1      10.886  13.108  17.416  0.00  0.00    +0.000 A 
ATOM     21  C   UNL     1      11.537  11.958  17.874  0.00  0.00    +0.000 A 
ATOM     22  C   UNL     1      10.796  10.851  18.292  0.00  0.00    +0.000 A 
ATOM     23  C   UNL     1       9.399  10.884  18.248  0.00  0.00    +0.000 A 
ATOM     24  C   UNL     1       8.739  12.029  17.796  0.00  0.00    +0.000 A 
ATOM     25  C   UNL     1       9.484  13.137  17.382  0.00  0.00    +0.000 A 
ENDBRANCH  17  23
ENDBRANCH   1  18
TORSDOF 3
ENDMDL
MODEL 5
REMARK VINA RESULT:      -7.9      5.712      8.357
REMARK  Name = 
REMARK  5 active torsions:
REMARK  status: ('A' for Active; 'I' for Inactive)
REMARK    1  A    between atoms: C_1  and  C_2
REMARK    2  A    between atoms: C_5  and  C_6
REMARK    3  A    between atoms: N_7  and  N_8
REMARK    4  A    between atoms: N_13  and  C_14
REMARK    5  A    between atoms: C_17  and  C_18
REMARK                            x       y       z     vdW  Elec       q    Type
REMARK                         _______ _______ _______ _____ _____    ______ ____
ROOT
ATOM      1  N   UNL     1       1.931   7.863  19.628  0.00  0.00    +0.000 N 
ATOM      2  C   UNL     1       2.218   6.561  19.895  0.00  0.00    +0.000 A 
ATOM      3  N   UNL     1       1.589   5.771  20.770  0.00  0.00    +0.000 NA
ATOM      4  S   UNL     1       2.405   4.323  20.792  0.00  0.00    +0.000 S 
ATOM      5  C   UNL     1       3.539   4.817  19.592  0.00  0.00    +0.000 A 
ATOM      6  N   UNL     1       4.546   4.014  19.172  0.00  0.00    +0.000 N 
ATOM      7  N   UNL     1       3.294   6.048  19.193  0.00  0.00    +0.000 NA
ATOM      8  H   UNL     1       2.597   8.308  19.000  0.00  0.00    +0.000 HD
ATOM      9  H   UNL     1       4.748   3.164  19.682  0.00  0.00    +0.000 HD
ENDROOT
BRANCH   6  10
ATOM     10  C   UNL     1       5.233   4.151  17.951  0.00  0.00    +0.000 A 
ATOM     11  C   UNL     1       6.555   4.611  17.947  0.00  0.00    +0.000 A 
ATOM     12  C   UNL     1       7.226   4.854  16.740  0.00  0.00    +0.000 A 
ATOM     13  C   UNL     1       6.585   4.634  15.517  0.00  0.00    +0.000 A 
ATOM     14  C   UNL     1       7.259   4.929  14.211  0.00  0.00    +0.000 C 
ATOM     15  C   UNL     1       5.273   4.159  15.516  0.00  0.00    +0.000 A 
ATOM     16  C   UNL     1       4.607   3.932  16.719  0.00  0.00    +0.000 A 
ENDBRANCH   6  10
BRANCH   1  18
ATOM     17  C   UNL     1       0.404   9.476  20.031  0.00  0.00    +0.000 C 
ATOM     18  N   UNL     1       1.260   8.641  20.522  0.00  0.00    +0.000 NA
BRANCH  17  23
ATOM     19  C   UNL     1      -2.503  13.094  23.473  0.00  0.00    +0.000 C 
ATOM     20  C   UNL     1      -1.736  12.166  22.577  0.00  0.00    +0.000 A 
ATOM     21  C   UNL     1      -1.577  12.458  21.219  0.00  0.00    +0.000 A 
ATOM     22  C   UNL     1      -0.868  11.586  20.391  0.00  0.00    +0.000 A 
ATOM     23  C   UNL     1      -0.317  10.413  20.914  0.00  0.00    +0.000 A 
ATOM     24  C   UNL     1      -0.465  10.114  22.270  0.00  0.00    +0.000 A 
ATOM     25  C   UNL     1      -1.173  10.991  23.097  0.00  0.00    +0.000 A 
ENDBRANCH  17  23
ENDBRANCH   1  18
TORSDOF 3
ENDMDL
MODEL 6
REMARK VINA RESULT:      -7.8      5.819      8.136
REMARK  Name = 
REMARK  5 active torsions:
REMARK  status: ('A' for Active; 'I' for Inactive)
REMARK    1  A    between atoms: C_1  and  C_2
REMARK    2  A    between atoms: C_5  and  C_6
REMARK    3  A    between atoms: N_7  and  N_8
REMARK    4  A    between atoms: N_13  and  C_14
REMARK    5  A    between atoms: C_17  and  C_18
REMARK                            x       y       z     vdW  Elec       q    Type
REMARK                         _______ _______ _______ _____ _____    ______ ____
ROOT
ATOM      1  N   UNL     1       1.987   7.934  19.643  0.00  0.00    +0.000 N 
ATOM      2  C   UNL     1       2.249   6.625  19.903  0.00  0.00    +0.000 A 
ATOM      3  N   UNL     1       1.610   5.844  20.778  0.00  0.00    +0.000 NA
ATOM      4  S   UNL     1       2.396   4.380  20.789  0.00  0.00    +0.000 S 
ATOM      5  C   UNL     1       3.533   4.856  19.583  0.00  0.00    +0.000 A 
ATOM      6  N   UNL     1       4.520   4.035  19.153  0.00  0.00    +0.000 N 
ATOM      7  N   UNL     1       3.310   6.094  19.191  0.00  0.00    +0.000 NA
ATOM      8  H   UNL     1       2.657   8.368  19.012  0.00  0.00    +0.000 HD
ATOM      9  H   UNL     1       4.708   3.178  19.658  0.00  0.00    +0.000 HD
ENDROOT
BRANCH   6  10
ATOM     10  C   UNL     1       5.201   4.163  17.928  0.00  0.00    +0.000 A 
ATOM     11  C   UNL     1       6.527   4.611  17.915  0.00  0.00    +0.000 A 
ATOM     12  C   UNL     1       7.194   4.845  16.704  0.00  0.00    +0.000 A 
ATOM     13  C   UNL     1       6.544   4.629  15.485  0.00  0.00    +0.000 A 
ATOM     14  C   UNL     1       7.214   4.915  14.175  0.00  0.00    +0.000 C 
ATOM     15  C   UNL     1       5.227   4.166  15.492  0.00  0.00    +0.000 A 
ATOM     16  C   UNL     1       4.566   3.948  16.699  0.00  0.00    +0.000 A 
ENDBRANCH   6  10
BRANCH   1  18
ATOM     17  C   UNL     1       0.779   9.791  20.080  0.00  0.00    +0.000 C 
ATOM     18  N   UNL     1       1.338   8.722  20.546  0.00  0.00    +0.000 NA
BRANCH  17  23
ATOM     19  C   UNL     1      -1.725  13.537  23.697  0.00  0.00    +0.000 C 
ATOM     20  C   UNL     1      -1.090  12.558  22.754  0.00  0.00    +0.000 A 
ATOM     21  C   UNL     1      -1.140  11.184  23.013  0.00  0.00    +0.000 A 
ATOM     22  C   UNL     1      -0.541  10.281  22.133  0.00  0.00    +0.000 A 
ATOM     23  C   UNL     1       0.118  10.745  20.991  0.00  0.00    +0.000 A 
ATOM     24  C   UNL     1       0.170  12.114  20.720  0.00  0.00    +0.000 A 
ATOM     25  C   UNL     1      -0.434  13.016  21.601  0.00  0.00    +0.000 A 
ENDBRANCH  17  23
ENDBRANCH   1  18
TORSDOF 3
ENDMDL
MODEL 7
REMARK VINA RESULT:      -7.7      5.728      8.348
REMARK  Name = 
REMARK  5 active torsions:
REMARK  status: ('A' for Active; 'I' for Inactive)
REMARK    1  A    between atoms: C_1  and  C_2
REMARK    2  A    between atoms: C_5  and  C_6
REMARK    3  A    between atoms: N_7  and  N_8
REMARK    4  A    between atoms: N_13  and  C_14
REMARK    5  A    between atoms: C_17  and  C_18
REMARK                            x       y       z     vdW  Elec       q    Type
REMARK                         _______ _______ _______ _____ _____    ______ ____
ROOT
ATOM      1  N   UNL     1       1.882   7.924  19.587  0.00  0.00    +0.000 N 
ATOM      2  C   UNL     1       2.243   6.633  19.820  0.00  0.00    +0.000 A 
ATOM      3  N   UNL     1       1.672   5.790  20.684  0.00  0.00    +0.000 NA
ATOM      4  S   UNL     1       2.566   4.390  20.662  0.00  0.00    +0.000 S 
ATOM      5  C   UNL     1       3.655   4.973  19.460  0.00  0.00    +0.000 A 
ATOM      6  N   UNL     1       4.698   4.237  19.009  0.00  0.00    +0.000 N 
ATOM      7  N   UNL     1       3.337   6.197  19.093  0.00  0.00    +0.000 NA
ATOM      8  H   UNL     1       2.513   8.418  18.961  0.00  0.00    +0.000 HD
ATOM      9  H   UNL     1       4.954   3.388  19.496  0.00  0.00    +0.000 HD
ENDROOT
BRANCH   6  10
ATOM     10  C   UNL     1       5.359   4.439  17.783  0.00  0.00    +0.000 A 
ATOM     11  C   UNL     1       4.656   4.284  16.582  0.00  0.00    +0.000 A 
ATOM     12  C   UNL     1       5.313   4.378  15.348  0.00  0.00    +0.000 A 
ATOM     13  C   UNL     1       6.687   4.633  15.295  0.00  0.00    +0.000 A 
ATOM     14  C   UNL     1       7.427   4.692  13.993  0.00  0.00    +0.000 C 
ATOM     15  C   UNL     1       7.390   4.804  16.489  0.00  0.00    +0.000 A 
ATOM     16  C   UNL     1       6.733   4.697  17.713  0.00  0.00    +0.000 A 
ENDBRANCH   6  10
BRANCH   1  18
ATOM     17  C   UNL     1       0.449   9.606  20.051  0.00  0.00    +0.000 C 
ATOM     18  N   UNL     1       1.181   8.643  20.508  0.00  0.00    +0.000 NA
BRANCH  17  23
ATOM     19  C   UNL     1      -2.516  13.007  23.660  0.00  0.00    +0.000 C 
ATOM     20  C   UNL     1      -1.735  12.136  22.721  0.00  0.00    +0.000 A 
ATOM     21  C   UNL     1      -1.606  12.480  21.371  0.00  0.00    +0.000 A 
ATOM     22  C   UNL     1      -0.882  11.661  20.503  0.00  0.00    +0.000 A 
ATOM     23  C   UNL     1      -0.287  10.488  20.977  0.00  0.00    +0.000 A 
ATOM     24  C   UNL     1      -0.406  10.136  22.323  0.00  0.00    +0.000 A 
ATOM     25  C   UNL     1      -1.128  10.961  23.191  0.00  0.00    +0.000 A 
ENDBRANCH  17  23
ENDBRANCH   1  18
TORSDOF 3
ENDMDL
MODEL 8
REMARK VINA RESULT:      -7.7      5.605      8.340
REMARK  Name = 
REMARK  5 active torsions:
REMARK  status: ('A' for Active; 'I' for Inactive)
REMARK    1  A    between atoms: C_1  and  C_2
REMARK    2  A    between atoms: C_5  and  C_6
REMARK    3  A    between atoms: N_7  and  N_8
REMARK    4  A    between atoms: N_13  and  C_14
REMARK    5  A    between atoms: C_17  and  C_18
REMARK                            x       y       z     vdW  Elec       q    Type
REMARK                         _______ _______ _______ _____ _____    ______ ____
ROOT
ATOM      1  N   UNL     1       2.010   7.913  19.412  0.00  0.00    +0.000 N 
ATOM      2  C   UNL     1       2.376   6.622  19.635  0.00  0.00    +0.000 A 
ATOM      3  N   UNL     1       1.828   5.780  20.515  0.00  0.00    +0.000 NA
ATOM      4  S   UNL     1       2.720   4.378  20.468  0.00  0.00    +0.000 S 
ATOM      5  C   UNL     1       3.775   4.960  19.235  0.00  0.00    +0.000 A 
ATOM      6  N   UNL     1       4.805   4.223  18.755  0.00  0.00    +0.000 N 
ATOM      7  N   UNL     1       3.448   6.185  18.877  0.00  0.00    +0.000 NA
ATOM      8  H   UNL     1       2.623   8.407  18.769  0.00  0.00    +0.000 HD
ATOM      9  H   UNL     1       5.073   3.373  19.234  0.00  0.00    +0.000 HD
ENDROOT
BRANCH   6  10
ATOM     10  C   UNL     1       5.431   4.424  17.511  0.00  0.00    +0.000 A 
ATOM     11  C   UNL     1       4.702   4.241  16.330  0.00  0.00    +0.000 A 
ATOM     12  C   UNL     1       5.327   4.333  15.078  0.00  0.00    +0.000 A 
ATOM     13  C   UNL     1       6.693   4.618  14.989  0.00  0.00    +0.000 A 
ATOM     14  C   UNL     1       7.399   4.677  13.668  0.00  0.00    +0.000 C 
ATOM     15  C   UNL     1       7.421   4.817  16.162  0.00  0.00    +0.000 A 
ATOM     16  C   UNL     1       6.796   4.711  17.403  0.00  0.00    +0.000 A 
ENDBRANCH   6  10
BRANCH   1  18
ATOM     17  C   UNL     1       0.431   9.446  19.916  0.00  0.00    +0.000 C 
ATOM     18  N   UNL     1       1.336   8.633  20.353  0.00  0.00    +0.000 NA
BRANCH  17  23
ATOM     19  C   UNL     1      -2.343  12.933  23.596  0.00  0.00    +0.000 C 
ATOM     20  C   UNL     1      -1.634  12.016  22.642  0.00  0.00    +0.000 A 
ATOM     21  C   UNL     1      -1.056  10.825  23.096  0.00  0.00    +0.000 A 
ATOM     22  C   UNL     1      -0.394   9.981  22.203  0.00  0.00    +0.000 A 
ATOM     23  C   UNL     1      -0.299  10.323  20.852  0.00  0.00    +0.000 A 
ATOM     24  C   UNL     1      -0.876  11.508  20.387  0.00  0.00    +0.000 A 
ATOM     25  C   UNL     1      -1.542  12.349  21.283  0.00  0.00    +0.000 A 
ENDBRANCH  17  23
ENDBRANCH   1  18
TORSDOF 3
ENDMDL
MODEL 9
REMARK VINA RESULT:      -7.4      5.289      7.990
REMARK  Name = 
REMARK  5 active torsions:
REMARK  status: ('A' for Active; 'I' for Inactive)
REMARK    1  A    between atoms: C_1  and  C_2
REMARK    2  A    between atoms: C_5  and  C_6
REMARK    3  A    between atoms: N_7  and  N_8
REMARK    4  A    between atoms: N_13  and  C_14
REMARK    5  A    between atoms: C_17  and  C_18
REMARK                            x       y       z     vdW  Elec       q    Type
REMARK                         _______ _______ _______ _____ _____    ______ ____
ROOT
ATOM      1  N   UNL     1       2.513   7.505  18.611  0.00  0.00    +0.000 N 
ATOM      2  C   UNL     1       2.804   6.181  18.720  0.00  0.00    +0.000 A 
ATOM      3  N   UNL     1       2.190   5.293  19.507  0.00  0.00    +0.000 NA
ATOM      4  S   UNL     1       3.007   3.855  19.347  0.00  0.00    +0.000 S 
ATOM      5  C   UNL     1       4.121   4.488  18.194  0.00  0.00    +0.000 A 
ATOM      6  N   UNL     1       5.121   3.741  17.667  0.00  0.00    +0.000 N 
ATOM      7  N   UNL     1       3.869   5.756  17.945  0.00  0.00    +0.000 NA
ATOM      8  H   UNL     1       3.167   8.021  18.028  0.00  0.00    +0.000 HD
ATOM      9  H   UNL     1       5.332   2.838  18.070  0.00  0.00    +0.000 HD
ENDROOT
BRANCH   6  10
ATOM     10  C   UNL     1       5.786   4.020  16.459  0.00  0.00    +0.000 A 
ATOM     11  C   UNL     1       7.005   4.710  16.481  0.00  0.00    +0.000 A 
ATOM     12  C   UNL     1       7.636   5.091  15.289  0.00  0.00    +0.000 A 
ATOM     13  C   UNL     1       7.060   4.782  14.053  0.00  0.00    +0.000 A 
ATOM     14  C   UNL     1       7.687   5.216  12.763  0.00  0.00    +0.000 C 
ATOM     15  C   UNL     1       5.854   4.080  14.025  0.00  0.00    +0.000 A 
ATOM     16  C   UNL     1       5.225   3.716  15.213  0.00  0.00    +0.000 A 
ENDBRANCH   6  10
BRANCH   1  18
ATOM     17  C   UNL     1       1.141   9.186  19.236  0.00  0.00    +0.000 C 
ATOM     18  N   UNL     1       1.856   8.172  19.601  0.00  0.00    +0.000 NA
BRANCH  17  23
ATOM     19  C   UNL     1      -1.460  12.478  23.209  0.00  0.00    +0.000 C 
ATOM     20  C   UNL     1      -0.798  11.613  22.177  0.00  0.00    +0.000 A 
ATOM     21  C   UNL     1      -0.357  10.326  22.505  0.00  0.00    +0.000 A 
ATOM     22  C   UNL     1       0.264   9.530  21.541  0.00  0.00    +0.000 A 
ATOM     23  C   UNL     1       0.454  10.016  20.245  0.00  0.00    +0.000 A 
ATOM     24  C   UNL     1       0.015  11.298  19.906  0.00  0.00    +0.000 A 
ATOM     25  C   UNL     1      -0.610  12.091  20.872  0.00  0.00    +0.000 A 
ENDBRANCH  17  23
ENDBRANCH   1  18
TORSDOF 3
ENDMDL
