MODEL 1
REMARK VINA RESULT:      -7.3      0.000      0.000
REMARK  Name = 
REMARK  7 active torsions:
REMARK  status: ('A' for Active; 'I' for Inactive)
REMARK    1  A    between atoms: C_1  and  C_2
REMARK    2  A    between atoms: C_2  and  C_3
REMARK    3  A    between atoms: C_6  and  C_7
REMARK    4  A    between atoms: N_11  and  C_12
REMARK    5  A    between atoms: C_13  and  C_14
REMARK    6  A    between atoms: N_15  and  C_16
REMARK    7  A    between atoms: N_17  and  C_18
REMARK                            x       y       z     vdW  Elec       q    Type
REMARK                         _______ _______ _______ _____ _____    ______ ____
ROOT
ATOM      1  C   UNL     1       2.018   8.700  18.494  0.00  0.00    +0.000 C 
ATOM      2  N   UNL     1       2.161   9.692  17.658  0.00  0.00    +0.000 NA
ATOM      3  N   UNL     1       1.529  10.872  17.972  0.00  0.00    +0.000 N 
ATOM      4  C   UNL     1       0.375  11.097  18.696  0.00  0.00    +0.000 C 
ATOM      5  N   UNL     1      -0.123  12.308  18.761  0.00  0.00    +0.000 NA
ATOM      6  S   UNL     1      -0.332   9.648  19.425  0.00  0.00    +0.000 S 
ATOM      7  C   UNL     1       1.252   8.847  19.795  0.00  0.00    +0.000 C 
ATOM      8  H   UNL     1       1.813  11.687  17.434  0.00  0.00    +0.000 HD
ENDROOT
BRANCH   5   9
ATOM      9  C   UNL     1      -1.229  12.538  19.536  0.00  0.00    +0.000 A 
ATOM     10  C   UNL     1      -1.340  12.726  20.867  0.00  0.00    +0.000 A 
ATOM     11  C   UNL     1      -0.221  12.638  21.852  0.00  0.00    +0.000 C 
ATOM     12  N   UNL     1      -2.657  12.995  21.272  0.00  0.00    +0.000 N 
ATOM     13  C   UNL     1      -3.205  12.632  22.580  0.00  0.00    +0.000 C 
ATOM     14  N   UNL     1      -3.461  12.758  20.135  0.00  0.00    +0.000 N 
ATOM     15  C   UNL     1      -2.659  12.340  19.079  0.00  0.00    +0.000 A 
ATOM     16  O   UNL     1      -2.990  11.898  17.990  0.00  0.00    +0.000 OA
BRANCH  14  17
ATOM     17  C   UNL     1      -4.857  12.721  20.172  0.00  0.00    +0.000 A 
ATOM     18  C   UNL     1      -5.530  11.501  20.078  0.00  0.00    +0.000 A 
ATOM     19  C   UNL     1      -6.923  11.467  20.082  0.00  0.00    +0.000 A 
ATOM     20  C   UNL     1      -7.645  12.656  20.129  0.00  0.00    +0.000 A 
ATOM     21  C   UNL     1      -6.980  13.881  20.194  0.00  0.00    +0.000 A 
ATOM     22  C   UNL     1      -5.585  13.915  20.241  0.00  0.00    +0.000 A 
ENDBRANCH  14  17
ENDBRANCH   5   9
BRANCH   1  26
ATOM     23  C   UNL     1       3.758   4.843  17.617  0.00  0.00    +0.000 A 
ATOM     24  C   UNL     1       4.378   6.013  17.157  0.00  0.00    +0.000 A 
ATOM     25  C   UNL     1       3.823   7.271  17.427  0.00  0.00    +0.000 A 
ATOM     26  C   UNL     1       2.645   7.376  18.176  0.00  0.00    +0.000 A 
ATOM     27  C   UNL     1       2.030   6.209  18.644  0.00  0.00    +0.000 A 
ATOM     28  C   UNL     1       2.585   4.954  18.373  0.00  0.00    +0.000 A 
BRANCH  23  30
ATOM     29  C   UNL     1       3.491   2.346  17.827  0.00  0.00    +0.000 C 
ATOM     30  C   UNL     1       4.345   3.489  17.301  0.00  0.00    +0.000 C 
ENDBRANCH  23  30
ENDBRANCH   1  26
TORSDOF 4
ENDMDL
MODEL 2
REMARK VINA RESULT:      -7.3      2.623      3.238
REMARK  Name = 
REMARK  7 active torsions:
REMARK  status: ('A' for Active; 'I' for Inactive)
REMARK    1  A    between atoms: C_1  and  C_2
REMARK    2  A    between atoms: C_2  and  C_3
REMARK    3  A    between atoms: C_6  and  C_7
REMARK    4  A    between atoms: N_11  and  C_12
REMARK    5  A    between atoms: C_13  and  C_14
REMARK    6  A    between atoms: N_15  and  C_16
REMARK    7  A    between atoms: N_17  and  C_18
REMARK                            x       y       z     vdW  Elec       q    Type
REMARK                         _______ _______ _______ _____ _____    ______ ____
ROOT
ATOM      1  C   UNL     1       0.964   8.871  20.604  0.00  0.00    +0.000 C 
ATOM      2  N   UNL     1       1.327   9.030  21.848  0.00  0.00    +0.000 NA
ATOM      3  N   UNL     1       0.533   9.833  22.633  0.00  0.00    +0.000 N 
ATOM      4  C   UNL     1      -0.264  10.907  22.288  0.00  0.00    +0.000 C 
ATOM      5  N   UNL     1      -0.837  11.616  23.229  0.00  0.00    +0.000 NA
ATOM      6  S   UNL     1      -0.363  11.220  20.549  0.00  0.00    +0.000 S 
ATOM      7  C   UNL     1      -0.312   9.477  20.053  0.00  0.00    +0.000 C 
ATOM      8  H   UNL     1       0.702   9.784  23.635  0.00  0.00    +0.000 HD
ENDROOT
BRANCH   5   9
ATOM      9  C   UNL     1      -1.681  12.638  22.878  0.00  0.00    +0.000 A 
ATOM     10  C   UNL     1      -1.411  13.900  22.489  0.00  0.00    +0.000 A 
ATOM     11  C   UNL     1      -0.053  14.519  22.431  0.00  0.00    +0.000 C 
ATOM     12  N   UNL     1      -2.566  14.627  22.156  0.00  0.00    +0.000 N 
ATOM     13  C   UNL     1      -2.698  16.076  22.314  0.00  0.00    +0.000 C 
ATOM     14  N   UNL     1      -3.653  13.821  22.560  0.00  0.00    +0.000 N 
ATOM     15  C   UNL     1      -3.173  12.650  23.138  0.00  0.00    +0.000 A 
ATOM     16  O   UNL     1      -3.786  11.781  23.739  0.00  0.00    +0.000 OA
BRANCH  14  17
ATOM     17  C   UNL     1      -4.976  14.267  22.585  0.00  0.00    +0.000 A 
ATOM     18  C   UNL     1      -5.531  14.753  23.771  0.00  0.00    +0.000 A 
ATOM     19  C   UNL     1      -6.861  15.169  23.804  0.00  0.00    +0.000 A 
ATOM     20  C   UNL     1      -7.652  15.051  22.665  0.00  0.00    +0.000 A 
ATOM     21  C   UNL     1      -7.113  14.538  21.484  0.00  0.00    +0.000 A 
ATOM     22  C   UNL     1      -5.768  14.168  21.435  0.00  0.00    +0.000 A 
ENDBRANCH  14  17
ENDBRANCH   5   9
BRANCH   1  26
ATOM     23  C   UNL     1       3.428   6.427  18.030  0.00  0.00    +0.000 A 
ATOM     24  C   UNL     1       3.023   7.701  17.609  0.00  0.00    +0.000 A 
ATOM     25  C   UNL     1       2.219   8.503  18.430  0.00  0.00    +0.000 A 
ATOM     26  C   UNL     1       1.819   8.046  19.691  0.00  0.00    +0.000 A 
ATOM     27  C   UNL     1       2.230   6.777  20.115  0.00  0.00    +0.000 A 
ATOM     28  C   UNL     1       3.033   5.977  19.295  0.00  0.00    +0.000 A 
BRANCH  23  30
ATOM     29  C   UNL     1       5.085   6.361  16.131  0.00  0.00    +0.000 C 
ATOM     30  C   UNL     1       4.271   5.555  17.132  0.00  0.00    +0.000 C 
ENDBRANCH  23  30
ENDBRANCH   1  26
TORSDOF 4
ENDMDL
MODEL 3
REMARK VINA RESULT:      -7.3      1.790      3.117
REMARK  Name = 
REMARK  7 active torsions:
REMARK  status: ('A' for Active; 'I' for Inactive)
REMARK    1  A    between atoms: C_1  and  C_2
REMARK    2  A    between atoms: C_2  and  C_3
REMARK    3  A    between atoms: C_6  and  C_7
REMARK    4  A    between atoms: N_11  and  C_12
REMARK    5  A    between atoms: C_13  and  C_14
REMARK    6  A    between atoms: N_15  and  C_16
REMARK    7  A    between atoms: N_17  and  C_18
REMARK                            x       y       z     vdW  Elec       q    Type
REMARK                         _______ _______ _______ _____ _____    ______ ____
ROOT
ATOM      1  C   UNL     1       1.757   8.648  18.926  0.00  0.00    +0.000 C 
ATOM      2  N   UNL     1       1.550   9.305  17.817  0.00  0.00    +0.000 NA
ATOM      3  N   UNL     1       0.835  10.476  17.907  0.00  0.00    +0.000 N 
ATOM      4  C   UNL     1      -0.142  10.854  18.807  0.00  0.00    +0.000 C 
ATOM      5  N   UNL     1      -0.791  11.978  18.624  0.00  0.00    +0.000 NA
ATOM      6  S   UNL     1      -0.431   9.693  20.111  0.00  0.00    +0.000 S 
ATOM      7  C   UNL     1       1.299   9.176  20.272  0.00  0.00    +0.000 C 
ATOM      8  H   UNL     1       0.858  11.077  17.087  0.00  0.00    +0.000 HD
ENDROOT
BRANCH   5   9
ATOM      9  C   UNL     1      -1.710  12.381  19.557  0.00  0.00    +0.000 A 
ATOM     10  C   UNL     1      -3.052  12.247  19.576  0.00  0.00    +0.000 A 
ATOM     11  C   UNL     1      -3.882  11.667  18.479  0.00  0.00    +0.000 C 
ATOM     12  N   UNL     1      -3.633  12.748  20.753  0.00  0.00    +0.000 N 
ATOM     13  C   UNL     1      -4.980  13.316  20.827  0.00  0.00    +0.000 C 
ATOM     14  N   UNL     1      -2.597  13.427  21.430  0.00  0.00    +0.000 N 
ATOM     15  C   UNL     1      -1.428  13.357  20.680  0.00  0.00    +0.000 A 
ATOM     16  O   UNL     1      -0.368  13.941  20.849  0.00  0.00    +0.000 OA
BRANCH  14  17
ATOM     17  C   UNL     1      -2.808  14.235  22.550  0.00  0.00    +0.000 A 
ATOM     18  C   UNL     1      -2.923  13.661  23.818  0.00  0.00    +0.000 A 
ATOM     19  C   UNL     1      -3.166  14.463  24.931  0.00  0.00    +0.000 A 
ATOM     20  C   UNL     1      -3.345  15.835  24.771  0.00  0.00    +0.000 A 
ATOM     21  C   UNL     1      -3.260  16.411  23.503  0.00  0.00    +0.000 A 
ATOM     22  C   UNL     1      -2.967  15.617  22.393  0.00  0.00    +0.000 A 
ENDBRANCH  14  17
ENDBRANCH   5   9
BRANCH   1  26
ATOM     23  C   UNL     1       3.909   4.907  18.716  0.00  0.00    +0.000 A 
ATOM     24  C   UNL     1       3.041   5.157  19.788  0.00  0.00    +0.000 A 
ATOM     25  C   UNL     1       2.341   6.368  19.873  0.00  0.00    +0.000 A 
ATOM     26  C   UNL     1       2.489   7.341  18.879  0.00  0.00    +0.000 A 
ATOM     27  C   UNL     1       3.349   7.089  17.804  0.00  0.00    +0.000 A 
ATOM     28  C   UNL     1       4.048   5.880  17.719  0.00  0.00    +0.000 A 
BRANCH  23  30
ATOM     29  C   UNL     1       4.182   2.576  19.635  0.00  0.00    +0.000 C 
ATOM     30  C   UNL     1       4.682   3.613  18.641  0.00  0.00    +0.000 C 
ENDBRANCH  23  30
ENDBRANCH   1  26
TORSDOF 4
ENDMDL
MODEL 4
REMARK VINA RESULT:      -7.2      1.772      3.105
REMARK  Name = 
REMARK  7 active torsions:
REMARK  status: ('A' for Active; 'I' for Inactive)
REMARK    1  A    between atoms: C_1  and  C_2
REMARK    2  A    between atoms: C_2  and  C_3
REMARK    3  A    between atoms: C_6  and  C_7
REMARK    4  A    between atoms: N_11  and  C_12
REMARK    5  A    between atoms: C_13  and  C_14
REMARK    6  A    between atoms: N_15  and  C_16
REMARK    7  A    between atoms: N_17  and  C_18
REMARK                            x       y       z     vdW  Elec       q    Type
REMARK                         _______ _______ _______ _____ _____    ______ ____
ROOT
ATOM      1  C   UNL     1       1.833   8.530  18.995  0.00  0.00    +0.000 C 
ATOM      2  N   UNL     1       1.781   9.298  17.940  0.00  0.00    +0.000 NA
ATOM      3  N   UNL     1       1.134  10.504  18.076  0.00  0.00    +0.000 N 
ATOM      4  C   UNL     1       0.096  10.867  18.911  0.00  0.00    +0.000 C 
ATOM      5  N   UNL     1      -0.460  12.046  18.777  0.00  0.00    +0.000 NA
ATOM      6  S   UNL     1      -0.395   9.616  20.062  0.00  0.00    +0.000 S 
ATOM      7  C   UNL     1       1.274   8.964  20.336  0.00  0.00    +0.000 C 
ATOM      8  H   UNL     1       1.278  11.174  17.324  0.00  0.00    +0.000 HD
ENDROOT
BRANCH   5   9
ATOM      9  C   UNL     1      -1.443  12.428  19.653  0.00  0.00    +0.000 A 
ATOM     10  C   UNL     1      -2.779  12.256  19.596  0.00  0.00    +0.000 A 
ATOM     11  C   UNL     1      -3.528  11.648  18.456  0.00  0.00    +0.000 C 
ATOM     12  N   UNL     1      -3.441  12.745  20.734  0.00  0.00    +0.000 N 
ATOM     13  C   UNL     1      -4.805  13.275  20.726  0.00  0.00    +0.000 C 
ATOM     14  N   UNL     1      -2.465  13.456  21.466  0.00  0.00    +0.000 N 
ATOM     15  C   UNL     1      -1.253  13.416  20.785  0.00  0.00    +0.000 A 
ATOM     16  O   UNL     1      -0.222  14.030  21.011  0.00  0.00    +0.000 OA
BRANCH  14  17
ATOM     17  C   UNL     1      -2.763  14.263  22.567  0.00  0.00    +0.000 A 
ATOM     18  C   UNL     1      -2.879  15.645  22.412  0.00  0.00    +0.000 A 
ATOM     19  C   UNL     1      -3.144  16.455  23.516  0.00  0.00    +0.000 A 
ATOM     20  C   UNL     1      -3.243  15.887  24.783  0.00  0.00    +0.000 A 
ATOM     21  C   UNL     1      -3.099  14.509  24.949  0.00  0.00    +0.000 A 
ATOM     22  C   UNL     1      -2.883  13.691  23.839  0.00  0.00    +0.000 A 
ENDBRANCH  14  17
ENDBRANCH   5   9
BRANCH   1  26
ATOM     23  C   UNL     1       3.666   4.624  18.766  0.00  0.00    +0.000 A 
ATOM     24  C   UNL     1       3.918   5.575  17.768  0.00  0.00    +0.000 A 
ATOM     25  C   UNL     1       3.326   6.844  17.825  0.00  0.00    +0.000 A 
ATOM     26  C   UNL     1       2.484   7.184  18.890  0.00  0.00    +0.000 A 
ATOM     27  C   UNL     1       2.239   6.237  19.891  0.00  0.00    +0.000 A 
ATOM     28  C   UNL     1       2.830   4.970  19.834  0.00  0.00    +0.000 A 
BRANCH  23  30
ATOM     29  C   UNL     1       3.366   2.233  18.025  0.00  0.00    +0.000 C 
ATOM     30  C   UNL     1       4.284   3.249  18.687  0.00  0.00    +0.000 C 
ENDBRANCH  23  30
ENDBRANCH   1  26
TORSDOF 4
ENDMDL
MODEL 5
REMARK VINA RESULT:      -7.2      2.552      3.221
REMARK  Name = 
REMARK  7 active torsions:
REMARK  status: ('A' for Active; 'I' for Inactive)
REMARK    1  A    between atoms: C_1  and  C_2
REMARK    2  A    between atoms: C_2  and  C_3
REMARK    3  A    between atoms: C_6  and  C_7
REMARK    4  A    between atoms: N_11  and  C_12
REMARK    5  A    between atoms: C_13  and  C_14
REMARK    6  A    between atoms: N_15  and  C_16
REMARK    7  A    between atoms: N_17  and  C_18
REMARK                            x       y       z     vdW  Elec       q    Type
REMARK                         _______ _______ _______ _____ _____    ______ ____
ROOT
ATOM      1  C   UNL     1       0.968   8.681  20.715  0.00  0.00    +0.000 C 
ATOM      2  N   UNL     1       1.345   8.881  21.949  0.00  0.00    +0.000 NA
ATOM      3  N   UNL     1       0.563   9.713  22.715  0.00  0.00    +0.000 N 
ATOM      4  C   UNL     1      -0.234  10.778  22.343  0.00  0.00    +0.000 C 
ATOM      5  N   UNL     1      -0.794  11.521  23.265  0.00  0.00    +0.000 NA
ATOM      6  S   UNL     1      -0.351  11.033  20.596  0.00  0.00    +0.000 S 
ATOM      7  C   UNL     1      -0.312   9.274  20.158  0.00  0.00    +0.000 C 
ATOM      8  H   UNL     1       0.743   9.697  23.716  0.00  0.00    +0.000 HD
ENDROOT
BRANCH   5   9
ATOM      9  C   UNL     1      -1.638  12.533  22.890  0.00  0.00    +0.000 A 
ATOM     10  C   UNL     1      -1.367  13.775  22.440  0.00  0.00    +0.000 A 
ATOM     11  C   UNL     1      -0.006  14.379  22.324  0.00  0.00    +0.000 C 
ATOM     12  N   UNL     1      -2.523  14.497  22.102  0.00  0.00    +0.000 N 
ATOM     13  C   UNL     1      -2.641  15.953  22.199  0.00  0.00    +0.000 C 
ATOM     14  N   UNL     1      -3.607  13.719  22.566  0.00  0.00    +0.000 N 
ATOM     15  C   UNL     1      -3.123  12.570  23.182  0.00  0.00    +0.000 A 
ATOM     16  O   UNL     1      -3.728  11.734  23.835  0.00  0.00    +0.000 OA
BRANCH  14  17
ATOM     17  C   UNL     1      -4.926  14.178  22.601  0.00  0.00    +0.000 A 
ATOM     18  C   UNL     1      -5.452  14.711  23.779  0.00  0.00    +0.000 A 
ATOM     19  C   UNL     1      -6.778  15.139  23.824  0.00  0.00    +0.000 A 
ATOM     20  C   UNL     1      -7.593  14.987  22.706  0.00  0.00    +0.000 A 
ATOM     21  C   UNL     1      -7.082  14.428  21.534  0.00  0.00    +0.000 A 
ATOM     22  C   UNL     1      -5.741  14.045  21.471  0.00  0.00    +0.000 A 
ENDBRANCH  14  17
ENDBRANCH   5   9
BRANCH   1  26
ATOM     23  C   UNL     1       3.400   6.272  18.079  0.00  0.00    +0.000 A 
ATOM     24  C   UNL     1       2.993   5.761  19.319  0.00  0.00    +0.000 A 
ATOM     25  C   UNL     1       2.209   6.532  20.187  0.00  0.00    +0.000 A 
ATOM     26  C   UNL     1       1.810   7.823  19.821  0.00  0.00    +0.000 A 
ATOM     27  C   UNL     1       2.208   8.330  18.579  0.00  0.00    +0.000 A 
ATOM     28  C   UNL     1       2.991   7.560  17.713  0.00  0.00    +0.000 A 
BRANCH  23  30
ATOM     29  C   UNL     1       3.870   3.980  17.140  0.00  0.00    +0.000 C 
ATOM     30  C   UNL     1       4.267   5.448  17.157  0.00  0.00    +0.000 C 
ENDBRANCH  23  30
ENDBRANCH   1  26
TORSDOF 4
ENDMDL
MODEL 6
REMARK VINA RESULT:      -7.2      1.575      2.869
REMARK  Name = 
REMARK  7 active torsions:
REMARK  status: ('A' for Active; 'I' for Inactive)
REMARK    1  A    between atoms: C_1  and  C_2
REMARK    2  A    between atoms: C_2  and  C_3
REMARK    3  A    between atoms: C_6  and  C_7
REMARK    4  A    between atoms: N_11  and  C_12
REMARK    5  A    between atoms: C_13  and  C_14
REMARK    6  A    between atoms: N_15  and  C_16
REMARK    7  A    between atoms: N_17  and  C_18
REMARK                            x       y       z     vdW  Elec       q    Type
REMARK                         _______ _______ _______ _____ _____    ______ ____
ROOT
ATOM      1  C   UNL     1       2.123   8.543  18.403  0.00  0.00    +0.000 C 
ATOM      2  N   UNL     1       2.211   9.497  17.515  0.00  0.00    +0.000 NA
ATOM      3  N   UNL     1       1.616  10.697  17.826  0.00  0.00    +0.000 N 
ATOM      4  C   UNL     1       0.523  10.967  18.625  0.00  0.00    +0.000 C 
ATOM      5  N   UNL     1       0.043  12.186  18.674  0.00  0.00    +0.000 NA
ATOM      6  S   UNL     1      -0.139   9.559  19.468  0.00  0.00    +0.000 S 
ATOM      7  C   UNL     1       1.461   8.755  19.751  0.00  0.00    +0.000 C 
ATOM      8  H   UNL     1       1.865  11.484  17.232  0.00  0.00    +0.000 HD
ENDROOT
BRANCH   5   9
ATOM      9  C   UNL     1      -0.999  12.463  19.521  0.00  0.00    +0.000 A 
ATOM     10  C   UNL     1      -2.323  12.256  19.374  0.00  0.00    +0.000 A 
ATOM     11  C   UNL     1      -2.987  11.722  18.148  0.00  0.00    +0.000 C 
ATOM     12  N   UNL     1      -3.062  12.628  20.509  0.00  0.00    +0.000 N 
ATOM     13  C   UNL     1      -4.442  13.115  20.468  0.00  0.00    +0.000 C 
ATOM     14  N   UNL     1      -2.152  13.304  21.351  0.00  0.00    +0.000 N 
ATOM     15  C   UNL     1      -0.905  13.358  20.738  0.00  0.00    +0.000 A 
ATOM     16  O   UNL     1       0.090  13.982  21.072  0.00  0.00    +0.000 OA
BRANCH  14  17
ATOM     17  C   UNL     1      -2.537  14.007  22.495  0.00  0.00    +0.000 A 
ATOM     18  C   UNL     1      -2.937  13.317  23.641  0.00  0.00    +0.000 A 
ATOM     19  C   UNL     1      -3.352  14.016  24.773  0.00  0.00    +0.000 A 
ATOM     20  C   UNL     1      -3.417  15.407  24.742  0.00  0.00    +0.000 A 
ATOM     21  C   UNL     1      -3.048  16.103  23.590  0.00  0.00    +0.000 A 
ATOM     22  C   UNL     1      -2.584  15.406  22.473  0.00  0.00    +0.000 A 
ENDBRANCH  14  17
ENDBRANCH   5   9
BRANCH   1  26
ATOM     23  C   UNL     1       3.745   4.630  17.548  0.00  0.00    +0.000 A 
ATOM     24  C   UNL     1       4.483   5.779  17.231  0.00  0.00    +0.000 A 
ATOM     25  C   UNL     1       3.968   7.055  17.497  0.00  0.00    +0.000 A 
ATOM     26  C   UNL     1       2.711   7.199  18.096  0.00  0.00    +0.000 A 
ATOM     27  C   UNL     1       1.978   6.052  18.421  0.00  0.00    +0.000 A 
ATOM     28  C   UNL     1       2.492   4.779  18.155  0.00  0.00    +0.000 A 
BRANCH  23  30
ATOM     29  C   UNL     1       3.550   2.153  17.972  0.00  0.00    +0.000 C 
ATOM     30  C   UNL     1       4.291   3.258  17.236  0.00  0.00    +0.000 C 
ENDBRANCH  23  30
ENDBRANCH   1  26
TORSDOF 4
ENDMDL
MODEL 7
REMARK VINA RESULT:      -7.2      1.619      3.157
REMARK  Name = 
REMARK  7 active torsions:
REMARK  status: ('A' for Active; 'I' for Inactive)
REMARK    1  A    between atoms: C_1  and  C_2
REMARK    2  A    between atoms: C_2  and  C_3
REMARK    3  A    between atoms: C_6  and  C_7
REMARK    4  A    between atoms: N_11  and  C_12
REMARK    5  A    between atoms: C_13  and  C_14
REMARK    6  A    between atoms: N_15  and  C_16
REMARK    7  A    between atoms: N_17  and  C_18
REMARK                            x       y       z     vdW  Elec       q    Type
REMARK                         _______ _______ _______ _____ _____    ______ ____
ROOT
ATOM      1  C   UNL     1       2.105   8.715  18.371  0.00  0.00    +0.000 C 
ATOM      2  N   UNL     1       2.177   9.695  17.510  0.00  0.00    +0.000 NA
ATOM      3  N   UNL     1       1.552  10.872  17.847  0.00  0.00    +0.000 N 
ATOM      4  C   UNL     1       0.446  11.095  18.645  0.00  0.00    +0.000 C 
ATOM      5  N   UNL     1      -0.063  12.300  18.723  0.00  0.00    +0.000 NA
ATOM      6  S   UNL     1      -0.188   9.649  19.444  0.00  0.00    +0.000 S 
ATOM      7  C   UNL     1       1.428   8.876  19.718  0.00  0.00    +0.000 C 
ATOM      8  H   UNL     1       1.786  11.681  17.277  0.00  0.00    +0.000 HD
ENDROOT
BRANCH   5   9
ATOM      9  C   UNL     1      -1.117  12.529  19.569  0.00  0.00    +0.000 A 
ATOM     10  C   UNL     1      -2.426  12.237  19.433  0.00  0.00    +0.000 A 
ATOM     11  C   UNL     1      -3.060  11.636  18.222  0.00  0.00    +0.000 C 
ATOM     12  N   UNL     1      -3.183  12.586  20.563  0.00  0.00    +0.000 N 
ATOM     13  C   UNL     1      -4.590  12.985  20.518  0.00  0.00    +0.000 C 
ATOM     14  N   UNL     1      -2.314  13.336  21.386  0.00  0.00    +0.000 N 
ATOM     15  C   UNL     1      -1.075  13.455  20.766  0.00  0.00    +0.000 A 
ATOM     16  O   UNL     1      -0.120  14.147  21.083  0.00  0.00    +0.000 OA
BRANCH  14  17
ATOM     17  C   UNL     1      -2.739  14.038  22.517  0.00  0.00    +0.000 A 
ATOM     18  C   UNL     1      -2.865  15.428  22.474  0.00  0.00    +0.000 A 
ATOM     19  C   UNL     1      -3.257  16.132  23.611  0.00  0.00    +0.000 A 
ATOM     20  C   UNL     1      -3.474  15.452  24.806  0.00  0.00    +0.000 A 
ATOM     21  C   UNL     1      -3.321  14.066  24.864  0.00  0.00    +0.000 A 
ATOM     22  C   UNL     1      -2.977  13.353  23.714  0.00  0.00    +0.000 A 
ENDBRANCH  14  17
ENDBRANCH   5   9
BRANCH   1  26
ATOM     23  C   UNL     1       3.970   4.950  17.365  0.00  0.00    +0.000 A 
ATOM     24  C   UNL     1       2.722   4.965  18.002  0.00  0.00    +0.000 A 
ATOM     25  C   UNL     1       2.107   6.178  18.340  0.00  0.00    +0.000 A 
ATOM     26  C   UNL     1       2.727   7.395  18.033  0.00  0.00    +0.000 A 
ATOM     27  C   UNL     1       3.970   7.380  17.389  0.00  0.00    +0.000 A 
ATOM     28  C   UNL     1       4.583   6.169  17.052  0.00  0.00    +0.000 A 
BRANCH  23  30
ATOM     29  C   UNL     1       5.619   3.769  15.868  0.00  0.00    +0.000 C 
ATOM     30  C   UNL     1       4.642   3.641  17.027  0.00  0.00    +0.000 C 
ENDBRANCH  23  30
ENDBRANCH   1  26
TORSDOF 4
ENDMDL
MODEL 8
REMARK VINA RESULT:      -7.2      0.148      1.277
REMARK  Name = 
REMARK  7 active torsions:
REMARK  status: ('A' for Active; 'I' for Inactive)
REMARK    1  A    between atoms: C_1  and  C_2
REMARK    2  A    between atoms: C_2  and  C_3
REMARK    3  A    between atoms: C_6  and  C_7
REMARK    4  A    between atoms: N_11  and  C_12
REMARK    5  A    between atoms: C_13  and  C_14
REMARK    6  A    between atoms: N_15  and  C_16
REMARK    7  A    between atoms: N_17  and  C_18
REMARK                            x       y       z     vdW  Elec       q    Type
REMARK                         _______ _______ _______ _____ _____    ______ ____
ROOT
ATOM      1  C   UNL     1       1.946   8.719  18.510  0.00  0.00    +0.000 C 
ATOM      2  N   UNL     1       2.084   9.696  17.654  0.00  0.00    +0.000 NA
ATOM      3  N   UNL     1       1.469  10.887  17.960  0.00  0.00    +0.000 N 
ATOM      4  C   UNL     1       0.330  11.136  18.700  0.00  0.00    +0.000 C 
ATOM      5  N   UNL     1      -0.156  12.352  18.753  0.00  0.00    +0.000 NA
ATOM      6  S   UNL     1      -0.377   9.705  19.466  0.00  0.00    +0.000 S 
ATOM      7  C   UNL     1       1.206   8.896  19.821  0.00  0.00    +0.000 C 
ATOM      8  H   UNL     1       1.750  11.690  17.402  0.00  0.00    +0.000 HD
ENDROOT
BRANCH   5   9
ATOM      9  C   UNL     1      -1.245  12.606  19.544  0.00  0.00    +0.000 A 
ATOM     10  C   UNL     1      -1.329  12.825  20.872  0.00  0.00    +0.000 A 
ATOM     11  C   UNL     1      -0.192  12.753  21.837  0.00  0.00    +0.000 C 
ATOM     12  N   UNL     1      -2.637  13.110  21.297  0.00  0.00    +0.000 N 
ATOM     13  C   UNL     1      -3.161  12.780  22.623  0.00  0.00    +0.000 C 
ATOM     14  N   UNL     1      -3.464  12.852  20.181  0.00  0.00    +0.000 N 
ATOM     15  C   UNL     1      -2.685  12.405  19.119  0.00  0.00    +0.000 A 
ATOM     16  O   UNL     1      -3.039  11.940  18.047  0.00  0.00    +0.000 OA
BRANCH  14  17
ATOM     17  C   UNL     1      -4.859  12.824  20.246  0.00  0.00    +0.000 A 
ATOM     18  C   UNL     1      -5.578  14.012  20.389  0.00  0.00    +0.000 A 
ATOM     19  C   UNL     1      -6.969  13.983  20.487  0.00  0.00    +0.000 A 
ATOM     20  C   UNL     1      -7.637  12.761  20.492  0.00  0.00    +0.000 A 
ATOM     21  C   UNL     1      -6.922  11.568  20.379  0.00  0.00    +0.000 A 
ATOM     22  C   UNL     1      -5.534  11.598  20.231  0.00  0.00    +0.000 A 
ENDBRANCH  14  17
ENDBRANCH   5   9
BRANCH   1  26
ATOM     23  C   UNL     1       3.769   4.912  17.587  0.00  0.00    +0.000 A 
ATOM     24  C   UNL     1       2.571   4.958  18.313  0.00  0.00    +0.000 A 
ATOM     25  C   UNL     1       1.970   6.185  18.625  0.00  0.00    +0.000 A 
ATOM     26  C   UNL     1       2.555   7.385  18.203  0.00  0.00    +0.000 A 
ATOM     27  C   UNL     1       3.747   7.339  17.471  0.00  0.00    +0.000 A 
ATOM     28  C   UNL     1       4.345   6.114  17.160  0.00  0.00    +0.000 A 
BRANCH  23  30
ATOM     29  C   UNL     1       3.626   2.404  17.790  0.00  0.00    +0.000 C 
ATOM     30  C   UNL     1       4.427   3.590  17.276  0.00  0.00    +0.000 C 
ENDBRANCH  23  30
ENDBRANCH   1  26
TORSDOF 4
ENDMDL
MODEL 9
REMARK VINA RESULT:      -7.2      0.410      1.096
REMARK  Name = 
REMARK  7 active torsions:
REMARK  status: ('A' for Active; 'I' for Inactive)
REMARK    1  A    between atoms: C_1  and  C_2
REMARK    2  A    between atoms: C_2  and  C_3
REMARK    3  A    between atoms: C_6  and  C_7
REMARK    4  A    between atoms: N_11  and  C_12
REMARK    5  A    between atoms: C_13  and  C_14
REMARK    6  A    between atoms: N_15  and  C_16
REMARK    7  A    between atoms: N_17  and  C_18
REMARK                            x       y       z     vdW  Elec       q    Type
REMARK                         _______ _______ _______ _____ _____    ______ ____
ROOT
ATOM      1  C   UNL     1       2.069   8.856  18.429  0.00  0.00    +0.000 C 
ATOM      2  N   UNL     1       2.214   9.894  17.649  0.00  0.00    +0.000 NA
ATOM      3  N   UNL     1       1.556  11.045  18.011  0.00  0.00    +0.000 N 
ATOM      4  C   UNL     1       0.383  11.215  18.719  0.00  0.00    +0.000 C 
ATOM      5  N   UNL     1      -0.136  12.412  18.836  0.00  0.00    +0.000 NA
ATOM      6  S   UNL     1      -0.315   9.718  19.356  0.00  0.00    +0.000 S 
ATOM      7  C   UNL     1       1.273   8.924  19.719  0.00  0.00    +0.000 C 
ATOM      8  H   UNL     1       1.837  11.892  17.522  0.00  0.00    +0.000 HD
ENDROOT
BRANCH   5   9
ATOM      9  C   UNL     1      -1.262  12.584  19.598  0.00  0.00    +0.000 A 
ATOM     10  C   UNL     1      -1.402  12.725  20.931  0.00  0.00    +0.000 A 
ATOM     11  C   UNL     1      -0.298  12.636  21.934  0.00  0.00    +0.000 C 
ATOM     12  N   UNL     1      -2.734  12.942  21.321  0.00  0.00    +0.000 N 
ATOM     13  C   UNL     1      -3.294  12.520  22.606  0.00  0.00    +0.000 C 
ATOM     14  N   UNL     1      -3.510  12.720  20.162  0.00  0.00    +0.000 N 
ATOM     15  C   UNL     1      -2.677  12.361  19.108  0.00  0.00    +0.000 A 
ATOM     16  O   UNL     1      -2.976  11.946  17.998  0.00  0.00    +0.000 OA
BRANCH  14  17
ATOM     17  C   UNL     1      -4.905  12.642  20.172  0.00  0.00    +0.000 A 
ATOM     18  C   UNL     1      -5.670  13.791  20.383  0.00  0.00    +0.000 A 
ATOM     19  C   UNL     1      -7.061  13.709  20.426  0.00  0.00    +0.000 A 
ATOM     20  C   UNL     1      -7.685  12.470  20.307  0.00  0.00    +0.000 A 
ATOM     21  C   UNL     1      -6.926  11.314  20.125  0.00  0.00    +0.000 A 
ATOM     22  C   UNL     1      -5.535  11.400  20.032  0.00  0.00    +0.000 A 
ENDBRANCH  14  17
ENDBRANCH   5   9
BRANCH   1  26
ATOM     23  C   UNL     1       3.890   5.079  17.390  0.00  0.00    +0.000 A 
ATOM     24  C   UNL     1       4.510   6.280  17.022  0.00  0.00    +0.000 A 
ATOM     25  C   UNL     1       3.929   7.513  17.346  0.00  0.00    +0.000 A 
ATOM     26  C   UNL     1       2.724   7.561  18.056  0.00  0.00    +0.000 A 
ATOM     27  C   UNL     1       2.108   6.362  18.432  0.00  0.00    +0.000 A 
ATOM     28  C   UNL     1       2.689   5.131  18.107  0.00  0.00    +0.000 A 
BRANCH  23  30
ATOM     29  C   UNL     1       5.627   3.895  15.999  0.00  0.00    +0.000 C 
ATOM     30  C   UNL     1       4.505   3.752  17.015  0.00  0.00    +0.000 C 
ENDBRANCH  23  30
ENDBRANCH   1  26
TORSDOF 4
ENDMDL
