MODEL 1
REMARK VINA RESULT:      -8.0      0.000      0.000
REMARK  Name = 
REMARK  7 active torsions:
REMARK  status: ('A' for Active; 'I' for Inactive)
REMARK    1  A    between atoms: C_1  and  C_2
REMARK    2  A    between atoms: C_2  and  O_3
REMARK    3  A    between atoms: O_3  and  C_4
REMARK    4  A    between atoms: C_4  and  C_6
REMARK    5  A    between atoms: C_12  and  C_14
REMARK    6  A    between atoms: C_14  and  C_16
REMARK    7  A    between atoms: C_16  and  O_17
REMARK                            x       y       z     vdW  Elec       q    Type
REMARK                         _______ _______ _______ _____ _____    ______ ____
ROOT
ATOM      1  C   UNL     1       6.864   4.618  17.168  0.00  0.00    +0.000 C 
ATOM      2  C   UNL     1       7.432   5.193  15.854  0.00  0.00    +0.000 C 
ATOM      3  C   UNL     1       6.886   4.492  14.621  0.00  0.00    +0.000 C 
ATOM      4  C   UNL     1       5.365   4.475  14.647  0.00  0.00    +0.000 C 
ATOM      5  C   UNL     1       4.838   3.892  15.952  0.00  0.00    +0.000 C 
ATOM      6  N   UNL     1       5.392   4.582  17.122  0.00  0.00    +0.000 N 
ATOM      7  C   UNL     1       4.726   4.570  18.356  0.00  0.00    +0.000 C 
ATOM      8  O   UNL     1       5.221   4.919  19.424  0.00  0.00    +0.000 OA
ENDROOT
BRANCH   1   9
ATOM      9  C   UNL     1       7.560   5.437  18.267  0.00  0.00    +0.000 C 
ATOM     10  O   UNL     1       8.156   4.978  19.233  0.00  0.00    +0.000 OA
BRANCH   9  11
ATOM     11  O   UNL     1       7.288   6.760  18.053  0.00  0.00    +0.000 OA
BRANCH  11  13
ATOM     12  C   UNL     1       8.034   8.997  17.763  0.00  0.00    +0.000 C 
ATOM     13  C   UNL     1       8.306   7.677  18.463  0.00  0.00    +0.000 C 
ENDBRANCH  11  13
ENDBRANCH   9  11
ENDBRANCH   1   9
BRANCH   7  14
ATOM     14  C   UNL     1       3.300   4.071  18.428  0.00  0.00    +0.000 C 
ATOM     15  O   UNL     1       2.381   4.816  18.113  0.00  0.00    +0.000 OA
BRANCH  14  16
ATOM     16  C   UNL     1       3.141   2.626  18.969  0.00  0.00    +0.000 C 
ATOM     17  C   UNL     1       3.546   2.555  20.448  0.00  0.00    +0.000 C 
ATOM     18  C   UNL     1       2.575   3.279  21.378  0.00  0.00    +0.000 C 
ATOM     19  C   UNL     1       1.127   2.849  21.160  0.00  0.00    +0.000 C 
ATOM     20  C   UNL     1       0.696   2.862  19.695  0.00  0.00    +0.000 C 
ATOM     21  C   UNL     1       1.692   2.151  18.787  0.00  0.00    +0.000 C 
BRANCH  16  22
ATOM     22  O   UNL     1       3.938   1.665  18.264  0.00  0.00    +0.000 OA
ATOM     23  H   UNL     1       3.486   0.798  18.326  0.00  0.00    +0.000 HD
ENDBRANCH  16  22
ENDBRANCH  14  16
ENDBRANCH   7  14
TORSDOF 6
ENDMDL
MODEL 2
REMARK VINA RESULT:      -7.9      1.051      1.932
REMARK  Name = 
REMARK  7 active torsions:
REMARK  status: ('A' for Active; 'I' for Inactive)
REMARK    1  A    between atoms: C_1  and  C_2
REMARK    2  A    between atoms: C_2  and  O_3
REMARK    3  A    between atoms: O_3  and  C_4
REMARK    4  A    between atoms: C_4  and  C_6
REMARK    5  A    between atoms: C_12  and  C_14
REMARK    6  A    between atoms: C_14  and  C_16
REMARK    7  A    between atoms: C_16  and  O_17
REMARK                            x       y       z     vdW  Elec       q    Type
REMARK                         _______ _______ _______ _____ _____    ______ ____
ROOT
ATOM      1  C   UNL     1       7.037   4.690  17.418  0.00  0.00    +0.000 C 
ATOM      2  C   UNL     1       7.162   5.286  16.001  0.00  0.00    +0.000 C 
ATOM      3  C   UNL     1       6.438   4.461  14.950  0.00  0.00    +0.000 C 
ATOM      4  C   UNL     1       4.993   4.223  15.362  0.00  0.00    +0.000 C 
ATOM      5  C   UNL     1       4.905   3.625  16.760  0.00  0.00    +0.000 C 
ATOM      6  N   UNL     1       5.623   4.438  17.748  0.00  0.00    +0.000 N 
ATOM      7  C   UNL     1       5.297   4.380  19.111  0.00  0.00    +0.000 C 
ATOM      8  O   UNL     1       5.985   4.843  20.017  0.00  0.00    +0.000 OA
ENDROOT
BRANCH   1   9
ATOM      9  C   UNL     1       7.853   5.647  18.302  0.00  0.00    +0.000 C 
ATOM     10  O   UNL     1       8.519   5.328  19.279  0.00  0.00    +0.000 OA
BRANCH   9  11
ATOM     11  O   UNL     1       7.603   6.927  17.891  0.00  0.00    +0.000 OA
BRANCH  11  13
ATOM     12  C   UNL     1       8.108   9.248  17.804  0.00  0.00    +0.000 C 
ATOM     13  C   UNL     1       8.355   7.949  18.551  0.00  0.00    +0.000 C 
ENDBRANCH  11  13
ENDBRANCH   9  11
ENDBRANCH   1   9
BRANCH   7  14
ATOM     14  C   UNL     1       4.028   3.682  19.545  0.00  0.00    +0.000 C 
ATOM     15  O   UNL     1       4.018   2.463  19.665  0.00  0.00    +0.000 OA
BRANCH  14  16
ATOM     16  C   UNL     1       2.806   4.616  19.747  0.00  0.00    +0.000 C 
ATOM     17  C   UNL     1       2.007   4.750  18.444  0.00  0.00    +0.000 C 
ATOM     18  C   UNL     1       1.278   3.469  18.045  0.00  0.00    +0.000 C 
ATOM     19  C   UNL     1       0.431   2.899  19.179  0.00  0.00    +0.000 C 
ATOM     20  C   UNL     1       1.177   2.791  20.508  0.00  0.00    +0.000 C 
ATOM     21  C   UNL     1       1.911   4.076  20.872  0.00  0.00    +0.000 C 
BRANCH  16  22
ATOM     22  O   UNL     1       3.167   5.940  20.163  0.00  0.00    +0.000 OA
ATOM     23  H   UNL     1       3.251   6.494  19.358  0.00  0.00    +0.000 HD
ENDBRANCH  16  22
ENDBRANCH  14  16
ENDBRANCH   7  14
TORSDOF 6
ENDMDL
MODEL 3
REMARK VINA RESULT:      -7.8      1.858      3.546
REMARK  Name = 
REMARK  7 active torsions:
REMARK  status: ('A' for Active; 'I' for Inactive)
REMARK    1  A    between atoms: C_1  and  C_2
REMARK    2  A    between atoms: C_2  and  O_3
REMARK    3  A    between atoms: O_3  and  C_4
REMARK    4  A    between atoms: C_4  and  C_6
REMARK    5  A    between atoms: C_12  and  C_14
REMARK    6  A    between atoms: C_14  and  C_16
REMARK    7  A    between atoms: C_16  and  O_17
REMARK                            x       y       z     vdW  Elec       q    Type
REMARK                         _______ _______ _______ _____ _____    ______ ____
ROOT
ATOM      1  C   UNL     1       5.963   5.988  17.019  0.00  0.00    +0.000 C 
ATOM      2  C   UNL     1       7.444   6.330  17.281  0.00  0.00    +0.000 C 
ATOM      3  C   UNL     1       7.749   6.529  18.756  0.00  0.00    +0.000 C 
ATOM      4  C   UNL     1       7.269   5.334  19.566  0.00  0.00    +0.000 C 
ATOM      5  C   UNL     1       5.803   5.030  19.292  0.00  0.00    +0.000 C 
ATOM      6  N   UNL     1       5.539   4.855  17.859  0.00  0.00    +0.000 N 
ATOM      7  C   UNL     1       4.434   4.119  17.409  0.00  0.00    +0.000 C 
ATOM      8  O   UNL     1       4.017   4.115  16.253  0.00  0.00    +0.000 OA
ENDROOT
BRANCH   1   9
ATOM      9  C   UNL     1       5.872   5.862  15.490  0.00  0.00    +0.000 C 
ATOM     10  O   UNL     1       5.161   6.537  14.756  0.00  0.00    +0.000 OA
BRANCH   9  11
ATOM     11  O   UNL     1       6.619   4.783  15.104  0.00  0.00    +0.000 OA
BRANCH  11  13
ATOM     12  C   UNL     1       6.179   3.648  13.063  0.00  0.00    +0.000 C 
ATOM     13  C   UNL     1       6.992   4.748  13.723  0.00  0.00    +0.000 C 
ENDBRANCH  11  13
ENDBRANCH   9  11
ENDBRANCH   1   9
BRANCH   7  14
ATOM     14  C   UNL     1       3.651   3.273  18.389  0.00  0.00    +0.000 C 
ATOM     15  O   UNL     1       4.204   2.343  18.962  0.00  0.00    +0.000 OA
BRANCH  14  16
ATOM     16  C   UNL     1       2.154   3.654  18.528  0.00  0.00    +0.000 C 
ATOM     17  C   UNL     1       1.376   2.539  19.241  0.00  0.00    +0.000 C 
ATOM     18  C   UNL     1       1.737   2.397  20.718  0.00  0.00    +0.000 C 
ATOM     19  C   UNL     1       1.655   3.722  21.470  0.00  0.00    +0.000 C 
ATOM     20  C   UNL     1       2.379   4.871  20.771  0.00  0.00    +0.000 C 
ATOM     21  C   UNL     1       2.017   4.978  19.295  0.00  0.00    +0.000 C 
BRANCH  16  22
ATOM     22  O   UNL     1       1.508   3.885  17.269  0.00  0.00    +0.000 OA
ATOM     23  H   UNL     1       2.129   3.618  16.560  0.00  0.00    +0.000 HD
ENDBRANCH  16  22
ENDBRANCH  14  16
ENDBRANCH   7  14
TORSDOF 6
ENDMDL
MODEL 4
REMARK VINA RESULT:      -7.8      1.205      1.777
REMARK  Name = 
REMARK  7 active torsions:
REMARK  status: ('A' for Active; 'I' for Inactive)
REMARK    1  A    between atoms: C_1  and  C_2
REMARK    2  A    between atoms: C_2  and  O_3
REMARK    3  A    between atoms: O_3  and  C_4
REMARK    4  A    between atoms: C_4  and  C_6
REMARK    5  A    between atoms: C_12  and  C_14
REMARK    6  A    between atoms: C_14  and  C_16
REMARK    7  A    between atoms: C_16  and  O_17
REMARK                            x       y       z     vdW  Elec       q    Type
REMARK                         _______ _______ _______ _____ _____    ______ ____
ROOT
ATOM      1  C   UNL     1       6.631   4.666  17.539  0.00  0.00    +0.000 C 
ATOM      2  C   UNL     1       7.280   4.819  16.149  0.00  0.00    +0.000 C 
ATOM      3  C   UNL     1       6.582   3.996  15.080  0.00  0.00    +0.000 C 
ATOM      4  C   UNL     1       5.090   4.293  15.067  0.00  0.00    +0.000 C 
ATOM      5  C   UNL     1       4.478   4.123  16.452  0.00  0.00    +0.000 C 
ATOM      6  N   UNL     1       5.181   4.921  17.462  0.00  0.00    +0.000 N 
ATOM      7  C   UNL     1       4.548   5.308  18.652  0.00  0.00    +0.000 C 
ATOM      8  O   UNL     1       5.122   5.771  19.634  0.00  0.00    +0.000 OA
ENDROOT
BRANCH   1   9
ATOM      9  C   UNL     1       7.497   5.543  18.457  0.00  0.00    +0.000 C 
ATOM     10  O   UNL     1       7.967   5.205  19.536  0.00  0.00    +0.000 OA
BRANCH   9  11
ATOM     11  O   UNL     1       7.543   6.803  17.927  0.00  0.00    +0.000 OA
BRANCH  11  13
ATOM     12  C   UNL     1       8.190   9.089  17.950  0.00  0.00    +0.000 C 
ATOM     13  C   UNL     1       8.360   7.743  18.632  0.00  0.00    +0.000 C 
ENDBRANCH  11  13
ENDBRANCH   9  11
ENDBRANCH   1   9
BRANCH   7  14
ATOM     14  C   UNL     1       3.051   5.136  18.790  0.00  0.00    +0.000 C 
ATOM     15  O   UNL     1       2.302   5.689  17.996  0.00  0.00    +0.000 OA
BRANCH  14  16
ATOM     16  C   UNL     1       2.603   4.286  20.008  0.00  0.00    +0.000 C 
ATOM     17  C   UNL     1       1.116   3.921  19.894  0.00  0.00    +0.000 C 
ATOM     18  C   UNL     1       0.819   2.929  18.773  0.00  0.00    +0.000 C 
ATOM     19  C   UNL     1       1.708   1.690  18.837  0.00  0.00    +0.000 C 
ATOM     20  C   UNL     1       3.193   2.008  18.996  0.00  0.00    +0.000 C 
ATOM     21  C   UNL     1       3.460   3.015  20.107  0.00  0.00    +0.000 C 
BRANCH  16  22
ATOM     22  O   UNL     1       2.782   4.954  21.264  0.00  0.00    +0.000 OA
ATOM     23  H   UNL     1       2.166   5.716  21.288  0.00  0.00    +0.000 HD
ENDBRANCH  16  22
ENDBRANCH  14  16
ENDBRANCH   7  14
TORSDOF 6
ENDMDL
MODEL 5
REMARK VINA RESULT:      -7.5      0.969      1.702
REMARK  Name = 
REMARK  7 active torsions:
REMARK  status: ('A' for Active; 'I' for Inactive)
REMARK    1  A    between atoms: C_1  and  C_2
REMARK    2  A    between atoms: C_2  and  O_3
REMARK    3  A    between atoms: O_3  and  C_4
REMARK    4  A    between atoms: C_4  and  C_6
REMARK    5  A    between atoms: C_12  and  C_14
REMARK    6  A    between atoms: C_14  and  C_16
REMARK    7  A    between atoms: C_16  and  O_17
REMARK                            x       y       z     vdW  Elec       q    Type
REMARK                         _______ _______ _______ _____ _____    ______ ____
ROOT
ATOM      1  C   UNL     1       7.003   4.611  17.192  0.00  0.00    +0.000 C 
ATOM      2  C   UNL     1       7.309   5.423  15.918  0.00  0.00    +0.000 C 
ATOM      3  C   UNL     1       6.868   4.714  14.648  0.00  0.00    +0.000 C 
ATOM      4  C   UNL     1       5.406   4.304  14.747  0.00  0.00    +0.000 C 
ATOM      5  C   UNL     1       5.140   3.496  16.010  0.00  0.00    +0.000 C 
ATOM      6  N   UNL     1       5.588   4.202  17.216  0.00  0.00    +0.000 N 
ATOM      7  C   UNL     1       5.039   3.913  18.474  0.00  0.00    +0.000 C 
ATOM      8  O   UNL     1       5.508   4.284  19.546  0.00  0.00    +0.000 OA
ENDROOT
BRANCH   1   9
ATOM      9  C   UNL     1       7.550   5.482  18.334  0.00  0.00    +0.000 C 
ATOM     10  O   UNL     1       8.039   5.071  19.379  0.00  0.00    +0.000 OA
BRANCH   9  11
ATOM     11  O   UNL     1       7.279   6.790  18.041  0.00  0.00    +0.000 OA
BRANCH  11  13
ATOM     12  C   UNL     1       7.977   9.045  17.761  0.00  0.00    +0.000 C 
ATOM     13  C   UNL     1       8.249   7.741  18.490  0.00  0.00    +0.000 C 
ENDBRANCH  11  13
ENDBRANCH   9  11
ENDBRANCH   1   9
BRANCH   7  14
ATOM     14  C   UNL     1       3.793   3.060  18.565  0.00  0.00    +0.000 C 
ATOM     15  O   UNL     1       3.887   1.884  18.894  0.00  0.00    +0.000 OA
BRANCH  14  16
ATOM     16  C   UNL     1       2.479   3.779  18.163  0.00  0.00    +0.000 C 
ATOM     17  C   UNL     1       1.282   3.178  18.913  0.00  0.00    +0.000 C 
ATOM     18  C   UNL     1       1.288   3.484  20.409  0.00  0.00    +0.000 C 
ATOM     19  C   UNL     1       1.457   4.973  20.701  0.00  0.00    +0.000 C 
ATOM     20  C   UNL     1       2.610   5.621  19.939  0.00  0.00    +0.000 C 
ATOM     21  C   UNL     1       2.593   5.283  18.453  0.00  0.00    +0.000 C 
BRANCH  16  22
ATOM     22  O   UNL     1       2.190   3.692  16.762  0.00  0.00    +0.000 OA
ATOM     23  H   UNL     1       2.639   2.893  16.412  0.00  0.00    +0.000 HD
ENDBRANCH  16  22
ENDBRANCH  14  16
ENDBRANCH   7  14
TORSDOF 6
ENDMDL
MODEL 6
REMARK VINA RESULT:      -7.2      1.821      3.677
REMARK  Name = 
REMARK  7 active torsions:
REMARK  status: ('A' for Active; 'I' for Inactive)
REMARK    1  A    between atoms: C_1  and  C_2
REMARK    2  A    between atoms: C_2  and  O_3
REMARK    3  A    between atoms: O_3  and  C_4
REMARK    4  A    between atoms: C_4  and  C_6
REMARK    5  A    between atoms: C_12  and  C_14
REMARK    6  A    between atoms: C_14  and  C_16
REMARK    7  A    between atoms: C_16  and  O_17
REMARK                            x       y       z     vdW  Elec       q    Type
REMARK                         _______ _______ _______ _____ _____    ______ ____
ROOT
ATOM      1  C   UNL     1       6.113   6.496  17.210  0.00  0.00    +0.000 C 
ATOM      2  C   UNL     1       7.624   6.803  17.166  0.00  0.00    +0.000 C 
ATOM      3  C   UNL     1       8.222   7.011  18.548  0.00  0.00    +0.000 C 
ATOM      4  C   UNL     1       7.886   5.839  19.457  0.00  0.00    +0.000 C 
ATOM      5  C   UNL     1       6.387   5.569  19.485  0.00  0.00    +0.000 C 
ATOM      6  N   UNL     1       5.839   5.384  18.137  0.00  0.00    +0.000 N 
ATOM      7  C   UNL     1       4.650   4.671  17.927  0.00  0.00    +0.000 C 
ATOM      8  O   UNL     1       4.011   4.665  16.878  0.00  0.00    +0.000 OA
ENDROOT
BRANCH   1   9
ATOM      9  C   UNL     1       5.716   6.354  15.732  0.00  0.00    +0.000 C 
ATOM     10  O   UNL     1       4.786   6.930  15.181  0.00  0.00    +0.000 OA
BRANCH   9  11
ATOM     11  O   UNL     1       6.494   5.379  15.171  0.00  0.00    +0.000 OA
BRANCH  11  13
ATOM     12  C   UNL     1       6.706   4.083  13.191  0.00  0.00    +0.000 C 
ATOM     13  C   UNL     1       5.803   4.422  14.364  0.00  0.00    +0.000 C 
ENDBRANCH  11  13
ENDBRANCH   9  11
ENDBRANCH   1   9
BRANCH   7  14
ATOM     14  C   UNL     1       4.059   3.857  19.058  0.00  0.00    +0.000 C 
ATOM     15  O   UNL     1       4.525   2.755  19.317  0.00  0.00    +0.000 OA
BRANCH  14  16
ATOM     16  C   UNL     1       2.840   4.508  19.761  0.00  0.00    +0.000 C 
ATOM     17  C   UNL     1       1.686   4.707  18.770  0.00  0.00    +0.000 C 
ATOM     18  C   UNL     1       1.044   3.398  18.317  0.00  0.00    +0.000 C 
ATOM     19  C   UNL     1       0.644   2.506  19.489  0.00  0.00    +0.000 C 
ATOM     20  C   UNL     1       1.750   2.319  20.524  0.00  0.00    +0.000 C 
ATOM     21  C   UNL     1       2.387   3.638  20.943  0.00  0.00    +0.000 C 
BRANCH  16  22
ATOM     22  O   UNL     1       3.133   5.790  20.334  0.00  0.00    +0.000 OA
ATOM     23  H   UNL     1       3.745   5.649  21.087  0.00  0.00    +0.000 HD
ENDBRANCH  16  22
ENDBRANCH  14  16
ENDBRANCH   7  14
TORSDOF 6
ENDMDL
MODEL 7
REMARK VINA RESULT:      -7.1      1.763      3.227
REMARK  Name = 
REMARK  7 active torsions:
REMARK  status: ('A' for Active; 'I' for Inactive)
REMARK    1  A    between atoms: C_1  and  C_2
REMARK    2  A    between atoms: C_2  and  O_3
REMARK    3  A    between atoms: O_3  and  C_4
REMARK    4  A    between atoms: C_4  and  C_6
REMARK    5  A    between atoms: C_12  and  C_14
REMARK    6  A    between atoms: C_14  and  C_16
REMARK    7  A    between atoms: C_16  and  O_17
REMARK                            x       y       z     vdW  Elec       q    Type
REMARK                         _______ _______ _______ _____ _____    ______ ____
ROOT
ATOM      1  C   UNL     1       6.072   6.255  17.096  0.00  0.00    +0.000 C 
ATOM      2  C   UNL     1       7.606   6.207  17.253  0.00  0.00    +0.000 C 
ATOM      3  C   UNL     1       8.060   6.486  18.676  0.00  0.00    +0.000 C 
ATOM      4  C   UNL     1       7.340   5.572  19.655  0.00  0.00    +0.000 C 
ATOM      5  C   UNL     1       5.829   5.650  19.481  0.00  0.00    +0.000 C 
ATOM      6  N   UNL     1       5.423   5.388  18.095  0.00  0.00    +0.000 N 
ATOM      7  C   UNL     1       4.133   4.934  17.789  0.00  0.00    +0.000 C 
ATOM      8  O   UNL     1       3.646   4.910  16.662  0.00  0.00    +0.000 OA
ENDROOT
BRANCH   1   9
ATOM      9  C   UNL     1       5.839   5.980  15.602  0.00  0.00    +0.000 C 
ATOM     10  O   UNL     1       5.138   6.648  14.851  0.00  0.00    +0.000 OA
BRANCH   9  11
ATOM     11  O   UNL     1       6.438   4.793  15.286  0.00  0.00    +0.000 OA
BRANCH  11  13
ATOM     12  C   UNL     1       5.973   3.715  13.220  0.00  0.00    +0.000 C 
ATOM     13  C   UNL     1       6.906   4.672  13.940  0.00  0.00    +0.000 C 
ENDBRANCH  11  13
ENDBRANCH   9  11
ENDBRANCH   1   9
BRANCH   7  14
ATOM     14  C   UNL     1       3.227   4.456  18.903  0.00  0.00    +0.000 C 
ATOM     15  O   UNL     1       2.646   5.275  19.604  0.00  0.00    +0.000 OA
BRANCH  14  16
ATOM     16  C   UNL     1       3.170   2.917  19.081  0.00  0.00    +0.000 C 
ATOM     17  C   UNL     1       3.628   2.519  20.491  0.00  0.00    +0.000 C 
ATOM     18  C   UNL     1       2.650   2.934  21.587  0.00  0.00    +0.000 C 
ATOM     19  C   UNL     1       1.222   2.478  21.300  0.00  0.00    +0.000 C 
ATOM     20  C   UNL     1       0.741   2.815  19.890  0.00  0.00    +0.000 C 
ATOM     21  C   UNL     1       1.745   2.408  18.818  0.00  0.00    +0.000 C 
BRANCH  16  22
ATOM     22  O   UNL     1       3.996   2.207  18.149  0.00  0.00    +0.000 OA
ATOM     23  H   UNL     1       3.553   1.357  17.943  0.00  0.00    +0.000 HD
ENDBRANCH  16  22
ENDBRANCH  14  16
ENDBRANCH   7  14
TORSDOF 6
ENDMDL
MODEL 8
REMARK VINA RESULT:      -7.1      2.131      6.061
REMARK  Name = 
REMARK  7 active torsions:
REMARK  status: ('A' for Active; 'I' for Inactive)
REMARK    1  A    between atoms: C_1  and  C_2
REMARK    2  A    between atoms: C_2  and  O_3
REMARK    3  A    between atoms: O_3  and  C_4
REMARK    4  A    between atoms: C_4  and  C_6
REMARK    5  A    between atoms: C_12  and  C_14
REMARK    6  A    between atoms: C_14  and  C_16
REMARK    7  A    between atoms: C_16  and  O_17
REMARK                            x       y       z     vdW  Elec       q    Type
REMARK                         _______ _______ _______ _____ _____    ______ ____
ROOT
ATOM      1  C   UNL     1       2.301   4.312  19.496  0.00  0.00    +0.000 C 
ATOM      2  C   UNL     1       1.092   4.986  20.175  0.00  0.00    +0.000 C 
ATOM      3  C   UNL     1       1.448   6.310  20.830  0.00  0.00    +0.000 C 
ATOM      4  C   UNL     1       2.150   7.224  19.837  0.00  0.00    +0.000 C 
ATOM      5  C   UNL     1       3.344   6.533  19.193  0.00  0.00    +0.000 C 
ATOM      6  N   UNL     1       2.970   5.253  18.580  0.00  0.00    +0.000 N 
ATOM      7  C   UNL     1       3.735   4.689  17.550  0.00  0.00    +0.000 C 
ATOM      8  O   UNL     1       3.626   3.534  17.146  0.00  0.00    +0.000 OA
ENDROOT
BRANCH   1   9
ATOM      9  C   UNL     1       1.733   2.998  18.936  0.00  0.00    +0.000 C 
ATOM     10  O   UNL     1       0.743   2.892  18.222  0.00  0.00    +0.000 OA
BRANCH   9  11
ATOM     11  O   UNL     1       2.440   1.961  19.477  0.00  0.00    +0.000 OA
BRANCH  11  13
ATOM     12  C   UNL     1       4.678   1.907  20.276  0.00  0.00    +0.000 C 
ATOM     13  C   UNL     1       3.246   2.284  20.614  0.00  0.00    +0.000 C 
ENDBRANCH  11  13
ENDBRANCH   9  11
ENDBRANCH   1   9
BRANCH   7  14
ATOM     14  C   UNL     1       4.805   5.520  16.875  0.00  0.00    +0.000 C 
ATOM     15  O   UNL     1       4.505   6.588  16.358  0.00  0.00    +0.000 OA
BRANCH  14  16
ATOM     16  C   UNL     1       6.216   4.877  16.859  0.00  0.00    +0.000 C 
ATOM     17  C   UNL     1       7.250   5.857  16.289  0.00  0.00    +0.000 C 
ATOM     18  C   UNL     1       7.527   7.047  17.204  0.00  0.00    +0.000 C 
ATOM     19  C   UNL     1       7.868   6.622  18.629  0.00  0.00    +0.000 C 
ATOM     20  C   UNL     1       6.888   5.611  19.220  0.00  0.00    +0.000 C 
ATOM     21  C   UNL     1       6.614   4.444  18.278  0.00  0.00    +0.000 C 
BRANCH  16  22
ATOM     22  O   UNL     1       6.286   3.680  16.072  0.00  0.00    +0.000 OA
ATOM     23  H   UNL     1       6.000   3.903  15.161  0.00  0.00    +0.000 HD
ENDBRANCH  16  22
ENDBRANCH  14  16
ENDBRANCH   7  14
TORSDOF 6
ENDMDL
MODEL 9
REMARK VINA RESULT:      -7.1      1.795      2.952
REMARK  Name = 
REMARK  7 active torsions:
REMARK  status: ('A' for Active; 'I' for Inactive)
REMARK    1  A    between atoms: C_1  and  C_2
REMARK    2  A    between atoms: C_2  and  O_3
REMARK    3  A    between atoms: O_3  and  C_4
REMARK    4  A    between atoms: C_4  and  C_6
REMARK    5  A    between atoms: C_12  and  C_14
REMARK    6  A    between atoms: C_14  and  C_16
REMARK    7  A    between atoms: C_16  and  O_17
REMARK                            x       y       z     vdW  Elec       q    Type
REMARK                         _______ _______ _______ _____ _____    ______ ____
ROOT
ATOM      1  C   UNL     1       5.771   5.553  16.492  0.00  0.00    +0.000 C 
ATOM      2  C   UNL     1       6.212   6.889  17.124  0.00  0.00    +0.000 C 
ATOM      3  C   UNL     1       5.057   7.859  17.313  0.00  0.00    +0.000 C 
ATOM      4  C   UNL     1       3.922   7.194  18.077  0.00  0.00    +0.000 C 
ATOM      5  C   UNL     1       3.504   5.884  17.422  0.00  0.00    +0.000 C 
ATOM      6  N   UNL     1       4.642   4.975  17.243  0.00  0.00    +0.000 N 
ATOM      7  C   UNL     1       4.455   3.591  17.127  0.00  0.00    +0.000 C 
ATOM      8  O   UNL     1       5.312   2.795  16.752  0.00  0.00    +0.000 OA
ENDROOT
BRANCH   1   9
ATOM      9  C   UNL     1       7.075   4.750  16.365  0.00  0.00    +0.000 C 
ATOM     10  O   UNL     1       7.807   4.419  17.290  0.00  0.00    +0.000 OA
BRANCH   9  11
ATOM     11  O   UNL     1       7.346   4.582  15.035  0.00  0.00    +0.000 OA
BRANCH  11  13
ATOM     12  C   UNL     1       6.324   3.701  13.079  0.00  0.00    +0.000 C 
ATOM     13  C   UNL     1       6.242   4.777  14.147  0.00  0.00    +0.000 C 
ENDBRANCH  11  13
ENDBRANCH   9  11
ENDBRANCH   1   9
BRANCH   7  14
ATOM     14  C   UNL     1       3.104   2.991  17.452  0.00  0.00    +0.000 C 
ATOM     15  O   UNL     1       2.134   3.277  16.764  0.00  0.00    +0.000 OA
BRANCH  14  16
ATOM     16  C   UNL     1       3.080   2.082  18.709  0.00  0.00    +0.000 C 
ATOM     17  C   UNL     1       3.713   2.801  19.908  0.00  0.00    +0.000 C 
ATOM     18  C   UNL     1       2.877   3.967  20.427  0.00  0.00    +0.000 C 
ATOM     19  C   UNL     1       1.427   3.574  20.697  0.00  0.00    +0.000 C 
ATOM     20  C   UNL     1       0.772   2.815  19.544  0.00  0.00    +0.000 C 
ATOM     21  C   UNL     1       1.637   1.669  19.033  0.00  0.00    +0.000 C 
BRANCH  16  22
ATOM     22  O   UNL     1       3.788   0.848  18.531  0.00  0.00    +0.000 OA
ATOM     23  H   UNL     1       3.144   0.116  18.629  0.00  0.00    +0.000 HD
ENDBRANCH  16  22
ENDBRANCH  14  16
ENDBRANCH   7  14
TORSDOF 6
ENDMDL
