MODEL 1
REMARK VINA RESULT:      -7.5      0.000      0.000
REMARK  Name = 
REMARK  6 active torsions:
REMARK  status: ('A' for Active; 'I' for Inactive)
REMARK    1  A    between atoms: C_1  and  C_2
REMARK    2  A    between atoms: C_2  and  C_3
REMARK    3  A    between atoms: C_3  and  C_4
REMARK    4  A    between atoms: C_3  and  C_6
REMARK    5  A    between atoms: C_11  and  C_13
REMARK    6  A    between atoms: C_27  and  C_28
REMARK                            x       y       z     vdW  Elec       q    Type
REMARK                         _______ _______ _______ _____ _____    ______ ____
ROOT
ATOM      1  C   UNL     1       1.455   8.103  20.571  0.00  0.00    +0.000 A 
ATOM      2  C   UNL     1       1.269   6.801  21.074  0.00  0.00    +0.000 A 
ATOM      3  N   UNL     1       1.927   5.869  20.385  0.00  0.00    +0.000 NA
ATOM      4  N   UNL     1       2.506   6.559  19.354  0.00  0.00    +0.000 N 
ATOM      5  C   UNL     1       3.269   5.845  18.409  0.00  0.00    +0.000 A 
ATOM      6  N   UNL     1       3.876   6.406  17.413  0.00  0.00    +0.000 NA
ATOM      7  C   UNL     1       4.564   5.556  16.608  0.00  0.00    +0.000 A 
ATOM      8  C   UNL     1       4.656   4.236  16.762  0.00  0.00    +0.000 A 
ATOM      9  C   UNL     1       3.966   3.602  17.889  0.00  0.00    +0.000 A 
ATOM     10  O   UNL     1       3.993   2.394  18.084  0.00  0.00    +0.000 OA
ATOM     11  N   UNL     1       3.293   4.494  18.680  0.00  0.00    +0.000 N 
ATOM     12  C   UNL     1       5.495   3.589  15.729  0.00  0.00    +0.000 C 
ATOM     13  C   UNL     1       6.129   4.799  15.021  0.00  0.00    +0.000 C 
ATOM     14  C   UNL     1       5.327   6.041  15.428  0.00  0.00    +0.000 C 
ATOM     15  C   UNL     1       2.223   7.916  19.427  0.00  0.00    +0.000 A 
ATOM     16  C   UNL     1       2.663   8.945  18.440  0.00  0.00    +0.000 C 
ATOM     17  H   UNL     1       2.784   4.148  19.488  0.00  0.00    +0.000 HD
ENDROOT
BRANCH   1  23
ATOM     18  C   UNL     1      -1.703  11.689  18.487  0.00  0.00    +0.000 C 
ATOM     19  F   UNL     1      -1.652  12.509  17.390  0.00  0.00    +0.000 F 
ATOM     20  C   UNL     1      -0.742  12.294  19.523  0.00  0.00    +0.000 C 
ATOM     21  C   UNL     1      -0.475  11.356  20.688  0.00  0.00    +0.000 C 
ATOM     22  N   UNL     1      -0.020  10.051  20.216  0.00  0.00    +0.000 N 
ATOM     23  C   UNL     1       0.915   9.383  21.017  0.00  0.00    +0.000 C 
ATOM     24  O   UNL     1       1.288   9.868  22.084  0.00  0.00    +0.000 OA
ATOM     25  C   UNL     1      -0.899   9.403  19.245  0.00  0.00    +0.000 C 
ATOM     26  C   UNL     1      -1.135  10.321  18.054  0.00  0.00    +0.000 C 
BRANCH  18  27
ATOM     27  C   UNL     1      -3.191  11.628  18.944  0.00  0.00    +0.000 C 
BRANCH  27  29
ATOM     28  C   UNL     1      -4.885  12.616  20.605  0.00  0.00    +0.000 C 
ATOM     29  C   UNL     1      -3.601  12.838  19.811  0.00  0.00    +0.000 C 
ENDBRANCH  27  29
BRANCH  27  30
ATOM     30  C   UNL     1      -4.067  11.588  17.703  0.00  0.00    +0.000 C 
ATOM     31  N   UNL     1      -4.794  11.554  16.674  0.00  0.00    +0.000 NA
ENDBRANCH  27  30
ENDBRANCH  18  27
ENDBRANCH   1  23
TORSDOF 4
ENDMDL
MODEL 2
REMARK VINA RESULT:      -7.4      3.599      4.968
REMARK  Name = 
REMARK  6 active torsions:
REMARK  status: ('A' for Active; 'I' for Inactive)
REMARK    1  A    between atoms: C_1  and  C_2
REMARK    2  A    between atoms: C_2  and  C_3
REMARK    3  A    between atoms: C_3  and  C_4
REMARK    4  A    between atoms: C_3  and  C_6
REMARK    5  A    between atoms: C_11  and  C_13
REMARK    6  A    between atoms: C_27  and  C_28
REMARK                            x       y       z     vdW  Elec       q    Type
REMARK                         _______ _______ _______ _____ _____    ______ ____
ROOT
ATOM      1  C   UNL     1       0.344  10.456  19.847  0.00  0.00    +0.000 A 
ATOM      2  C   UNL     1       0.078   9.795  21.061  0.00  0.00    +0.000 A 
ATOM      3  N   UNL     1       0.663   8.601  21.154  0.00  0.00    +0.000 NA
ATOM      4  N   UNL     1       1.273   8.431  19.939  0.00  0.00    +0.000 N 
ATOM      5  C   UNL     1       1.974   7.233  19.698  0.00  0.00    +0.000 A 
ATOM      6  N   UNL     1       2.603   6.985  18.595  0.00  0.00    +0.000 NA
ATOM      7  C   UNL     1       3.221   5.777  18.546  0.00  0.00    +0.000 A 
ATOM      8  C   UNL     1       3.227   4.862  19.514  0.00  0.00    +0.000 A 
ATOM      9  C   UNL     1       2.511   5.143  20.762  0.00  0.00    +0.000 A 
ATOM     10  O   UNL     1       2.460   4.344  21.688  0.00  0.00    +0.000 OA
ATOM     11  N   UNL     1       1.910   6.373  20.774  0.00  0.00    +0.000 N 
ATOM     12  C   UNL     1       4.006   3.654  19.165  0.00  0.00    +0.000 C 
ATOM     13  C   UNL     1       4.710   4.085  17.867  0.00  0.00    +0.000 C 
ATOM     14  C   UNL     1       3.999   5.343  17.355  0.00  0.00    +0.000 C 
ATOM     15  C   UNL     1       1.082   9.532  19.115  0.00  0.00    +0.000 A 
ATOM     16  C   UNL     1       1.576   9.657  17.713  0.00  0.00    +0.000 C 
ATOM     17  H   UNL     1       1.391   6.659  21.599  0.00  0.00    +0.000 HD
ENDROOT
BRANCH   1  23
ATOM     18  C   UNL     1       2.504  15.182  19.442  0.00  0.00    +0.000 C 
ATOM     19  F   UNL     1       2.998  16.105  20.328  0.00  0.00    +0.000 F 
ATOM     20  C   UNL     1       0.973  15.253  19.556  0.00  0.00    +0.000 C 
ATOM     21  C   UNL     1       0.281  14.104  18.841  0.00  0.00    +0.000 C 
ATOM     22  N   UNL     1       0.806  12.816  19.291  0.00  0.00    +0.000 N 
ATOM     23  C   UNL     1      -0.103  11.752  19.349  0.00  0.00    +0.000 C 
ATOM     24  O   UNL     1      -1.271  11.904  18.992  0.00  0.00    +0.000 OA
ATOM     25  C   UNL     1       2.256  12.668  19.187  0.00  0.00    +0.000 C 
ATOM     26  C   UNL     1       2.955  13.793  19.939  0.00  0.00    +0.000 C 
BRANCH  18  27
ATOM     27  C   UNL     1       3.064  15.552  18.036  0.00  0.00    +0.000 C 
BRANCH  27  29
ATOM     28  C   UNL     1       2.120  17.497  16.645  0.00  0.00    +0.000 C 
ATOM     29  C   UNL     1       3.060  17.073  17.770  0.00  0.00    +0.000 C 
ENDBRANCH  27  29
BRANCH  27  30
ATOM     30  C   UNL     1       4.491  15.037  17.944  0.00  0.00    +0.000 C 
ATOM     31  N   UNL     1       5.675  14.609  17.867  0.00  0.00    +0.000 NA
ENDBRANCH  27  30
ENDBRANCH  18  27
ENDBRANCH   1  23
TORSDOF 4
ENDMDL
MODEL 3
REMARK VINA RESULT:      -7.4      3.440      4.896
REMARK  Name = 
REMARK  6 active torsions:
REMARK  status: ('A' for Active; 'I' for Inactive)
REMARK    1  A    between atoms: C_1  and  C_2
REMARK    2  A    between atoms: C_2  and  C_3
REMARK    3  A    between atoms: C_3  and  C_4
REMARK    4  A    between atoms: C_3  and  C_6
REMARK    5  A    between atoms: C_11  and  C_13
REMARK    6  A    between atoms: C_27  and  C_28
REMARK                            x       y       z     vdW  Elec       q    Type
REMARK                         _______ _______ _______ _____ _____    ______ ____
ROOT
ATOM      1  C   UNL     1       1.014   9.982  18.926  0.00  0.00    +0.000 A 
ATOM      2  C   UNL     1       1.894   9.791  17.844  0.00  0.00    +0.000 A 
ATOM      3  N   UNL     1       2.464   8.587  17.832  0.00  0.00    +0.000 NA
ATOM      4  N   UNL     1       2.008   7.987  18.977  0.00  0.00    +0.000 N 
ATOM      5  C   UNL     1       2.453   6.685  19.279  0.00  0.00    +0.000 A 
ATOM      6  N   UNL     1       2.064   6.023  20.321  0.00  0.00    +0.000 NA
ATOM      7  C   UNL     1       2.599   4.782  20.445  0.00  0.00    +0.000 A 
ATOM      8  C   UNL     1       3.464   4.217  19.606  0.00  0.00    +0.000 A 
ATOM      9  C   UNL     1       3.907   4.968  18.427  0.00  0.00    +0.000 A 
ATOM     10  O   UNL     1       4.711   4.518  17.621  0.00  0.00    +0.000 OA
ATOM     11  N   UNL     1       3.337   6.209  18.334  0.00  0.00    +0.000 N 
ATOM     12  C   UNL     1       3.850   2.845  20.007  0.00  0.00    +0.000 C 
ATOM     13  C   UNL     1       2.860   2.550  21.147  0.00  0.00    +0.000 C 
ATOM     14  C   UNL     1       2.246   3.888  21.579  0.00  0.00    +0.000 C 
ATOM     15  C   UNL     1       1.140   8.816  19.673  0.00  0.00    +0.000 A 
ATOM     16  C   UNL     1       0.496   8.490  20.980  0.00  0.00    +0.000 C 
ATOM     17  H   UNL     1       3.581   6.805  17.549  0.00  0.00    +0.000 HD
ENDROOT
BRANCH   1  23
ATOM     18  C   UNL     1       2.048  14.948  20.125  0.00  0.00    +0.000 C 
ATOM     19  F   UNL     1       2.763  15.583  21.109  0.00  0.00    +0.000 F 
ATOM     20  C   UNL     1       0.754  14.450  20.787  0.00  0.00    +0.000 C 
ATOM     21  C   UNL     1      -0.021  13.489  19.900  0.00  0.00    +0.000 C 
ATOM     22  N   UNL     1       0.827  12.386  19.457  0.00  0.00    +0.000 N 
ATOM     23  C   UNL     1       0.210  11.138  19.308  0.00  0.00    +0.000 C 
ATOM     24  O   UNL     1      -0.998  11.007  19.503  0.00  0.00    +0.000 OA
ATOM     25  C   UNL     1       2.067  12.786  18.795  0.00  0.00    +0.000 C 
ATOM     26  C   UNL     1       2.869  13.714  19.697  0.00  0.00    +0.000 C 
BRANCH  18  27
ATOM     27  C   UNL     1       1.832  15.980  18.979  0.00  0.00    +0.000 C 
BRANCH  27  29
ATOM     28  C   UNL     1      -0.431  17.087  18.471  0.00  0.00    +0.000 C 
ATOM     29  C   UNL     1       0.816  17.083  19.349  0.00  0.00    +0.000 C 
ENDBRANCH  27  29
BRANCH  27  30
ATOM     30  C   UNL     1       3.171  16.626  18.663  0.00  0.00    +0.000 C 
ATOM     31  N   UNL     1       4.282  17.162  18.400  0.00  0.00    +0.000 NA
ENDBRANCH  27  30
ENDBRANCH  18  27
ENDBRANCH   1  23
TORSDOF 4
ENDMDL
MODEL 4
REMARK VINA RESULT:      -7.1      1.862      3.098
REMARK  Name = 
REMARK  6 active torsions:
REMARK  status: ('A' for Active; 'I' for Inactive)
REMARK    1  A    between atoms: C_1  and  C_2
REMARK    2  A    between atoms: C_2  and  C_3
REMARK    3  A    between atoms: C_3  and  C_4
REMARK    4  A    between atoms: C_3  and  C_6
REMARK    5  A    between atoms: C_11  and  C_13
REMARK    6  A    between atoms: C_27  and  C_28
REMARK                            x       y       z     vdW  Elec       q    Type
REMARK                         _______ _______ _______ _____ _____    ______ ____
ROOT
ATOM      1  C   UNL     1       1.372   9.700  18.960  0.00  0.00    +0.000 A 
ATOM      2  C   UNL     1       2.143   9.397  17.821  0.00  0.00    +0.000 A 
ATOM      3  N   UNL     1       2.604   8.147  17.811  0.00  0.00    +0.000 NA
ATOM      4  N   UNL     1       2.191   7.627  19.010  0.00  0.00    +0.000 N 
ATOM      5  C   UNL     1       2.544   6.301  19.327  0.00  0.00    +0.000 A 
ATOM      6  N   UNL     1       2.184   5.709  20.420  0.00  0.00    +0.000 NA
ATOM      7  C   UNL     1       2.618   4.429  20.550  0.00  0.00    +0.000 A 
ATOM      8  C   UNL     1       3.361   3.763  19.669  0.00  0.00    +0.000 A 
ATOM      9  C   UNL     1       3.772   4.435  18.432  0.00  0.00    +0.000 A 
ATOM     10  O   UNL     1       4.467   3.890  17.585  0.00  0.00    +0.000 OA
ATOM     11  N   UNL     1       3.305   5.719  18.336  0.00  0.00    +0.000 N 
ATOM     12  C   UNL     1       3.657   2.376  20.092  0.00  0.00    +0.000 C 
ATOM     13  C   UNL     1       2.740   2.207  21.314  0.00  0.00    +0.000 C 
ATOM     14  C   UNL     1       2.280   3.606  21.741  0.00  0.00    +0.000 C 
ATOM     15  C   UNL     1       1.456   8.552  19.739  0.00  0.00    +0.000 A 
ATOM     16  C   UNL     1       0.893   8.325  21.102  0.00  0.00    +0.000 C 
ATOM     17  H   UNL     1       3.537   6.265  17.512  0.00  0.00    +0.000 HD
ENDROOT
BRANCH   1  23
ATOM     18  C   UNL     1      -3.378  11.716  18.217  0.00  0.00    +0.000 C 
ATOM     19  F   UNL     1      -4.109  12.105  17.125  0.00  0.00    +0.000 F 
ATOM     20  C   UNL     1      -2.314  12.804  18.433  0.00  0.00    +0.000 C 
ATOM     21  C   UNL     1      -1.250  12.387  19.436  0.00  0.00    +0.000 C 
ATOM     22  N   UNL     1      -0.655  11.105  19.065  0.00  0.00    +0.000 N 
ATOM     23  C   UNL     1       0.704  10.934  19.358  0.00  0.00    +0.000 C 
ATOM     24  O   UNL     1       1.337  11.815  19.938  0.00  0.00    +0.000 OA
ATOM     25  C   UNL     1      -1.608  10.015  18.867  0.00  0.00    +0.000 C 
ATOM     26  C   UNL     1      -2.652  10.410  17.831  0.00  0.00    +0.000 C 
BRANCH  18  27
ATOM     27  C   UNL     1      -4.377  11.546  19.399  0.00  0.00    +0.000 C 
BRANCH  27  29
ATOM     28  C   UNL     1      -4.313  12.717  21.686  0.00  0.00    +0.000 C 
ATOM     29  C   UNL     1      -4.595  12.852  20.193  0.00  0.00    +0.000 C 
ENDBRANCH  27  29
BRANCH  27  30
ATOM     30  C   UNL     1      -5.709  11.082  18.832  0.00  0.00    +0.000 C 
ATOM     31  N   UNL     1      -6.814  10.698  18.361  0.00  0.00    +0.000 NA
ENDBRANCH  27  30
ENDBRANCH  18  27
ENDBRANCH   1  23
TORSDOF 4
ENDMDL
MODEL 5
REMARK VINA RESULT:      -7.0      3.135      4.181
REMARK  Name = 
REMARK  6 active torsions:
REMARK  status: ('A' for Active; 'I' for Inactive)
REMARK    1  A    between atoms: C_1  and  C_2
REMARK    2  A    between atoms: C_2  and  C_3
REMARK    3  A    between atoms: C_3  and  C_4
REMARK    4  A    between atoms: C_3  and  C_6
REMARK    5  A    between atoms: C_11  and  C_13
REMARK    6  A    between atoms: C_27  and  C_28
REMARK                            x       y       z     vdW  Elec       q    Type
REMARK                         _______ _______ _______ _____ _____    ______ ____
ROOT
ATOM      1  C   UNL     1       0.478   9.835  20.085  0.00  0.00    +0.000 A 
ATOM      2  C   UNL     1       0.545   8.869  21.108  0.00  0.00    +0.000 A 
ATOM      3  N   UNL     1       1.397   7.879  20.848  0.00  0.00    +0.000 NA
ATOM      4  N   UNL     1       1.856   8.154  19.586  0.00  0.00    +0.000 N 
ATOM      5  C   UNL     1       2.776   7.266  18.994  0.00  0.00    +0.000 A 
ATOM      6  N   UNL     1       3.286   7.447  17.819  0.00  0.00    +0.000 NA
ATOM      7  C   UNL     1       4.156   6.485  17.417  0.00  0.00    +0.000 A 
ATOM      8  C   UNL     1       4.507   5.408  18.116  0.00  0.00    +0.000 A 
ATOM      9  C   UNL     1       3.926   5.201  19.446  0.00  0.00    +0.000 A 
ATOM     10  O   UNL     1       4.191   4.228  20.138  0.00  0.00    +0.000 OA
ATOM     11  N   UNL     1       3.063   6.198  19.817  0.00  0.00    +0.000 N 
ATOM     12  C   UNL     1       5.490   4.555  17.411  0.00  0.00    +0.000 C 
ATOM     13  C   UNL     1       5.887   5.437  16.216  0.00  0.00    +0.000 C 
ATOM     14  C   UNL     1       4.839   6.550  16.098  0.00  0.00    +0.000 C 
ATOM     15  C   UNL     1       1.302   9.325  19.087  0.00  0.00    +0.000 A 
ATOM     16  C   UNL     1       1.554   9.890  17.729  0.00  0.00    +0.000 C 
ATOM     17  H   UNL     1       2.612   6.144  20.725  0.00  0.00    +0.000 HD
ENDROOT
BRANCH   1  23
ATOM     18  C   UNL     1       1.373  14.914  20.839  0.00  0.00    +0.000 C 
ATOM     19  F   UNL     1       1.730  15.690  21.911  0.00  0.00    +0.000 F 
ATOM     20  C   UNL     1      -0.106  14.550  21.042  0.00  0.00    +0.000 C 
ATOM     21  C   UNL     1      -0.577  13.469  20.084  0.00  0.00    +0.000 C 
ATOM     22  N   UNL     1       0.290  12.295  20.151  0.00  0.00    +0.000 N 
ATOM     23  C   UNL     1      -0.322  11.049  19.970  0.00  0.00    +0.000 C 
ATOM     24  O   UNL     1      -1.525  10.970  19.724  0.00  0.00    +0.000 OA
ATOM     25  C   UNL     1       1.712  12.563  19.941  0.00  0.00    +0.000 C 
ATOM     26  C   UNL     1       2.200  13.615  20.928  0.00  0.00    +0.000 C 
BRANCH  18  27
ATOM     27  C   UNL     1       1.662  15.748  19.555  0.00  0.00    +0.000 C 
BRANCH  27  29
ATOM     28  C   UNL     1      -0.195  16.974  18.269  0.00  0.00    +0.000 C 
ATOM     29  C   UNL     1       0.775  17.007  19.446  0.00  0.00    +0.000 C 
ENDBRANCH  27  29
BRANCH  27  30
ATOM     30  C   UNL     1       3.122  16.171  19.582  0.00  0.00    +0.000 C 
ATOM     31  N   UNL     1       4.333  16.522  19.605  0.00  0.00    +0.000 NA
ENDBRANCH  27  30
ENDBRANCH  18  27
ENDBRANCH   1  23
TORSDOF 4
ENDMDL
MODEL 6
REMARK VINA RESULT:      -7.0      3.227      4.868
REMARK  Name = 
REMARK  6 active torsions:
REMARK  status: ('A' for Active; 'I' for Inactive)
REMARK    1  A    between atoms: C_1  and  C_2
REMARK    2  A    between atoms: C_2  and  C_3
REMARK    3  A    between atoms: C_3  and  C_4
REMARK    4  A    between atoms: C_3  and  C_6
REMARK    5  A    between atoms: C_11  and  C_13
REMARK    6  A    between atoms: C_27  and  C_28
REMARK                            x       y       z     vdW  Elec       q    Type
REMARK                         _______ _______ _______ _____ _____    ______ ____
ROOT
ATOM      1  C   UNL     1      -0.373  11.501  22.387  0.00  0.00    +0.000 A 
ATOM      2  C   UNL     1      -0.610  10.352  23.165  0.00  0.00    +0.000 A 
ATOM      3  N   UNL     1      -0.059   9.248  22.663  0.00  0.00    +0.000 NA
ATOM      4  N   UNL     1       0.498   9.660  21.480  0.00  0.00    +0.000 N 
ATOM      5  C   UNL     1       1.152   8.706  20.675  0.00  0.00    +0.000 A 
ATOM      6  N   UNL     1       1.730   8.996  19.554  0.00  0.00    +0.000 NA
ATOM      7  C   UNL     1       2.310   7.945  18.919  0.00  0.00    +0.000 A 
ATOM      8  C   UNL     1       2.325   6.685  19.348  0.00  0.00    +0.000 A 
ATOM      9  C   UNL     1       1.667   6.357  20.616  0.00  0.00    +0.000 A 
ATOM     10  O   UNL     1       1.629   5.219  21.064  0.00  0.00    +0.000 OA
ATOM     11  N   UNL     1       1.105   7.445  21.229  0.00  0.00    +0.000 N 
ATOM     12  C   UNL     1       3.053   5.772  18.439  0.00  0.00    +0.000 C 
ATOM     13  C   UNL     1       3.719   6.753  17.458  0.00  0.00    +0.000 C 
ATOM     14  C   UNL     1       3.026   8.111  17.627  0.00  0.00    +0.000 C 
ATOM     15  C   UNL     1       0.308  11.019  21.275  0.00  0.00    +0.000 A 
ATOM     16  C   UNL     1       0.751  11.780  20.070  0.00  0.00    +0.000 C 
ATOM     17  H   UNL     1       0.627   7.316  22.116  0.00  0.00    +0.000 HD
ENDROOT
BRANCH   1  23
ATOM     18  C   UNL     1      -4.954  13.985  22.265  0.00  0.00    +0.000 C 
ATOM     19  F   UNL     1      -5.917  14.202  21.314  0.00  0.00    +0.000 F 
ATOM     20  C   UNL     1      -3.782  14.914  21.910  0.00  0.00    +0.000 C 
ATOM     21  C   UNL     1      -2.526  14.597  22.706  0.00  0.00    +0.000 C 
ATOM     22  N   UNL     1      -2.166  13.187  22.576  0.00  0.00    +0.000 N 
ATOM     23  C   UNL     1      -0.799  12.884  22.573  0.00  0.00    +0.000 C 
ATOM     24  O   UNL     1       0.041  13.771  22.717  0.00  0.00    +0.000 OA
ATOM     25  C   UNL     1      -3.228  12.243  22.923  0.00  0.00    +0.000 C 
ATOM     26  C   UNL     1      -4.475  12.528  22.097  0.00  0.00    +0.000 C 
BRANCH  18  27
ATOM     27  C   UNL     1      -5.607  14.269  23.650  0.00  0.00    +0.000 C 
BRANCH  27  29
ATOM     28  C   UNL     1      -7.516  15.979  23.458  0.00  0.00    +0.000 C 
ATOM     29  C   UNL     1      -6.052  15.739  23.813  0.00  0.00    +0.000 C 
ENDBRANCH  27  29
BRANCH  27  30
ATOM     30  C   UNL     1      -6.819  13.365  23.798  0.00  0.00    +0.000 C 
ATOM     31  N   UNL     1      -7.825  12.614  23.921  0.00  0.00    +0.000 NA
ENDBRANCH  27  30
ENDBRANCH  18  27
ENDBRANCH   1  23
TORSDOF 4
ENDMDL
MODEL 7
REMARK VINA RESULT:      -7.0      3.245      9.601
REMARK  Name = 
REMARK  6 active torsions:
REMARK  status: ('A' for Active; 'I' for Inactive)
REMARK    1  A    between atoms: C_1  and  C_2
REMARK    2  A    between atoms: C_2  and  C_3
REMARK    3  A    between atoms: C_3  and  C_4
REMARK    4  A    between atoms: C_3  and  C_6
REMARK    5  A    between atoms: C_11  and  C_13
REMARK    6  A    between atoms: C_27  and  C_28
REMARK                            x       y       z     vdW  Elec       q    Type
REMARK                         _______ _______ _______ _____ _____    ______ ____
ROOT
ATOM      1  C   UNL     1       0.906  10.455  19.613  0.00  0.00    +0.000 A 
ATOM      2  C   UNL     1       1.345  10.916  20.869  0.00  0.00    +0.000 A 
ATOM      3  N   UNL     1       0.400  11.551  21.560  0.00  0.00    +0.000 NA
ATOM      4  N   UNL     1      -0.676  11.578  20.712  0.00  0.00    +0.000 N 
ATOM      5  C   UNL     1      -1.857  12.215  21.141  0.00  0.00    +0.000 A 
ATOM      6  N   UNL     1      -2.934  12.275  20.427  0.00  0.00    +0.000 NA
ATOM      7  C   UNL     1      -3.973  12.928  21.009  0.00  0.00    +0.000 A 
ATOM      8  C   UNL     1      -3.964  13.493  22.214  0.00  0.00    +0.000 A 
ATOM      9  C   UNL     1      -2.742  13.428  23.022  0.00  0.00    +0.000 A 
ATOM     10  O   UNL     1      -2.656  13.937  24.131  0.00  0.00    +0.000 OA
ATOM     11  N   UNL     1      -1.723  12.753  22.404  0.00  0.00    +0.000 N 
ATOM     12  C   UNL     1      -5.258  14.115  22.573  0.00  0.00    +0.000 C 
ATOM     13  C   UNL     1      -6.181  13.615  21.448  0.00  0.00    +0.000 C 
ATOM     14  C   UNL     1      -5.286  13.074  20.326  0.00  0.00    +0.000 C 
ATOM     15  C   UNL     1      -0.394  10.937  19.514  0.00  0.00    +0.000 A 
ATOM     16  C   UNL     1      -1.330  10.821  18.356  0.00  0.00    +0.000 C 
ATOM     17  H   UNL     1      -0.836  12.654  22.887  0.00  0.00    +0.000 HD
ENDROOT
BRANCH   1  23
ATOM     18  C   UNL     1       2.996   5.700  19.175  0.00  0.00    +0.000 C 
ATOM     19  F   UNL     1       4.000   5.017  19.811  0.00  0.00    +0.000 F 
ATOM     20  C   UNL     1       3.684   6.722  18.256  0.00  0.00    +0.000 C 
ATOM     21  C   UNL     1       2.711   7.742  17.688  0.00  0.00    +0.000 C 
ATOM     22  N   UNL     1       1.949   8.389  18.754  0.00  0.00    +0.000 N 
ATOM     23  C   UNL     1       1.614   9.735  18.560  0.00  0.00    +0.000 C 
ATOM     24  O   UNL     1       1.916  10.313  17.518  0.00  0.00    +0.000 OA
ATOM     25  C   UNL     1       1.246   7.477  19.654  0.00  0.00    +0.000 C 
ATOM     26  C   UNL     1       2.224   6.479  20.260  0.00  0.00    +0.000 C 
BRANCH  18  27
ATOM     27  C   UNL     1       2.126   4.644  18.430  0.00  0.00    +0.000 C 
BRANCH  27  29
ATOM     28  C   UNL     1       3.180   2.352  17.937  0.00  0.00    +0.000 C 
ATOM     29  C   UNL     1       2.944   3.778  17.448  0.00  0.00    +0.000 C 
ENDBRANCH  27  29
BRANCH  27  30
ATOM     30  C   UNL     1       1.481   3.741  19.469  0.00  0.00    +0.000 C 
ATOM     31  N   UNL     1       0.947   2.991  20.331  0.00  0.00    +0.000 NA
ENDBRANCH  27  30
ENDBRANCH  18  27
ENDBRANCH   1  23
TORSDOF 4
ENDMDL
MODEL 8
REMARK VINA RESULT:      -6.9      3.523      4.867
REMARK  Name = 
REMARK  6 active torsions:
REMARK  status: ('A' for Active; 'I' for Inactive)
REMARK    1  A    between atoms: C_1  and  C_2
REMARK    2  A    between atoms: C_2  and  C_3
REMARK    3  A    between atoms: C_3  and  C_4
REMARK    4  A    between atoms: C_3  and  C_6
REMARK    5  A    between atoms: C_11  and  C_13
REMARK    6  A    between atoms: C_27  and  C_28
REMARK                            x       y       z     vdW  Elec       q    Type
REMARK                         _______ _______ _______ _____ _____    ______ ____
ROOT
ATOM      1  C   UNL     1       0.311  10.269  19.760  0.00  0.00    +0.000 A 
ATOM      2  C   UNL     1      -0.032   9.569  20.933  0.00  0.00    +0.000 A 
ATOM      3  N   UNL     1       0.602   8.404  21.059  0.00  0.00    +0.000 NA
ATOM      4  N   UNL     1       1.330   8.291  19.904  0.00  0.00    +0.000 N 
ATOM      5  C   UNL     1       2.111   7.135  19.709  0.00  0.00    +0.000 A 
ATOM      6  N   UNL     1       2.852   6.943  18.666  0.00  0.00    +0.000 NA
ATOM      7  C   UNL     1       3.534   5.768  18.655  0.00  0.00    +0.000 A 
ATOM      8  C   UNL     1       3.496   4.834  19.603  0.00  0.00    +0.000 A 
ATOM      9  C   UNL     1       2.654   5.051  20.783  0.00  0.00    +0.000 A 
ATOM     10  O   UNL     1       2.558   4.230  21.685  0.00  0.00    +0.000 OA
ATOM     11  N   UNL     1       1.992   6.249  20.759  0.00  0.00    +0.000 N 
ATOM     12  C   UNL     1       4.365   3.673  19.307  0.00  0.00    +0.000 C 
ATOM     13  C   UNL     1       5.164   4.168  18.089  0.00  0.00    +0.000 C 
ATOM     14  C   UNL     1       4.439   5.400  17.535  0.00  0.00    +0.000 C 
ATOM     15  C   UNL     1       1.160   9.399  19.086  0.00  0.00    +0.000 A 
ATOM     16  C   UNL     1       1.776   9.580  17.738  0.00  0.00    +0.000 C 
ATOM     17  H   UNL     1       1.385   6.490  21.536  0.00  0.00    +0.000 HD
ENDROOT
BRANCH   1  23
ATOM     18  C   UNL     1       1.512  15.256  20.688  0.00  0.00    +0.000 C 
ATOM     19  F   UNL     1       1.446  16.085  21.777  0.00  0.00    +0.000 F 
ATOM     20  C   UNL     1       0.069  15.091  20.184  0.00  0.00    +0.000 C 
ATOM     21  C   UNL     1      -0.065  13.985  19.151  0.00  0.00    +0.000 C 
ATOM     22  N   UNL     1       0.486  12.729  19.654  0.00  0.00    +0.000 N 
ATOM     23  C   UNL     1      -0.154  11.552  19.246  0.00  0.00    +0.000 C 
ATOM     24  O   UNL     1      -1.105  11.593  18.466  0.00  0.00    +0.000 OA
ATOM     25  C   UNL     1       1.867  12.805  20.128  0.00  0.00    +0.000 C 
ATOM     26  C   UNL     1       1.998  13.882  21.195  0.00  0.00    +0.000 C 
BRANCH  18  27
ATOM     27  C   UNL     1       2.481  15.920  19.665  0.00  0.00    +0.000 C 
BRANCH  27  29
ATOM     28  C   UNL     1       1.645  18.351  19.686  0.00  0.00    +0.000 C 
ATOM     29  C   UNL     1       1.821  17.071  18.874  0.00  0.00    +0.000 C 
ENDBRANCH  27  29
BRANCH  27  30
ATOM     30  C   UNL     1       3.676  16.465  20.429  0.00  0.00    +0.000 C 
ATOM     31  N   UNL     1       4.669  16.917  21.062  0.00  0.00    +0.000 NA
ENDBRANCH  27  30
ENDBRANCH  18  27
ENDBRANCH   1  23
TORSDOF 4
ENDMDL
MODEL 9
REMARK VINA RESULT:      -6.8      3.568      4.876
REMARK  Name = 
REMARK  6 active torsions:
REMARK  status: ('A' for Active; 'I' for Inactive)
REMARK    1  A    between atoms: C_1  and  C_2
REMARK    2  A    between atoms: C_2  and  C_3
REMARK    3  A    between atoms: C_3  and  C_4
REMARK    4  A    between atoms: C_3  and  C_6
REMARK    5  A    between atoms: C_11  and  C_13
REMARK    6  A    between atoms: C_27  and  C_28
REMARK                            x       y       z     vdW  Elec       q    Type
REMARK                         _______ _______ _______ _____ _____    ______ ____
ROOT
ATOM      1  C   UNL     1       0.424  10.478  19.777  0.00  0.00    +0.000 A 
ATOM      2  C   UNL     1       0.044   9.789  20.944  0.00  0.00    +0.000 A 
ATOM      3  N   UNL     1       0.616   8.591  21.062  0.00  0.00    +0.000 NA
ATOM      4  N   UNL     1       1.339   8.449  19.907  0.00  0.00    +0.000 N 
ATOM      5  C   UNL     1       2.058   7.254  19.704  0.00  0.00    +0.000 A 
ATOM      6  N   UNL     1       2.789   7.031  18.660  0.00  0.00    +0.000 NA
ATOM      7  C   UNL     1       3.408   5.823  18.641  0.00  0.00    +0.000 A 
ATOM      8  C   UNL     1       3.321   4.885  19.582  0.00  0.00    +0.000 A 
ATOM      9  C   UNL     1       2.489   5.137  20.763  0.00  0.00    +0.000 A 
ATOM     10  O   UNL     1       2.350   4.316  21.660  0.00  0.00    +0.000 OA
ATOM     11  N   UNL     1       1.891   6.369  20.748  0.00  0.00    +0.000 N 
ATOM     12  C   UNL     1       4.128   3.683  19.279  0.00  0.00    +0.000 C 
ATOM     13  C   UNL     1       4.953   4.143  18.065  0.00  0.00    +0.000 C 
ATOM     14  C   UNL     1       4.295   5.416  17.519  0.00  0.00    +0.000 C 
ATOM     15  C   UNL     1       1.228   9.570  19.097  0.00  0.00    +0.000 A 
ATOM     16  C   UNL     1       1.854   9.728  17.751  0.00  0.00    +0.000 C 
ATOM     17  H   UNL     1       1.296   6.636  21.526  0.00  0.00    +0.000 HD
ENDROOT
BRANCH   1  23
ATOM     18  C   UNL     1       2.147  15.352  20.443  0.00  0.00    +0.000 C 
ATOM     19  F   UNL     1       2.260  16.207  21.510  0.00  0.00    +0.000 F 
ATOM     20  C   UNL     1       0.654  15.310  20.082  0.00  0.00    +0.000 C 
ATOM     21  C   UNL     1       0.323  14.200  19.098  0.00  0.00    +0.000 C 
ATOM     22  N   UNL     1       0.807  12.909  19.584  0.00  0.00    +0.000 N 
ATOM     23  C   UNL     1       0.028  11.788  19.271  0.00  0.00    +0.000 C 
ATOM     24  O   UNL     1      -0.986  11.899  18.583  0.00  0.00    +0.000 OA
ATOM     25  C   UNL     1       2.228  12.869  19.923  0.00  0.00    +0.000 C 
ATOM     26  C   UNL     1       2.556  13.951  20.942  0.00  0.00    +0.000 C 
BRANCH  18  27
ATOM     27  C   UNL     1       3.068  15.905  19.315  0.00  0.00    +0.000 C 
BRANCH  27  29
ATOM     28  C   UNL     1       4.918  14.840  17.882  0.00  0.00    +0.000 C 
ATOM     29  C   UNL     1       3.441  14.833  18.268  0.00  0.00    +0.000 C 
ENDBRANCH  27  29
BRANCH  27  30
ATOM     30  C   UNL     1       2.339  17.044  18.622  0.00  0.00    +0.000 C 
ATOM     31  N   UNL     1       1.734  17.989  18.046  0.00  0.00    +0.000 NA
ENDBRANCH  27  30
ENDBRANCH  18  27
ENDBRANCH   1  23
TORSDOF 4
ENDMDL
