MODEL 1
REMARK VINA RESULT:      -7.2      0.000      0.000
REMARK  Name = 
REMARK  5 active torsions:
REMARK  status: ('A' for Active; 'I' for Inactive)
REMARK    1  A    between atoms: C_1  and  C_2
REMARK    2  A    between atoms: C_2  and  N_3
REMARK    3  A    between atoms: N_3  and  C_17
REMARK    4  A    between atoms: C_4  and  C_6
REMARK    5  A    between atoms: C_6  and  N_7
REMARK                            x       y       z     vdW  Elec       q    Type
REMARK                         _______ _______ _______ _____ _____    ______ ____
ROOT
ATOM      1  N   UNL     1       2.989   5.495  18.639  0.00  0.00    +0.000 N 
ATOM      2  C   UNL     1       4.307   5.194  19.010  0.00  0.00    +0.000 C 
ATOM      3  O   UNL     1       4.992   5.945  19.717  0.00  0.00    +0.000 OA
ENDROOT
BRANCH   1   4
ATOM      4  C   UNL     1       2.393   6.699  19.138  0.00  0.00    +0.000 A 
ATOM      5  C   UNL     1       1.880   6.745  20.442  0.00  0.00    +0.000 A 
ATOM      6  C   UNL     1       1.233   7.891  20.909  0.00  0.00    +0.000 A 
ATOM      7  C   UNL     1       1.120   9.002  20.083  0.00  0.00    +0.000 A 
ATOM      8  F   UNL     1       0.494  10.097  20.531  0.00  0.00    +0.000 F 
ATOM      9  C   UNL     1       1.639   8.987  18.795  0.00  0.00    +0.000 A 
ATOM     10  C   UNL     1       2.266   7.832  18.318  0.00  0.00    +0.000 A 
ENDBRANCH   1   4
BRANCH   1  12
ATOM     11  C   UNL     1       1.374   3.597  18.528  0.00  0.00    +0.000 C 
ATOM     12  C   UNL     1       2.154   4.656  17.759  0.00  0.00    +0.000 C 
ENDBRANCH   1  12
BRANCH   2  13
ATOM     13  C   UNL     1       4.973   3.932  18.451  0.00  0.00    +0.000 C 
BRANCH  13  14
ATOM     14  N   UNL     1       6.010   4.181  17.478  0.00  0.00    +0.000 N 
ATOM     15  C   UNL     1       7.306   4.546  17.779  0.00  0.00    +0.000 A 
ATOM     16  O   UNL     1       7.769   4.680  18.903  0.00  0.00    +0.000 OA
ATOM     17  O   UNL     1       8.063   4.760  16.622  0.00  0.00    +0.000 OA
ATOM     18  C   UNL     1       7.137   4.533  15.620  0.00  0.00    +0.000 A 
ATOM     19  C   UNL     1       7.399   4.636  14.270  0.00  0.00    +0.000 A 
ATOM     20  C   UNL     1       6.343   4.386  13.392  0.00  0.00    +0.000 A 
ATOM     21  C   UNL     1       5.067   4.050  13.884  0.00  0.00    +0.000 A 
ATOM     22  C   UNL     1       4.826   3.952  15.261  0.00  0.00    +0.000 A 
ATOM     23  C   UNL     1       5.888   4.192  16.106  0.00  0.00    +0.000 A 
ENDBRANCH  13  14
ENDBRANCH   2  13
TORSDOF 4
ENDMDL
MODEL 2
REMARK VINA RESULT:      -7.2      0.101      1.012
REMARK  Name = 
REMARK  5 active torsions:
REMARK  status: ('A' for Active; 'I' for Inactive)
REMARK    1  A    between atoms: C_1  and  C_2
REMARK    2  A    between atoms: C_2  and  N_3
REMARK    3  A    between atoms: N_3  and  C_17
REMARK    4  A    between atoms: C_4  and  C_6
REMARK    5  A    between atoms: C_6  and  N_7
REMARK                            x       y       z     vdW  Elec       q    Type
REMARK                         _______ _______ _______ _____ _____    ______ ____
ROOT
ATOM      1  N   UNL     1       2.973   5.481  18.630  0.00  0.00    +0.000 N 
ATOM      2  C   UNL     1       4.290   5.219  19.033  0.00  0.00    +0.000 C 
ATOM      3  O   UNL     1       4.947   6.006  19.727  0.00  0.00    +0.000 OA
ENDROOT
BRANCH   1   4
ATOM      4  C   UNL     1       2.344   6.686  19.080  0.00  0.00    +0.000 A 
ATOM      5  C   UNL     1       2.226   7.786  18.218  0.00  0.00    +0.000 A 
ATOM      6  C   UNL     1       1.680   8.988  18.673  0.00  0.00    +0.000 A 
ATOM      7  C   UNL     1       1.228   9.086  19.983  0.00  0.00    +0.000 A 
ATOM      8  F   UNL     1       0.711  10.242  20.418  0.00  0.00    +0.000 F 
ATOM      9  C   UNL     1       1.316   8.004  20.849  0.00  0.00    +0.000 A 
ATOM     10  C   UNL     1       1.883   6.808  20.401  0.00  0.00    +0.000 A 
ENDBRANCH   1   4
BRANCH   1  12
ATOM     11  C   UNL     1       1.348   3.589  18.557  0.00  0.00    +0.000 C 
ATOM     12  C   UNL     1       2.171   4.597  17.763  0.00  0.00    +0.000 C 
ENDBRANCH   1  12
BRANCH   2  13
ATOM     13  C   UNL     1       4.992   3.954  18.525  0.00  0.00    +0.000 C 
BRANCH  13  14
ATOM     14  N   UNL     1       6.021   4.192  17.541  0.00  0.00    +0.000 N 
ATOM     15  C   UNL     1       7.318   4.564  17.828  0.00  0.00    +0.000 A 
ATOM     16  O   UNL     1       7.790   4.713  18.947  0.00  0.00    +0.000 OA
ATOM     17  O   UNL     1       8.066   4.764  16.662  0.00  0.00    +0.000 OA
ATOM     18  C   UNL     1       7.133   4.521  15.670  0.00  0.00    +0.000 A 
ATOM     19  C   UNL     1       7.385   4.607  14.317  0.00  0.00    +0.000 A 
ATOM     20  C   UNL     1       6.323   4.344  13.450  0.00  0.00    +0.000 A 
ATOM     21  C   UNL     1       5.051   4.012  13.957  0.00  0.00    +0.000 A 
ATOM     22  C   UNL     1       4.821   3.932  15.337  0.00  0.00    +0.000 A 
ATOM     23  C   UNL     1       5.889   4.185  16.170  0.00  0.00    +0.000 A 
ENDBRANCH  13  14
ENDBRANCH   2  13
TORSDOF 4
ENDMDL
MODEL 3
REMARK VINA RESULT:      -7.0      1.218      1.399
REMARK  Name = 
REMARK  5 active torsions:
REMARK  status: ('A' for Active; 'I' for Inactive)
REMARK    1  A    between atoms: C_1  and  C_2
REMARK    2  A    between atoms: C_2  and  N_3
REMARK    3  A    between atoms: N_3  and  C_17
REMARK    4  A    between atoms: C_4  and  C_6
REMARK    5  A    between atoms: C_6  and  N_7
REMARK                            x       y       z     vdW  Elec       q    Type
REMARK                         _______ _______ _______ _____ _____    ______ ____
ROOT
ATOM      1  N   UNL     1       2.554   6.353  19.874  0.00  0.00    +0.000 N 
ATOM      2  C   UNL     1       3.589   6.185  18.943  0.00  0.00    +0.000 C 
ATOM      3  O   UNL     1       3.906   7.062  18.129  0.00  0.00    +0.000 OA
ENDROOT
BRANCH   1   4
ATOM      4  C   UNL     1       1.868   7.609  19.918  0.00  0.00    +0.000 A 
ATOM      5  C   UNL     1       1.274   8.048  21.111  0.00  0.00    +0.000 A 
ATOM      6  C   UNL     1       0.542   9.236  21.143  0.00  0.00    +0.000 A 
ATOM      7  C   UNL     1       0.423  10.002  19.989  0.00  0.00    +0.000 A 
ATOM      8  F   UNL     1      -0.285  11.138  20.021  0.00  0.00    +0.000 F 
ATOM      9  C   UNL     1       1.020   9.598  18.802  0.00  0.00    +0.000 A 
ATOM     10  C   UNL     1       1.734   8.397  18.764  0.00  0.00    +0.000 A 
ENDBRANCH   1   4
BRANCH   1  12
ATOM     11  C   UNL     1       1.024   4.418  20.248  0.00  0.00    +0.000 C 
ATOM     12  C   UNL     1       2.109   5.318  20.827  0.00  0.00    +0.000 C 
ENDBRANCH   1  12
BRANCH   2  13
ATOM     13  C   UNL     1       4.305   4.832  18.853  0.00  0.00    +0.000 C 
BRANCH  13  14
ATOM     14  N   UNL     1       5.533   4.851  18.097  0.00  0.00    +0.000 N 
ATOM     15  C   UNL     1       6.780   5.129  18.620  0.00  0.00    +0.000 A 
ATOM     16  O   UNL     1       7.027   5.365  19.794  0.00  0.00    +0.000 OA
ATOM     17  O   UNL     1       7.769   5.116  17.630  0.00  0.00    +0.000 OA
ATOM     18  C   UNL     1       7.036   4.847  16.488  0.00  0.00    +0.000 A 
ATOM     19  C   UNL     1       7.567   4.746  15.219  0.00  0.00    +0.000 A 
ATOM     20  C   UNL     1       6.681   4.484  14.173  0.00  0.00    +0.000 A 
ATOM     21  C   UNL     1       5.303   4.338  14.422  0.00  0.00    +0.000 A 
ATOM     22  C   UNL     1       4.788   4.446  15.720  0.00  0.00    +0.000 A 
ATOM     23  C   UNL     1       5.685   4.693  16.737  0.00  0.00    +0.000 A 
ENDBRANCH  13  14
ENDBRANCH   2  13
TORSDOF 4
ENDMDL
MODEL 4
REMARK VINA RESULT:      -6.9      1.207      1.723
REMARK  Name = 
REMARK  5 active torsions:
REMARK  status: ('A' for Active; 'I' for Inactive)
REMARK    1  A    between atoms: C_1  and  C_2
REMARK    2  A    between atoms: C_2  and  N_3
REMARK    3  A    between atoms: N_3  and  C_17
REMARK    4  A    between atoms: C_4  and  C_6
REMARK    5  A    between atoms: C_6  and  N_7
REMARK                            x       y       z     vdW  Elec       q    Type
REMARK                         _______ _______ _______ _____ _____    ______ ____
ROOT
ATOM      1  N   UNL     1       2.542   6.329  19.878  0.00  0.00    +0.000 N 
ATOM      2  C   UNL     1       3.537   6.151  18.907  0.00  0.00    +0.000 C 
ATOM      3  O   UNL     1       3.809   7.014  18.061  0.00  0.00    +0.000 OA
ENDROOT
BRANCH   1   4
ATOM      4  C   UNL     1       1.845   7.580  19.926  0.00  0.00    +0.000 A 
ATOM      5  C   UNL     1       1.782   8.397  18.789  0.00  0.00    +0.000 A 
ATOM      6  C   UNL     1       1.168   9.650  18.849  0.00  0.00    +0.000 A 
ATOM      7  C   UNL     1       0.592  10.077  20.039  0.00  0.00    +0.000 A 
ATOM      8  F   UNL     1       0.009  11.281  20.095  0.00  0.00    +0.000 F 
ATOM      9  C   UNL     1       0.623   9.275  21.172  0.00  0.00    +0.000 A 
ATOM     10  C   UNL     1       1.259   8.031  21.119  0.00  0.00    +0.000 A 
ENDBRANCH   1   4
BRANCH   1  12
ATOM     11  C   UNL     1       1.047   4.392  20.363  0.00  0.00    +0.000 C 
ATOM     12  C   UNL     1       2.150   5.312  20.872  0.00  0.00    +0.000 C 
ENDBRANCH   1  12
BRANCH   2  13
ATOM     13  C   UNL     1       4.263   4.804  18.815  0.00  0.00    +0.000 C 
BRANCH  13  14
ATOM     14  N   UNL     1       5.507   4.840  18.084  0.00  0.00    +0.000 N 
ATOM     15  C   UNL     1       6.735   5.153  18.629  0.00  0.00    +0.000 A 
ATOM     16  O   UNL     1       6.953   5.410  19.805  0.00  0.00    +0.000 OA
ATOM     17  O   UNL     1       7.745   5.148  17.660  0.00  0.00    +0.000 OA
ATOM     18  C   UNL     1       7.042   4.848  16.507  0.00  0.00    +0.000 A 
ATOM     19  C   UNL     1       7.602   4.741  15.250  0.00  0.00    +0.000 A 
ATOM     20  C   UNL     1       6.744   4.445  14.190  0.00  0.00    +0.000 A 
ATOM     21  C   UNL     1       5.364   4.272  14.412  0.00  0.00    +0.000 A 
ATOM     22  C   UNL     1       4.820   4.387  15.699  0.00  0.00    +0.000 A 
ATOM     23  C   UNL     1       5.690   4.667  16.730  0.00  0.00    +0.000 A 
ENDBRANCH  13  14
ENDBRANCH   2  13
TORSDOF 4
ENDMDL
MODEL 5
REMARK VINA RESULT:      -6.9      2.350      3.412
REMARK  Name = 
REMARK  5 active torsions:
REMARK  status: ('A' for Active; 'I' for Inactive)
REMARK    1  A    between atoms: C_1  and  C_2
REMARK    2  A    between atoms: C_2  and  N_3
REMARK    3  A    between atoms: N_3  and  C_17
REMARK    4  A    between atoms: C_4  and  C_6
REMARK    5  A    between atoms: C_6  and  N_7
REMARK                            x       y       z     vdW  Elec       q    Type
REMARK                         _______ _______ _______ _____ _____    ______ ____
ROOT
ATOM      1  N   UNL     1       2.920   5.599  18.126  0.00  0.00    +0.000 N 
ATOM      2  C   UNL     1       4.117   5.271  17.475  0.00  0.00    +0.000 C 
ATOM      3  O   UNL     1       4.783   4.268  17.764  0.00  0.00    +0.000 OA
ENDROOT
BRANCH   1   4
ATOM      4  C   UNL     1       2.420   4.712  19.133  0.00  0.00    +0.000 A 
ATOM      5  C   UNL     1       1.440   3.761  18.814  0.00  0.00    +0.000 A 
ATOM      6  C   UNL     1       0.896   2.943  19.806  0.00  0.00    +0.000 A 
ATOM      7  C   UNL     1       1.349   3.055  21.115  0.00  0.00    +0.000 A 
ATOM      8  F   UNL     1       0.821   2.273  22.065  0.00  0.00    +0.000 F 
ATOM      9  C   UNL     1       2.333   3.974  21.451  0.00  0.00    +0.000 A 
ATOM     10  C   UNL     1       2.862   4.810  20.462  0.00  0.00    +0.000 A 
ENDBRANCH   1   4
BRANCH   1  12
ATOM     11  C   UNL     1       2.285   7.875  18.927  0.00  0.00    +0.000 C 
ATOM     12  C   UNL     1       2.121   6.809  17.851  0.00  0.00    +0.000 C 
ENDBRANCH   1  12
BRANCH   2  13
ATOM     13  C   UNL     1       4.688   6.232  16.425  0.00  0.00    +0.000 C 
BRANCH  13  14
ATOM     14  N   UNL     1       5.784   5.697  15.654  0.00  0.00    +0.000 N 
ATOM     15  C   UNL     1       7.117   5.971  15.880  0.00  0.00    +0.000 A 
ATOM     16  O   UNL     1       7.563   6.674  16.776  0.00  0.00    +0.000 OA
ATOM     17  O   UNL     1       7.939   5.340  14.939  0.00  0.00    +0.000 OA
ATOM     18  C   UNL     1       7.019   4.704  14.126  0.00  0.00    +0.000 A 
ATOM     19  C   UNL     1       7.340   3.946  13.019  0.00  0.00    +0.000 A 
ATOM     20  C   UNL     1       6.284   3.385  12.299  0.00  0.00    +0.000 A 
ATOM     21  C   UNL     1       4.950   3.602  12.698  0.00  0.00    +0.000 A 
ATOM     22  C   UNL     1       4.651   4.378  13.826  0.00  0.00    +0.000 A 
ATOM     23  C   UNL     1       5.712   4.910  14.526  0.00  0.00    +0.000 A 
ENDBRANCH  13  14
ENDBRANCH   2  13
TORSDOF 4
ENDMDL
MODEL 6
REMARK VINA RESULT:      -6.9      1.350      1.850
REMARK  Name = 
REMARK  5 active torsions:
REMARK  status: ('A' for Active; 'I' for Inactive)
REMARK    1  A    between atoms: C_1  and  C_2
REMARK    2  A    between atoms: C_2  and  N_3
REMARK    3  A    between atoms: N_3  and  C_17
REMARK    4  A    between atoms: C_4  and  C_6
REMARK    5  A    between atoms: C_6  and  N_7
REMARK                            x       y       z     vdW  Elec       q    Type
REMARK                         _______ _______ _______ _____ _____    ______ ____
ROOT
ATOM      1  N   UNL     1       3.218   5.602  18.155  0.00  0.00    +0.000 N 
ATOM      2  C   UNL     1       4.236   5.713  17.198  0.00  0.00    +0.000 C 
ATOM      3  O   UNL     1       4.545   6.789  16.671  0.00  0.00    +0.000 OA
ENDROOT
BRANCH   1   4
ATOM      4  C   UNL     1       2.540   6.791  18.578  0.00  0.00    +0.000 A 
ATOM      5  C   UNL     1       2.220   7.790  17.647  0.00  0.00    +0.000 A 
ATOM      6  C   UNL     1       1.626   8.983  18.064  0.00  0.00    +0.000 A 
ATOM      7  C   UNL     1       1.327   9.170  19.408  0.00  0.00    +0.000 A 
ATOM      8  F   UNL     1       0.764  10.318  19.805  0.00  0.00    +0.000 F 
ATOM      9  C   UNL     1       1.617   8.187  20.344  0.00  0.00    +0.000 A 
ATOM     10  C   UNL     1       2.233   7.002  19.931  0.00  0.00    +0.000 A 
ENDBRANCH   1   4
BRANCH   1  12
ATOM     11  C   UNL     1       1.509   3.783  18.137  0.00  0.00    +0.000 C 
ATOM     12  C   UNL     1       2.781   4.335  18.771  0.00  0.00    +0.000 C 
ENDBRANCH   1  12
BRANCH   2  13
ATOM     13  C   UNL     1       4.941   4.444  16.703  0.00  0.00    +0.000 C 
BRANCH  13  14
ATOM     14  N   UNL     1       5.997   4.678  15.748  0.00  0.00    +0.000 N 
ATOM     15  C   UNL     1       7.150   5.391  16.003  0.00  0.00    +0.000 A 
ATOM     16  O   UNL     1       7.458   5.898  17.073  0.00  0.00    +0.000 OA
ATOM     17  O   UNL     1       7.961   5.483  14.866  0.00  0.00    +0.000 OA
ATOM     18  C   UNL     1       7.210   4.813  13.916  0.00  0.00    +0.000 A 
ATOM     19  C   UNL     1       7.582   4.640  12.599  0.00  0.00    +0.000 A 
ATOM     20  C   UNL     1       6.698   3.949  11.769  0.00  0.00    +0.000 A 
ATOM     21  C   UNL     1       5.476   3.461  12.273  0.00  0.00    +0.000 A 
ATOM     22  C   UNL     1       5.121   3.651  13.616  0.00  0.00    +0.000 A 
ATOM     23  C   UNL     1       6.017   4.326  14.416  0.00  0.00    +0.000 A 
ENDBRANCH  13  14
ENDBRANCH   2  13
TORSDOF 4
ENDMDL
MODEL 7
REMARK VINA RESULT:      -6.7      2.403      3.401
REMARK  Name = 
REMARK  5 active torsions:
REMARK  status: ('A' for Active; 'I' for Inactive)
REMARK    1  A    between atoms: C_1  and  C_2
REMARK    2  A    between atoms: C_2  and  N_3
REMARK    3  A    between atoms: N_3  and  C_17
REMARK    4  A    between atoms: C_4  and  C_6
REMARK    5  A    between atoms: C_6  and  N_7
REMARK                            x       y       z     vdW  Elec       q    Type
REMARK                         _______ _______ _______ _____ _____    ______ ____
ROOT
ATOM      1  N   UNL     1       2.869   5.613  18.073  0.00  0.00    +0.000 N 
ATOM      2  C   UNL     1       4.105   5.315  17.483  0.00  0.00    +0.000 C 
ATOM      3  O   UNL     1       4.802   4.354  17.837  0.00  0.00    +0.000 OA
ENDROOT
BRANCH   1   4
ATOM      4  C   UNL     1       2.368   4.742  19.095  0.00  0.00    +0.000 A 
ATOM      5  C   UNL     1       2.687   4.974  20.440  0.00  0.00    +0.000 A 
ATOM      6  C   UNL     1       2.263   4.087  21.432  0.00  0.00    +0.000 A 
ATOM      7  C   UNL     1       1.497   2.981  21.085  0.00  0.00    +0.000 A 
ATOM      8  F   UNL     1       1.097   2.130  22.038  0.00  0.00    +0.000 F 
ATOM      9  C   UNL     1       1.151   2.743  19.762  0.00  0.00    +0.000 A 
ATOM     10  C   UNL     1       1.595   3.617  18.765  0.00  0.00    +0.000 A 
ENDBRANCH   1   4
BRANCH   1  12
ATOM     11  C   UNL     1       2.403   8.026  18.503  0.00  0.00    +0.000 C 
ATOM     12  C   UNL     1       2.029   6.773  17.720  0.00  0.00    +0.000 C 
ENDBRANCH   1  12
BRANCH   2  13
ATOM     13  C   UNL     1       4.675   6.260  16.419  0.00  0.00    +0.000 C 
BRANCH  13  14
ATOM     14  N   UNL     1       5.767   5.712  15.652  0.00  0.00    +0.000 N 
ATOM     15  C   UNL     1       7.102   5.988  15.866  0.00  0.00    +0.000 A 
ATOM     16  O   UNL     1       7.552   6.705  16.748  0.00  0.00    +0.000 OA
ATOM     17  O   UNL     1       7.918   5.342  14.931  0.00  0.00    +0.000 OA
ATOM     18  C   UNL     1       6.993   4.693  14.133  0.00  0.00    +0.000 A 
ATOM     19  C   UNL     1       7.307   3.917  13.037  0.00  0.00    +0.000 A 
ATOM     20  C   UNL     1       6.247   3.346  12.331  0.00  0.00    +0.000 A 
ATOM     21  C   UNL     1       4.916   3.570  12.734  0.00  0.00    +0.000 A 
ATOM     22  C   UNL     1       4.623   4.365  13.850  0.00  0.00    +0.000 A 
ATOM     23  C   UNL     1       5.688   4.907  14.536  0.00  0.00    +0.000 A 
ENDBRANCH  13  14
ENDBRANCH   2  13
TORSDOF 4
ENDMDL
MODEL 8
REMARK VINA RESULT:      -6.7      3.467      7.521
REMARK  Name = 
REMARK  5 active torsions:
REMARK  status: ('A' for Active; 'I' for Inactive)
REMARK    1  A    between atoms: C_1  and  C_2
REMARK    2  A    between atoms: C_2  and  N_3
REMARK    3  A    between atoms: N_3  and  C_17
REMARK    4  A    between atoms: C_4  and  C_6
REMARK    5  A    between atoms: C_6  and  N_7
REMARK                            x       y       z     vdW  Elec       q    Type
REMARK                         _______ _______ _______ _____ _____    ______ ____
ROOT
ATOM      1  N   UNL     1       2.572   5.840  19.883  0.00  0.00    +0.000 N 
ATOM      2  C   UNL     1       2.072   7.144  19.766  0.00  0.00    +0.000 C 
ATOM      3  O   UNL     1       2.518   7.962  18.951  0.00  0.00    +0.000 OA
ENDROOT
BRANCH   1   4
ATOM      4  C   UNL     1       3.609   5.420  18.989  0.00  0.00    +0.000 A 
ATOM      5  C   UNL     1       3.291   4.973  17.698  0.00  0.00    +0.000 A 
ATOM      6  C   UNL     1       4.289   4.493  16.848  0.00  0.00    +0.000 A 
ATOM      7  C   UNL     1       5.611   4.483  17.276  0.00  0.00    +0.000 A 
ATOM      8  F   UNL     1       6.564   4.016  16.461  0.00  0.00    +0.000 F 
ATOM      9  C   UNL     1       5.952   4.939  18.542  0.00  0.00    +0.000 A 
ATOM     10  C   UNL     1       4.950   5.398  19.402  0.00  0.00    +0.000 A 
ENDBRANCH   1   4
BRANCH   1  12
ATOM     11  C   UNL     1       0.979   3.974  20.338  0.00  0.00    +0.000 C 
ATOM     12  C   UNL     1       2.106   4.849  20.872  0.00  0.00    +0.000 C 
ENDBRANCH   1  12
BRANCH   2  13
ATOM     13  C   UNL     1       0.992   7.623  20.744  0.00  0.00    +0.000 C 
BRANCH  13  14
ATOM     14  N   UNL     1       0.849   9.057  20.826  0.00  0.00    +0.000 N 
ATOM     15  C   UNL     1       1.305   9.839  21.868  0.00  0.00    +0.000 A 
ATOM     16  O   UNL     1       1.918   9.439  22.848  0.00  0.00    +0.000 OA
ATOM     17  O   UNL     1       0.978  11.187  21.682  0.00  0.00    +0.000 OA
ATOM     18  C   UNL     1       0.276  11.156  20.490  0.00  0.00    +0.000 A 
ATOM     19  C   UNL     1      -0.282  12.259  19.878  0.00  0.00    +0.000 A 
ATOM     20  C   UNL     1      -0.971  12.048  18.683  0.00  0.00    +0.000 A 
ATOM     21  C   UNL     1      -1.087  10.752  18.142  0.00  0.00    +0.000 A 
ATOM     22  C   UNL     1      -0.512   9.648  18.784  0.00  0.00    +0.000 A 
ATOM     23  C   UNL     1       0.174   9.885  19.956  0.00  0.00    +0.000 A 
ENDBRANCH  13  14
ENDBRANCH   2  13
TORSDOF 4
ENDMDL
MODEL 9
REMARK VINA RESULT:      -6.7      3.435      7.447
REMARK  Name = 
REMARK  5 active torsions:
REMARK  status: ('A' for Active; 'I' for Inactive)
REMARK    1  A    between atoms: C_1  and  C_2
REMARK    2  A    between atoms: C_2  and  N_3
REMARK    3  A    between atoms: N_3  and  C_17
REMARK    4  A    between atoms: C_4  and  C_6
REMARK    5  A    between atoms: C_6  and  N_7
REMARK                            x       y       z     vdW  Elec       q    Type
REMARK                         _______ _______ _______ _____ _____    ______ ____
ROOT
ATOM      1  N   UNL     1       2.562   5.778  19.910  0.00  0.00    +0.000 N 
ATOM      2  C   UNL     1       2.085   7.091  19.788  0.00  0.00    +0.000 C 
ATOM      3  O   UNL     1       2.550   7.899  18.974  0.00  0.00    +0.000 OA
ENDROOT
BRANCH   1   4
ATOM      4  C   UNL     1       3.597   5.339  19.021  0.00  0.00    +0.000 A 
ATOM      5  C   UNL     1       4.939   5.378  19.426  0.00  0.00    +0.000 A 
ATOM      6  C   UNL     1       5.957   5.020  18.540  0.00  0.00    +0.000 A 
ATOM      7  C   UNL     1       5.634   4.598  17.256  0.00  0.00    +0.000 A 
ATOM      8  F   UNL     1       6.613   4.262  16.407  0.00  0.00    +0.000 F 
ATOM      9  C   UNL     1       4.311   4.531  16.840  0.00  0.00    +0.000 A 
ATOM     10  C   UNL     1       3.293   4.912  17.719  0.00  0.00    +0.000 A 
ENDBRANCH   1   4
BRANCH   1  12
ATOM     11  C   UNL     1       0.952   3.924  20.350  0.00  0.00    +0.000 C 
ATOM     12  C   UNL     1       2.074   4.797  20.898  0.00  0.00    +0.000 C 
ENDBRANCH   1  12
BRANCH   2  13
ATOM     13  C   UNL     1       1.008   7.590  20.759  0.00  0.00    +0.000 C 
BRANCH  13  14
ATOM     14  N   UNL     1       0.881   9.026  20.828  0.00  0.00    +0.000 N 
ATOM     15  C   UNL     1       1.335   9.811  21.868  0.00  0.00    +0.000 A 
ATOM     16  O   UNL     1       1.934   9.413  22.857  0.00  0.00    +0.000 OA
ATOM     17  O   UNL     1       1.025  11.161  21.668  0.00  0.00    +0.000 OA
ATOM     18  C   UNL     1       0.334  11.128  20.469  0.00  0.00    +0.000 A 
ATOM     19  C   UNL     1      -0.206  12.232  19.843  0.00  0.00    +0.000 A 
ATOM     20  C   UNL     1      -0.886  12.019  18.643  0.00  0.00    +0.000 A 
ATOM     21  C   UNL     1      -1.011  10.720  18.112  0.00  0.00    +0.000 A 
ATOM     22  C   UNL     1      -0.454   9.614  18.769  0.00  0.00    +0.000 A 
ATOM     23  C   UNL     1       0.223   9.854  19.945  0.00  0.00    +0.000 A 
ENDBRANCH  13  14
ENDBRANCH   2  13
TORSDOF 4
ENDMDL
