MODEL 1
REMARK VINA RESULT:      -6.2      0.000      0.000
REMARK  Name = 
REMARK  7 active torsions:
REMARK  status: ('A' for Active; 'I' for Inactive)
REMARK    1  A    between atoms: C_1  and  C_2
REMARK    2  A    between atoms: C_2  and  C_3
REMARK    3  A    between atoms: C_6  and  C_7
REMARK    4  A    between atoms: C_7  and  C_9
REMARK    5  A    between atoms: C_9  and  C_10
REMARK    6  A    between atoms: C_10  and  C_11
REMARK    7  A    between atoms: C_11  and  O_13
REMARK                            x       y       z     vdW  Elec       q    Type
REMARK                         _______ _______ _______ _____ _____    ______ ____
ROOT
ATOM      1  C   UNL     1       2.239   4.018  19.850  0.00  0.00    +0.000 C 
ATOM      2  C   UNL     1       3.398   3.023  19.685  0.00  0.00    +0.000 C 
ATOM      3  C   UNL     1       4.506   3.560  18.769  0.00  0.00    +0.000 C 
ATOM      4  C   UNL     1       3.984   3.997  17.396  0.00  0.00    +0.000 C 
ATOM      5  C   UNL     1       2.809   4.970  17.558  0.00  0.00    +0.000 C 
ATOM      6  C   UNL     1       1.704   4.406  18.454  0.00  0.00    +0.000 C 
ENDROOT
BRANCH   1   8
ATOM      7  C   UNL     1       1.518   2.489  21.842  0.00  0.00    +0.000 C 
ATOM      8  C   UNL     1       1.101   3.467  20.743  0.00  0.00    +0.000 C 
ENDBRANCH   1   8
BRANCH   4   9
ATOM      9  C   UNL     1       5.123   4.629  16.583  0.00  0.00    +0.000 C 
ATOM     10  O   UNL     1       5.624   4.081  15.592  0.00  0.00    +0.000 OA
BRANCH   9  11
ATOM     11  C   UNL     1       5.623   5.997  17.019  0.00  0.00    +0.000 C 
BRANCH  11  12
ATOM     12  C   UNL     1       7.138   6.036  17.117  0.00  0.00    +0.000 C 
BRANCH  12  13
ATOM     13  C   UNL     1       7.649   5.117  18.203  0.00  0.00    +0.000 C 
ATOM     14  O   UNL     1       7.526   5.349  19.392  0.00  0.00    +0.000 OA
BRANCH  13  15
ATOM     15  O   UNL     1       8.304   4.039  17.723  0.00  0.00    +0.000 OA
ATOM     16  H   UNL     1       8.970   4.254  17.034  0.00  0.00    +0.000 HD
ENDBRANCH  13  15
ENDBRANCH  12  13
ENDBRANCH  11  12
ENDBRANCH   9  11
ENDBRANCH   4   9
TORSDOF 6
ENDMDL
MODEL 2
REMARK VINA RESULT:      -6.2      3.085      5.799
REMARK  Name = 
REMARK  7 active torsions:
REMARK  status: ('A' for Active; 'I' for Inactive)
REMARK    1  A    between atoms: C_1  and  C_2
REMARK    2  A    between atoms: C_2  and  C_3
REMARK    3  A    between atoms: C_6  and  C_7
REMARK    4  A    between atoms: C_7  and  C_9
REMARK    5  A    between atoms: C_9  and  C_10
REMARK    6  A    between atoms: C_10  and  C_11
REMARK    7  A    between atoms: C_11  and  O_13
REMARK                            x       y       z     vdW  Elec       q    Type
REMARK                         _______ _______ _______ _____ _____    ______ ____
ROOT
ATOM      1  C   UNL     1       6.121   6.052  17.778  0.00  0.00    +0.000 C 
ATOM      2  C   UNL     1       4.920   6.966  17.494  0.00  0.00    +0.000 C 
ATOM      3  C   UNL     1       3.603   6.391  18.032  0.00  0.00    +0.000 C 
ATOM      4  C   UNL     1       3.321   4.973  17.523  0.00  0.00    +0.000 C 
ATOM      5  C   UNL     1       4.529   4.065  17.782  0.00  0.00    +0.000 C 
ATOM      6  C   UNL     1       5.827   4.644  17.215  0.00  0.00    +0.000 C 
ENDROOT
BRANCH   1   8
ATOM      7  C   UNL     1       7.847   8.010  17.670  0.00  0.00    +0.000 C 
ATOM      8  C   UNL     1       7.446   6.609  17.205  0.00  0.00    +0.000 C 
ENDBRANCH   1   8
BRANCH   4   9
ATOM      9  C   UNL     1       2.055   4.422  18.193  0.00  0.00    +0.000 C 
ATOM     10  O   UNL     1       1.321   3.583  17.654  0.00  0.00    +0.000 OA
BRANCH   9  11
ATOM     11  C   UNL     1       1.721   4.926  19.589  0.00  0.00    +0.000 C 
BRANCH  11  12
ATOM     12  C   UNL     1       2.363   4.068  20.664  0.00  0.00    +0.000 C 
BRANCH  12  13
ATOM     13  C   UNL     1       1.390   3.052  21.219  0.00  0.00    +0.000 C 
ATOM     14  O   UNL     1       1.581   2.431  22.249  0.00  0.00    +0.000 OA
BRANCH  13  15
ATOM     15  O   UNL     1       0.312   2.862  20.430  0.00  0.00    +0.000 OA
ATOM     16  H   UNL     1       0.179   3.571  19.763  0.00  0.00    +0.000 HD
ENDBRANCH  13  15
ENDBRANCH  12  13
ENDBRANCH  11  12
ENDBRANCH   9  11
ENDBRANCH   4   9
TORSDOF 6
ENDMDL
MODEL 3
REMARK VINA RESULT:      -6.2      1.467      2.939
REMARK  Name = 
REMARK  7 active torsions:
REMARK  status: ('A' for Active; 'I' for Inactive)
REMARK    1  A    between atoms: C_1  and  C_2
REMARK    2  A    between atoms: C_2  and  C_3
REMARK    3  A    between atoms: C_6  and  C_7
REMARK    4  A    between atoms: C_7  and  C_9
REMARK    5  A    between atoms: C_9  and  C_10
REMARK    6  A    between atoms: C_10  and  C_11
REMARK    7  A    between atoms: C_11  and  O_13
REMARK                            x       y       z     vdW  Elec       q    Type
REMARK                         _______ _______ _______ _____ _____    ______ ____
ROOT
ATOM      1  C   UNL     1       2.704   3.918  18.225  0.00  0.00    +0.000 C 
ATOM      2  C   UNL     1       2.886   5.437  18.372  0.00  0.00    +0.000 C 
ATOM      3  C   UNL     1       4.361   5.857  18.336  0.00  0.00    +0.000 C 
ATOM      4  C   UNL     1       5.215   5.120  19.373  0.00  0.00    +0.000 C 
ATOM      5  C   UNL     1       5.016   3.605  19.246  0.00  0.00    +0.000 C 
ATOM      6  C   UNL     1       3.540   3.203  19.309  0.00  0.00    +0.000 C 
ENDROOT
BRANCH   1   8
ATOM      7  C   UNL     1       0.715   3.030  19.667  0.00  0.00    +0.000 C 
ATOM      8  C   UNL     1       1.220   3.484  18.297  0.00  0.00    +0.000 C 
ENDBRANCH   1   8
BRANCH   4   9
ATOM      9  C   UNL     1       6.691   5.504  19.199  0.00  0.00    +0.000 C 
ATOM     10  O   UNL     1       7.500   5.503  20.136  0.00  0.00    +0.000 OA
BRANCH   9  11
ATOM     11  C   UNL     1       7.162   5.876  17.801  0.00  0.00    +0.000 C 
BRANCH  11  12
ATOM     12  C   UNL     1       7.560   4.650  16.998  0.00  0.00    +0.000 C 
BRANCH  12  13
ATOM     13  C   UNL     1       6.834   4.592  15.673  0.00  0.00    +0.000 C 
ATOM     14  O   UNL     1       5.779   4.006  15.510  0.00  0.00    +0.000 OA
BRANCH  13  15
ATOM     15  O   UNL     1       7.500   5.210  14.675  0.00  0.00    +0.000 OA
ATOM     16  H   UNL     1       7.683   4.631  13.903  0.00  0.00    +0.000 HD
ENDBRANCH  13  15
ENDBRANCH  12  13
ENDBRANCH  11  12
ENDBRANCH   9  11
ENDBRANCH   4   9
TORSDOF 6
ENDMDL
MODEL 4
REMARK VINA RESULT:      -6.1      1.188      1.680
REMARK  Name = 
REMARK  7 active torsions:
REMARK  status: ('A' for Active; 'I' for Inactive)
REMARK    1  A    between atoms: C_1  and  C_2
REMARK    2  A    between atoms: C_2  and  C_3
REMARK    3  A    between atoms: C_6  and  C_7
REMARK    4  A    between atoms: C_7  and  C_9
REMARK    5  A    between atoms: C_9  and  C_10
REMARK    6  A    between atoms: C_10  and  C_11
REMARK    7  A    between atoms: C_11  and  O_13
REMARK                            x       y       z     vdW  Elec       q    Type
REMARK                         _______ _______ _______ _____ _____    ______ ____
ROOT
ATOM      1  C   UNL     1       3.187   3.383  19.140  0.00  0.00    +0.000 C 
ATOM      2  C   UNL     1       3.473   2.956  17.692  0.00  0.00    +0.000 C 
ATOM      3  C   UNL     1       4.497   3.867  17.002  0.00  0.00    +0.000 C 
ATOM      4  C   UNL     1       4.104   5.347  17.049  0.00  0.00    +0.000 C 
ATOM      5  C   UNL     1       3.792   5.770  18.489  0.00  0.00    +0.000 C 
ATOM      6  C   UNL     1       2.750   4.864  19.151  0.00  0.00    +0.000 C 
ENDROOT
BRANCH   1   8
ATOM      7  C   UNL     1       0.731   3.096  19.984  0.00  0.00    +0.000 C 
ATOM      8  C   UNL     1       2.127   2.490  19.828  0.00  0.00    +0.000 C 
ENDBRANCH   1   8
BRANCH   4   9
ATOM      9  C   UNL     1       5.227   6.203  16.447  0.00  0.00    +0.000 C 
ATOM     10  O   UNL     1       5.462   6.244  15.232  0.00  0.00    +0.000 OA
BRANCH   9  11
ATOM     11  C   UNL     1       6.057   7.047  17.401  0.00  0.00    +0.000 C 
BRANCH  11  12
ATOM     12  C   UNL     1       7.505   6.591  17.441  0.00  0.00    +0.000 C 
BRANCH  12  13
ATOM     13  C   UNL     1       7.626   5.168  17.937  0.00  0.00    +0.000 C 
ATOM     14  O   UNL     1       8.046   4.251  17.254  0.00  0.00    +0.000 OA
BRANCH  13  15
ATOM     15  O   UNL     1       7.170   5.003  19.197  0.00  0.00    +0.000 OA
ATOM     16  H   UNL     1       7.881   4.894  19.865  0.00  0.00    +0.000 HD
ENDBRANCH  13  15
ENDBRANCH  12  13
ENDBRANCH  11  12
ENDBRANCH   9  11
ENDBRANCH   4   9
TORSDOF 6
ENDMDL
MODEL 5
REMARK VINA RESULT:      -6.1      1.482      1.926
REMARK  Name = 
REMARK  7 active torsions:
REMARK  status: ('A' for Active; 'I' for Inactive)
REMARK    1  A    between atoms: C_1  and  C_2
REMARK    2  A    between atoms: C_2  and  C_3
REMARK    3  A    between atoms: C_6  and  C_7
REMARK    4  A    between atoms: C_7  and  C_9
REMARK    5  A    between atoms: C_9  and  C_10
REMARK    6  A    between atoms: C_10  and  C_11
REMARK    7  A    between atoms: C_11  and  O_13
REMARK                            x       y       z     vdW  Elec       q    Type
REMARK                         _______ _______ _______ _____ _____    ______ ____
ROOT
ATOM      1  C   UNL     1       1.565   4.133  19.414  0.00  0.00    +0.000 C 
ATOM      2  C   UNL     1       2.332   5.173  20.245  0.00  0.00    +0.000 C 
ATOM      3  C   UNL     1       3.114   6.163  19.370  0.00  0.00    +0.000 C 
ATOM      4  C   UNL     1       4.062   5.468  18.387  0.00  0.00    +0.000 C 
ATOM      5  C   UNL     1       3.304   4.410  17.575  0.00  0.00    +0.000 C 
ATOM      6  C   UNL     1       2.552   3.418  18.465  0.00  0.00    +0.000 C 
ENDROOT
BRANCH   1   8
ATOM      7  C   UNL     1       1.505   2.671  21.578  0.00  0.00    +0.000 C 
ATOM      8  C   UNL     1       0.805   3.110  20.291  0.00  0.00    +0.000 C 
ENDBRANCH   1   8
BRANCH   4   9
ATOM      9  C   UNL     1       4.717   6.511  17.471  0.00  0.00    +0.000 C 
ATOM     10  O   UNL     1       4.168   7.579  17.169  0.00  0.00    +0.000 OA
BRANCH   9  11
ATOM     11  C   UNL     1       6.112   6.208  16.945  0.00  0.00    +0.000 C 
BRANCH  11  12
ATOM     12  C   UNL     1       7.187   6.610  17.939  0.00  0.00    +0.000 C 
BRANCH  12  13
ATOM     13  C   UNL     1       7.699   5.418  18.716  0.00  0.00    +0.000 C 
ATOM     14  O   UNL     1       8.031   4.369  18.196  0.00  0.00    +0.000 OA
BRANCH  13  15
ATOM     15  O   UNL     1       7.700   5.615  20.052  0.00  0.00    +0.000 OA
ATOM     16  H   UNL     1       8.449   5.182  20.516  0.00  0.00    +0.000 HD
ENDBRANCH  13  15
ENDBRANCH  12  13
ENDBRANCH  11  12
ENDBRANCH   9  11
ENDBRANCH   4   9
TORSDOF 6
ENDMDL
MODEL 6
REMARK VINA RESULT:      -6.1      1.832      2.434
REMARK  Name = 
REMARK  7 active torsions:
REMARK  status: ('A' for Active; 'I' for Inactive)
REMARK    1  A    between atoms: C_1  and  C_2
REMARK    2  A    between atoms: C_2  and  C_3
REMARK    3  A    between atoms: C_6  and  C_7
REMARK    4  A    between atoms: C_7  and  C_9
REMARK    5  A    between atoms: C_9  and  C_10
REMARK    6  A    between atoms: C_10  and  C_11
REMARK    7  A    between atoms: C_11  and  O_13
REMARK                            x       y       z     vdW  Elec       q    Type
REMARK                         _______ _______ _______ _____ _____    ______ ____
ROOT
ATOM      1  C   UNL     1       1.700   4.157  18.803  0.00  0.00    +0.000 C 
ATOM      2  C   UNL     1       2.352   5.306  19.587  0.00  0.00    +0.000 C 
ATOM      3  C   UNL     1       3.313   6.135  18.724  0.00  0.00    +0.000 C 
ATOM      4  C   UNL     1       4.389   5.281  18.044  0.00  0.00    +0.000 C 
ATOM      5  C   UNL     1       3.742   4.118  17.282  0.00  0.00    +0.000 C 
ATOM      6  C   UNL     1       2.807   3.289  18.166  0.00  0.00    +0.000 C 
ENDROOT
BRANCH   1   8
ATOM      7  C   UNL     1       1.301   2.875  21.044  0.00  0.00    +0.000 C 
ATOM      8  C   UNL     1       0.758   3.295  19.677  0.00  0.00    +0.000 C 
ENDBRANCH   1   8
BRANCH   4   9
ATOM      9  C   UNL     1       5.235   6.157  17.110  0.00  0.00    +0.000 C 
ATOM     10  O   UNL     1       4.738   6.962  16.311  0.00  0.00    +0.000 OA
BRANCH   9  11
ATOM     11  C   UNL     1       6.748   6.031  17.206  0.00  0.00    +0.000 C 
BRANCH  11  12
ATOM     12  C   UNL     1       7.234   4.691  16.684  0.00  0.00    +0.000 C 
BRANCH  12  13
ATOM     13  C   UNL     1       7.003   4.558  15.195  0.00  0.00    +0.000 C 
ATOM     14  O   UNL     1       6.297   3.699  14.699  0.00  0.00    +0.000 OA
BRANCH  13  15
ATOM     15  O   UNL     1       7.702   5.453  14.466  0.00  0.00    +0.000 OA
ATOM     16  H   UNL     1       7.360   5.575  13.554  0.00  0.00    +0.000 HD
ENDBRANCH  13  15
ENDBRANCH  12  13
ENDBRANCH  11  12
ENDBRANCH   9  11
ENDBRANCH   4   9
TORSDOF 6
ENDMDL
MODEL 7
REMARK VINA RESULT:      -6.1      0.804      1.224
REMARK  Name = 
REMARK  7 active torsions:
REMARK  status: ('A' for Active; 'I' for Inactive)
REMARK    1  A    between atoms: C_1  and  C_2
REMARK    2  A    between atoms: C_2  and  C_3
REMARK    3  A    between atoms: C_6  and  C_7
REMARK    4  A    between atoms: C_7  and  C_9
REMARK    5  A    between atoms: C_9  and  C_10
REMARK    6  A    between atoms: C_10  and  C_11
REMARK    7  A    between atoms: C_11  and  O_13
REMARK                            x       y       z     vdW  Elec       q    Type
REMARK                         _______ _______ _______ _____ _____    ______ ____
ROOT
ATOM      1  C   UNL     1       1.623   3.667  18.925  0.00  0.00    +0.000 C 
ATOM      2  C   UNL     1       2.330   4.951  19.386  0.00  0.00    +0.000 C 
ATOM      3  C   UNL     1       3.264   5.524  18.311  0.00  0.00    +0.000 C 
ATOM      4  C   UNL     1       4.292   4.504  17.811  0.00  0.00    +0.000 C 
ATOM      5  C   UNL     1       3.591   3.212  17.375  0.00  0.00    +0.000 C 
ATOM      6  C   UNL     1       2.685   2.643  18.469  0.00  0.00    +0.000 C 
ENDROOT
BRANCH   1   8
ATOM      7  C   UNL     1       1.394   2.655  21.323  0.00  0.00    +0.000 C 
ATOM      8  C   UNL     1       0.708   3.064  20.018  0.00  0.00    +0.000 C 
ENDBRANCH   1   8
BRANCH   4   9
ATOM      9  C   UNL     1       5.109   5.111  16.661  0.00  0.00    +0.000 C 
ATOM     10  O   UNL     1       5.211   4.570  15.552  0.00  0.00    +0.000 OA
BRANCH   9  11
ATOM     11  C   UNL     1       5.793   6.446  16.911  0.00  0.00    +0.000 C 
BRANCH  11  12
ATOM     12  C   UNL     1       7.296   6.287  17.063  0.00  0.00    +0.000 C 
BRANCH  12  13
ATOM     13  C   UNL     1       7.643   5.233  18.090  0.00  0.00    +0.000 C 
ATOM     14  O   UNL     1       7.533   5.402  19.290  0.00  0.00    +0.000 OA
BRANCH  13  15
ATOM     15  O   UNL     1       8.140   4.103  17.544  0.00  0.00    +0.000 OA
ATOM     16  H   UNL     1       7.541   3.682  16.889  0.00  0.00    +0.000 HD
ENDBRANCH  13  15
ENDBRANCH  12  13
ENDBRANCH  11  12
ENDBRANCH   9  11
ENDBRANCH   4   9
TORSDOF 6
ENDMDL
MODEL 8
REMARK VINA RESULT:      -6.1      1.536      1.785
REMARK  Name = 
REMARK  7 active torsions:
REMARK  status: ('A' for Active; 'I' for Inactive)
REMARK    1  A    between atoms: C_1  and  C_2
REMARK    2  A    between atoms: C_2  and  C_3
REMARK    3  A    between atoms: C_6  and  C_7
REMARK    4  A    between atoms: C_7  and  C_9
REMARK    5  A    between atoms: C_9  and  C_10
REMARK    6  A    between atoms: C_10  and  C_11
REMARK    7  A    between atoms: C_11  and  O_13
REMARK                            x       y       z     vdW  Elec       q    Type
REMARK                         _______ _______ _______ _____ _____    ______ ____
ROOT
ATOM      1  C   UNL     1       3.030   3.375  18.981  0.00  0.00    +0.000 C 
ATOM      2  C   UNL     1       3.693   2.724  17.757  0.00  0.00    +0.000 C 
ATOM      3  C   UNL     1       4.796   3.601  17.151  0.00  0.00    +0.000 C 
ATOM      4  C   UNL     1       4.310   5.012  16.802  0.00  0.00    +0.000 C 
ATOM      5  C   UNL     1       3.625   5.654  18.014  0.00  0.00    +0.000 C 
ATOM      6  C   UNL     1       2.511   4.775  18.588  0.00  0.00    +0.000 C 
ENDROOT
BRANCH   1   8
ATOM      7  C   UNL     1       0.612   2.414  18.740  0.00  0.00    +0.000 C 
ATOM      8  C   UNL     1       1.891   2.511  19.574  0.00  0.00    +0.000 C 
ENDBRANCH   1   8
BRANCH   4   9
ATOM      9  C   UNL     1       5.491   5.863  16.313  0.00  0.00    +0.000 C 
ATOM     10  O   UNL     1       5.352   6.838  15.563  0.00  0.00    +0.000 OA
BRANCH   9  11
ATOM     11  C   UNL     1       6.881   5.487  16.806  0.00  0.00    +0.000 C 
BRANCH  11  12
ATOM     12  C   UNL     1       7.324   6.367  17.961  0.00  0.00    +0.000 C 
BRANCH  12  13
ATOM     13  C   UNL     1       7.332   5.606  19.268  0.00  0.00    +0.000 C 
ATOM     14  O   UNL     1       6.343   5.079  19.745  0.00  0.00    +0.000 OA
BRANCH  13  15
ATOM     15  O   UNL     1       8.534   5.617  19.882  0.00  0.00    +0.000 OA
ATOM     16  H   UNL     1       9.209   6.161  19.421  0.00  0.00    +0.000 HD
ENDBRANCH  13  15
ENDBRANCH  12  13
ENDBRANCH  11  12
ENDBRANCH   9  11
ENDBRANCH   4   9
TORSDOF 6
ENDMDL
MODEL 9
REMARK VINA RESULT:      -6.0      1.506      1.846
REMARK  Name = 
REMARK  7 active torsions:
REMARK  status: ('A' for Active; 'I' for Inactive)
REMARK    1  A    between atoms: C_1  and  C_2
REMARK    2  A    between atoms: C_2  and  C_3
REMARK    3  A    between atoms: C_6  and  C_7
REMARK    4  A    between atoms: C_7  and  C_9
REMARK    5  A    between atoms: C_9  and  C_10
REMARK    6  A    between atoms: C_10  and  C_11
REMARK    7  A    between atoms: C_11  and  O_13
REMARK                            x       y       z     vdW  Elec       q    Type
REMARK                         _______ _______ _______ _____ _____    ______ ____
ROOT
ATOM      1  C   UNL     1       1.587   4.198  19.967  0.00  0.00    +0.000 C 
ATOM      2  C   UNL     1       3.062   4.407  20.346  0.00  0.00    +0.000 C 
ATOM      3  C   UNL     1       3.732   5.507  19.514  0.00  0.00    +0.000 C 
ATOM      4  C   UNL     1       3.602   5.275  18.004  0.00  0.00    +0.000 C 
ATOM      5  C   UNL     1       2.134   5.040  17.627  0.00  0.00    +0.000 C 
ATOM      6  C   UNL     1       1.491   3.921  18.451  0.00  0.00    +0.000 C 
ENDROOT
BRANCH   1   8
ATOM      7  C   UNL     1       1.729   2.493  21.941  0.00  0.00    +0.000 C 
ATOM      8  C   UNL     1       0.916   3.063  20.778  0.00  0.00    +0.000 C 
ENDBRANCH   1   8
BRANCH   4   9
ATOM      9  C   UNL     1       4.190   6.469  17.241  0.00  0.00    +0.000 C 
ATOM     10  O   UNL     1       3.822   7.636  17.434  0.00  0.00    +0.000 OA
BRANCH   9  11
ATOM     11  C   UNL     1       5.288   6.186  16.228  0.00  0.00    +0.000 C 
BRANCH  11  12
ATOM     12  C   UNL     1       6.641   6.021  16.897  0.00  0.00    +0.000 C 
BRANCH  12  13
ATOM     13  C   UNL     1       7.105   4.582  16.864  0.00  0.00    +0.000 C 
ATOM     14  O   UNL     1       8.184   4.214  17.292  0.00  0.00    +0.000 OA
BRANCH  13  15
ATOM     15  O   UNL     1       6.226   3.753  16.262  0.00  0.00    +0.000 OA
ATOM     16  H   UNL     1       5.292   3.906  16.526  0.00  0.00    +0.000 HD
ENDBRANCH  13  15
ENDBRANCH  12  13
ENDBRANCH  11  12
ENDBRANCH   9  11
ENDBRANCH   4   9
TORSDOF 6
ENDMDL
