MODEL 1
REMARK VINA RESULT:      -6.7      0.000      0.000
REMARK  Name = 
REMARK  12 active torsions:
REMARK  status: ('A' for Active; 'I' for Inactive)
REMARK    1  A    between atoms: C_1  and  O_2
REMARK    2  A    between atoms: O_2  and  C_3
REMARK    3  A    between atoms: C_6  and  C_7
REMARK    4  A    between atoms: C_7  and  C_8
REMARK    5  A    between atoms: C_9  and  C_10
REMARK    6  A    between atoms: C_13  and  O_14
REMARK    7  A    between atoms: O_14  and  C_15
REMARK    8  A    between atoms: C_16  and  O_17
REMARK    9  A    between atoms: O_17  and  C_18
REMARK   10  A    between atoms: C_23  and  C_24
REMARK   11  A    between atoms: C_27  and  C_28
REMARK   12  A    between atoms: C_30  and  C_31
REMARK                            x       y       z     vdW  Elec       q    Type
REMARK                         _______ _______ _______ _____ _____    ______ ____
ROOT
ATOM      1  C   UNL     1      -1.131  13.639  20.233  0.00  0.00    +0.000 A 
ATOM      2  C   UNL     1      -2.180  14.363  20.799  0.00  0.00    +0.000 A 
ATOM      3  N   UNL     1      -2.027  15.699  20.558  0.00  0.00    +0.000 NA
ATOM      4  C   UNL     1      -0.891  15.822  19.910  0.00  0.00    +0.000 A 
ATOM      5  C   UNL     1      -0.263  17.001  19.449  0.00  0.00    +0.000 A 
ATOM      6  C   UNL     1       0.932  16.955  18.826  0.00  0.00    +0.000 A 
ATOM      7  C   UNL     1       1.569  18.237  18.353  0.00  0.00    +0.000 C 
ATOM      8  C   UNL     1       1.606  15.661  18.617  0.00  0.00    +0.000 A 
ATOM      9 BR   UNL     1       3.286  15.696  17.752  0.00  0.00    +0.000 Br
ATOM     10  C   UNL     1       1.013  14.507  19.040  0.00  0.00    +0.000 A 
ATOM     11  C   UNL     1       1.668  13.162  18.864  0.00  0.00    +0.000 C 
ATOM     12  N   UNL     1      -0.258  14.596  19.688  0.00  0.00    +0.000 N 
ENDROOT
BRANCH   2  13
ATOM     13  C   UNL     1      -3.328  13.854  21.552  0.00  0.00    +0.000 A 
ATOM     14  C   UNL     1      -3.273  13.786  22.943  0.00  0.00    +0.000 A 
ATOM     15  C   UNL     1      -4.351  13.268  23.670  0.00  0.00    +0.000 A 
ATOM     16  C   UNL     1      -5.512  12.804  23.031  0.00  0.00    +0.000 A 
ATOM     17  C   UNL     1      -5.587  12.863  21.633  0.00  0.00    +0.000 A 
ATOM     18  C   UNL     1      -4.485  13.367  20.923  0.00  0.00    +0.000 A 
BRANCH  16  19
ATOM     19  O   UNL     1      -6.447  12.333  23.916  0.00  0.00    +0.000 OA
ATOM     20  C   UNL     1      -7.534  13.176  24.272  0.00  0.00    +0.000 C 
ENDBRANCH  16  19
BRANCH  17  21
ATOM     21  O   UNL     1      -6.722  12.415  21.010  0.00  0.00    +0.000 OA
ATOM     22  C   UNL     1      -7.567  13.357  20.358  0.00  0.00    +0.000 C 
ENDBRANCH  17  21
ENDBRANCH   2  13
BRANCH   1  23
ATOM     23  C   UNL     1      -0.944  12.155  20.185  0.00  0.00    +0.000 C 
BRANCH  23  27
ATOM     24  C   UNL     1      -2.585  10.140  16.685  0.00  0.00    +0.000 A 
ATOM     25  C   UNL     1      -3.253  11.219  17.246  0.00  0.00    +0.000 A 
ATOM     26  C   UNL     1      -2.730  11.854  18.375  0.00  0.00    +0.000 A 
ATOM     27  C   UNL     1      -1.518  11.440  18.967  0.00  0.00    +0.000 A 
ATOM     28  C   UNL     1      -0.822  10.367  18.371  0.00  0.00    +0.000 A 
ATOM     29  C   UNL     1       0.518   9.876  18.856  0.00  0.00    +0.000 C 
ATOM     30  C   UNL     1      -1.373   9.728  17.243  0.00  0.00    +0.000 A 
BRANCH  24  32
ATOM     31  C   UNL     1      -3.342  10.171  14.437  0.00  0.00    +0.000 C 
ATOM     32  O   UNL     1      -3.000   9.422  15.598  0.00  0.00    +0.000 OA
ENDBRANCH  24  32
ENDBRANCH  23  27
ENDBRANCH   1  23
TORSDOF 6
ENDMDL
MODEL 2
REMARK VINA RESULT:      -6.5      8.277     12.123
REMARK  Name = 
REMARK  12 active torsions:
REMARK  status: ('A' for Active; 'I' for Inactive)
REMARK    1  A    between atoms: C_1  and  O_2
REMARK    2  A    between atoms: O_2  and  C_3
REMARK    3  A    between atoms: C_6  and  C_7
REMARK    4  A    between atoms: C_7  and  C_8
REMARK    5  A    between atoms: C_9  and  C_10
REMARK    6  A    between atoms: C_13  and  O_14
REMARK    7  A    between atoms: O_14  and  C_15
REMARK    8  A    between atoms: C_16  and  O_17
REMARK    9  A    between atoms: O_17  and  C_18
REMARK   10  A    between atoms: C_23  and  C_24
REMARK   11  A    between atoms: C_27  and  C_28
REMARK   12  A    between atoms: C_30  and  C_31
REMARK                            x       y       z     vdW  Elec       q    Type
REMARK                         _______ _______ _______ _____ _____    ______ ____
ROOT
ATOM      1  C   UNL     1       7.677  13.502  22.818  0.00  0.00    +0.000 A 
ATOM      2  C   UNL     1       8.367  12.349  22.441  0.00  0.00    +0.000 A 
ATOM      3  N   UNL     1       8.126  11.334  23.322  0.00  0.00    +0.000 NA
ATOM      4  C   UNL     1       7.354  11.841  24.256  0.00  0.00    +0.000 A 
ATOM      5  C   UNL     1       6.838  11.210  25.410  0.00  0.00    +0.000 A 
ATOM      6  C   UNL     1       6.082  11.891  26.295  0.00  0.00    +0.000 A 
ATOM      7  C   UNL     1       5.554  11.182  27.516  0.00  0.00    +0.000 C 
ATOM      8  C   UNL     1       5.783  13.317  26.069  0.00  0.00    +0.000 A 
ATOM      9 BR   UNL     1       4.733  14.193  27.373  0.00  0.00    +0.000 Br
ATOM     10  C   UNL     1       6.258  13.944  24.954  0.00  0.00    +0.000 A 
ATOM     11  C   UNL     1       5.994  15.402  24.685  0.00  0.00    +0.000 C 
ATOM     12  N   UNL     1       7.047  13.186  24.034  0.00  0.00    +0.000 N 
ENDROOT
BRANCH   2  13
ATOM     13  C   UNL     1       9.240  12.157  21.280  0.00  0.00    +0.000 A 
ATOM     14  C   UNL     1      10.464  12.822  21.213  0.00  0.00    +0.000 A 
ATOM     15  C   UNL     1      11.290  12.673  20.093  0.00  0.00    +0.000 A 
ATOM     16  C   UNL     1      10.920  11.858  19.011  0.00  0.00    +0.000 A 
ATOM     17  C   UNL     1       9.693  11.181  19.060  0.00  0.00    +0.000 A 
ATOM     18  C   UNL     1       8.871  11.362  20.184  0.00  0.00    +0.000 A 
BRANCH  16  19
ATOM     19  O   UNL     1      11.860  11.849  18.014  0.00  0.00    +0.000 OA
ATOM     20  C   UNL     1      11.946  12.971  17.148  0.00  0.00    +0.000 C 
ENDBRANCH  16  19
BRANCH  17  21
ATOM     21  O   UNL     1       9.334  10.382  18.006  0.00  0.00    +0.000 OA
ATOM     22  C   UNL     1       8.389   9.340  18.223  0.00  0.00    +0.000 C 
ENDBRANCH  17  21
ENDBRANCH   2  13
BRANCH   1  23
ATOM     23  C   UNL     1       7.592  14.812  22.101  0.00  0.00    +0.000 C 
BRANCH  23  27
ATOM     24  C   UNL     1       4.793  15.034  18.766  0.00  0.00    +0.000 A 
ATOM     25  C   UNL     1       4.323  14.905  20.066  0.00  0.00    +0.000 A 
ATOM     26  C   UNL     1       5.223  14.822  21.130  0.00  0.00    +0.000 A 
ATOM     27  C   UNL     1       6.619  14.880  20.930  0.00  0.00    +0.000 A 
ATOM     28  C   UNL     1       7.093  15.049  19.612  0.00  0.00    +0.000 A 
ATOM     29  C   UNL     1       8.552  15.203  19.269  0.00  0.00    +0.000 C 
ATOM     30  C   UNL     1       6.170  15.114  18.550  0.00  0.00    +0.000 A 
BRANCH  24  32
ATOM     31  C   UNL     1       3.271  16.300  17.460  0.00  0.00    +0.000 C 
ATOM     32  O   UNL     1       4.020  15.104  17.641  0.00  0.00    +0.000 OA
ENDBRANCH  24  32
ENDBRANCH  23  27
ENDBRANCH   1  23
TORSDOF 6
ENDMDL
MODEL 3
REMARK VINA RESULT:      -6.5      3.525      6.349
REMARK  Name = 
REMARK  12 active torsions:
REMARK  status: ('A' for Active; 'I' for Inactive)
REMARK    1  A    between atoms: C_1  and  O_2
REMARK    2  A    between atoms: O_2  and  C_3
REMARK    3  A    between atoms: C_6  and  C_7
REMARK    4  A    between atoms: C_7  and  C_8
REMARK    5  A    between atoms: C_9  and  C_10
REMARK    6  A    between atoms: C_13  and  O_14
REMARK    7  A    between atoms: O_14  and  C_15
REMARK    8  A    between atoms: C_16  and  O_17
REMARK    9  A    between atoms: O_17  and  C_18
REMARK   10  A    between atoms: C_23  and  C_24
REMARK   11  A    between atoms: C_27  and  C_28
REMARK   12  A    between atoms: C_30  and  C_31
REMARK                            x       y       z     vdW  Elec       q    Type
REMARK                         _______ _______ _______ _____ _____    ______ ____
ROOT
ATOM      1  C   UNL     1      -0.091  11.528  20.751  0.00  0.00    +0.000 A 
ATOM      2  C   UNL     1      -0.651  11.393  22.021  0.00  0.00    +0.000 A 
ATOM      3  N   UNL     1      -0.360  10.166  22.548  0.00  0.00    +0.000 NA
ATOM      4  C   UNL     1       0.315   9.526  21.620  0.00  0.00    +0.000 A 
ATOM      5  C   UNL     1       0.830   8.211  21.655  0.00  0.00    +0.000 A 
ATOM      6  C   UNL     1       1.475   7.688  20.593  0.00  0.00    +0.000 A 
ATOM      7  C   UNL     1       2.007   6.279  20.671  0.00  0.00    +0.000 C 
ATOM      8  C   UNL     1       1.651   8.489  19.368  0.00  0.00    +0.000 A 
ATOM      9 BR   UNL     1       2.549   7.665  17.923  0.00  0.00    +0.000 Br
ATOM     10  C   UNL     1       1.174   9.766  19.314  0.00  0.00    +0.000 A 
ATOM     11  C   UNL     1       1.314  10.619  18.081  0.00  0.00    +0.000 C 
ATOM     12  N   UNL     1       0.505  10.289  20.465  0.00  0.00    +0.000 N 
ENDROOT
BRANCH   2  13
ATOM     13  C   UNL     1      -1.445  12.371  22.770  0.00  0.00    +0.000 A 
ATOM     14  C   UNL     1      -0.892  13.607  23.100  0.00  0.00    +0.000 A 
ATOM     15  C   UNL     1      -1.628  14.536  23.845  0.00  0.00    +0.000 A 
ATOM     16  C   UNL     1      -2.935  14.257  24.280  0.00  0.00    +0.000 A 
ATOM     17  C   UNL     1      -3.507  13.019  23.958  0.00  0.00    +0.000 A 
ATOM     18  C   UNL     1      -2.742  12.096  23.228  0.00  0.00    +0.000 A 
BRANCH  16  19
ATOM     19  O   UNL     1      -3.481  15.290  24.996  0.00  0.00    +0.000 OA
ATOM     20  C   UNL     1      -2.671  16.420  25.290  0.00  0.00    +0.000 C 
ENDBRANCH  16  19
BRANCH  17  21
ATOM     21  O   UNL     1      -4.784  12.750  24.379  0.00  0.00    +0.000 OA
ATOM     22  C   UNL     1      -5.874  13.082  23.525  0.00  0.00    +0.000 C 
ENDBRANCH  17  21
ENDBRANCH   2  13
BRANCH   1  23
ATOM     23  C   UNL     1      -0.094  12.727  19.856  0.00  0.00    +0.000 C 
BRANCH  23  27
ATOM     24  C   UNL     1       3.185  15.548  20.401  0.00  0.00    +0.000 A 
ATOM     25  C   UNL     1       3.344  14.216  20.756  0.00  0.00    +0.000 A 
ATOM     26  C   UNL     1       2.286  13.319  20.592  0.00  0.00    +0.000 A 
ATOM     27  C   UNL     1       1.046  13.721  20.054  0.00  0.00    +0.000 A 
ATOM     28  C   UNL     1       0.900  15.067  19.657  0.00  0.00    +0.000 A 
ATOM     29  C   UNL     1      -0.343  15.608  18.999  0.00  0.00    +0.000 C 
ATOM     30  C   UNL     1       1.972  15.961  19.847  0.00  0.00    +0.000 A 
BRANCH  24  32
ATOM     31  C   UNL     1       5.049  16.669  19.453  0.00  0.00    +0.000 C 
ATOM     32  O   UNL     1       4.130  16.527  20.531  0.00  0.00    +0.000 OA
ENDBRANCH  24  32
ENDBRANCH  23  27
ENDBRANCH   1  23
TORSDOF 6
ENDMDL
MODEL 4
REMARK VINA RESULT:      -6.4      3.316      5.143
REMARK  Name = 
REMARK  12 active torsions:
REMARK  status: ('A' for Active; 'I' for Inactive)
REMARK    1  A    between atoms: C_1  and  O_2
REMARK    2  A    between atoms: O_2  and  C_3
REMARK    3  A    between atoms: C_6  and  C_7
REMARK    4  A    between atoms: C_7  and  C_8
REMARK    5  A    between atoms: C_9  and  C_10
REMARK    6  A    between atoms: C_13  and  O_14
REMARK    7  A    between atoms: O_14  and  C_15
REMARK    8  A    between atoms: C_16  and  O_17
REMARK    9  A    between atoms: O_17  and  C_18
REMARK   10  A    between atoms: C_23  and  C_24
REMARK   11  A    between atoms: C_27  and  C_28
REMARK   12  A    between atoms: C_30  and  C_31
REMARK                            x       y       z     vdW  Elec       q    Type
REMARK                         _______ _______ _______ _____ _____    ______ ____
ROOT
ATOM      1  C   UNL     1      -0.702  11.349  20.722  0.00  0.00    +0.000 A 
ATOM      2  C   UNL     1      -0.868  11.335  22.107  0.00  0.00    +0.000 A 
ATOM      3  N   UNL     1      -0.147  10.320  22.668  0.00  0.00    +0.000 NA
ATOM      4  C   UNL     1       0.414   9.679  21.669  0.00  0.00    +0.000 A 
ATOM      5  C   UNL     1       1.244   8.536  21.710  0.00  0.00    +0.000 A 
ATOM      6  C   UNL     1       1.712   7.975  20.576  0.00  0.00    +0.000 A 
ATOM      7  C   UNL     1       2.592   6.754  20.665  0.00  0.00    +0.000 C 
ATOM      8  C   UNL     1       1.360   8.552  19.266  0.00  0.00    +0.000 A 
ATOM      9 BR   UNL     1       2.046   7.687  17.733  0.00  0.00    +0.000 Br
ATOM     10  C   UNL     1       0.572   9.664  19.201  0.00  0.00    +0.000 A 
ATOM     11  C   UNL     1       0.171  10.282  17.888  0.00  0.00    +0.000 C 
ATOM     12  N   UNL     1       0.103  10.235  20.425  0.00  0.00    +0.000 N 
ENDROOT
BRANCH   2  13
ATOM     13  C   UNL     1      -1.673  12.241  22.931  0.00  0.00    +0.000 A 
ATOM     14  C   UNL     1      -1.171  13.495  23.278  0.00  0.00    +0.000 A 
ATOM     15  C   UNL     1      -1.915  14.354  24.093  0.00  0.00    +0.000 A 
ATOM     16  C   UNL     1      -3.180  13.989  24.584  0.00  0.00    +0.000 A 
ATOM     17  C   UNL     1      -3.701  12.732  24.247  0.00  0.00    +0.000 A 
ATOM     18  C   UNL     1      -2.927  11.878  23.445  0.00  0.00    +0.000 A 
BRANCH  16  19
ATOM     19  O   UNL     1      -3.742  14.964  25.365  0.00  0.00    +0.000 OA
ATOM     20  C   UNL     1      -3.771  16.297  24.875  0.00  0.00    +0.000 C 
ENDBRANCH  16  19
BRANCH  17  21
ATOM     21  O   UNL     1      -4.936  12.378  24.722  0.00  0.00    +0.000 OA
ATOM     22  C   UNL     1      -6.093  12.771  23.992  0.00  0.00    +0.000 C 
ENDBRANCH  17  21
ENDBRANCH   2  13
BRANCH   1  23
ATOM     23  C   UNL     1      -1.240  12.331  19.730  0.00  0.00    +0.000 C 
BRANCH  23  27
ATOM     24  C   UNL     1      -5.296  11.584  18.318  0.00  0.00    +0.000 A 
ATOM     25  C   UNL     1      -4.248  10.780  17.891  0.00  0.00    +0.000 A 
ATOM     26  C   UNL     1      -2.949  11.031  18.335  0.00  0.00    +0.000 A 
ATOM     27  C   UNL     1      -2.659  12.081  19.232  0.00  0.00    +0.000 A 
ATOM     28  C   UNL     1      -3.731  12.873  19.694  0.00  0.00    +0.000 A 
ATOM     29  C   UNL     1      -3.570  13.975  20.709  0.00  0.00    +0.000 C 
ATOM     30  C   UNL     1      -5.032  12.616  19.221  0.00  0.00    +0.000 A 
BRANCH  24  32
ATOM     31  C   UNL     1      -7.360  12.662  17.863  0.00  0.00    +0.000 C 
ATOM     32  O   UNL     1      -6.604  11.458  17.941  0.00  0.00    +0.000 OA
ENDBRANCH  24  32
ENDBRANCH  23  27
ENDBRANCH   1  23
TORSDOF 6
ENDMDL
MODEL 5
REMARK VINA RESULT:      -6.4      3.623      7.287
REMARK  Name = 
REMARK  12 active torsions:
REMARK  status: ('A' for Active; 'I' for Inactive)
REMARK    1  A    between atoms: C_1  and  O_2
REMARK    2  A    between atoms: O_2  and  C_3
REMARK    3  A    between atoms: C_6  and  C_7
REMARK    4  A    between atoms: C_7  and  C_8
REMARK    5  A    between atoms: C_9  and  C_10
REMARK    6  A    between atoms: C_13  and  O_14
REMARK    7  A    between atoms: O_14  and  C_15
REMARK    8  A    between atoms: C_16  and  O_17
REMARK    9  A    between atoms: O_17  and  C_18
REMARK   10  A    between atoms: C_23  and  C_24
REMARK   11  A    between atoms: C_27  and  C_28
REMARK   12  A    between atoms: C_30  and  C_31
REMARK                            x       y       z     vdW  Elec       q    Type
REMARK                         _______ _______ _______ _____ _____    ______ ____
ROOT
ATOM      1  C   UNL     1       0.780  11.761  20.070  0.00  0.00    +0.000 A 
ATOM      2  C   UNL     1       1.255  12.546  19.020  0.00  0.00    +0.000 A 
ATOM      3  N   UNL     1       1.854  11.769  18.070  0.00  0.00    +0.000 NA
ATOM      4  C   UNL     1       1.808  10.539  18.528  0.00  0.00    +0.000 A 
ATOM      5  C   UNL     1       2.313   9.359  17.935  0.00  0.00    +0.000 A 
ATOM      6  C   UNL     1       2.214   8.169  18.562  0.00  0.00    +0.000 A 
ATOM      7  C   UNL     1       2.768   6.935  17.896  0.00  0.00    +0.000 C 
ATOM      8  C   UNL     1       1.574   8.083  19.887  0.00  0.00    +0.000 A 
ATOM      9 BR   UNL     1       1.499   6.377  20.696  0.00  0.00    +0.000 Br
ATOM     10  C   UNL     1       1.067   9.205  20.473  0.00  0.00    +0.000 A 
ATOM     11  C   UNL     1       0.417   9.172  21.832  0.00  0.00    +0.000 C 
ATOM     12  N   UNL     1       1.181  10.447  19.773  0.00  0.00    +0.000 N 
ENDROOT
BRANCH   2  13
ATOM     13  C   UNL     1       1.164  14.000  18.865  0.00  0.00    +0.000 A 
ATOM     14  C   UNL     1      -0.077  14.601  18.658  0.00  0.00    +0.000 A 
ATOM     15  C   UNL     1      -0.171  15.986  18.474  0.00  0.00    +0.000 A 
ATOM     16  C   UNL     1       0.968  16.808  18.492  0.00  0.00    +0.000 A 
ATOM     17  C   UNL     1       2.225  16.222  18.697  0.00  0.00    +0.000 A 
ATOM     18  C   UNL     1       2.297  14.829  18.859  0.00  0.00    +0.000 A 
BRANCH  16  19
ATOM     19  O   UNL     1       0.665  18.129  18.289  0.00  0.00    +0.000 OA
ATOM     20  C   UNL     1       0.657  18.630  16.959  0.00  0.00    +0.000 C 
ENDBRANCH  16  19
BRANCH  17  21
ATOM     21  O   UNL     1       3.335  17.025  18.719  0.00  0.00    +0.000 OA
ATOM     22  C   UNL     1       3.967  17.292  19.967  0.00  0.00    +0.000 C 
ENDBRANCH  17  21
ENDBRANCH   2  13
BRANCH   1  23
ATOM     23  C   UNL     1      -0.005  12.187  21.270  0.00  0.00    +0.000 C 
BRANCH  23  27
ATOM     24  C   UNL     1      -4.275  12.814  20.651  0.00  0.00    +0.000 A 
ATOM     25  C   UNL     1      -3.507  12.211  19.664  0.00  0.00    +0.000 A 
ATOM     26  C   UNL     1      -2.137  12.024  19.862  0.00  0.00    +0.000 A 
ATOM     27  C   UNL     1      -1.497  12.418  21.056  0.00  0.00    +0.000 A 
ATOM     28  C   UNL     1      -2.286  12.995  22.072  0.00  0.00    +0.000 A 
ATOM     29  C   UNL     1      -1.743  13.390  23.421  0.00  0.00    +0.000 C 
ATOM     30  C   UNL     1      -3.663  13.192  21.848  0.00  0.00    +0.000 A 
BRANCH  24  32
ATOM     31  C   UNL     1      -6.357  12.297  19.638  0.00  0.00    +0.000 C 
ATOM     32  O   UNL     1      -5.614  13.074  20.573  0.00  0.00    +0.000 OA
ENDBRANCH  24  32
ENDBRANCH  23  27
ENDBRANCH   1  23
TORSDOF 6
ENDMDL
MODEL 6
REMARK VINA RESULT:      -6.3      3.504      7.177
REMARK  Name = 
REMARK  12 active torsions:
REMARK  status: ('A' for Active; 'I' for Inactive)
REMARK    1  A    between atoms: C_1  and  O_2
REMARK    2  A    between atoms: O_2  and  C_3
REMARK    3  A    between atoms: C_6  and  C_7
REMARK    4  A    between atoms: C_7  and  C_8
REMARK    5  A    between atoms: C_9  and  C_10
REMARK    6  A    between atoms: C_13  and  O_14
REMARK    7  A    between atoms: O_14  and  C_15
REMARK    8  A    between atoms: C_16  and  O_17
REMARK    9  A    between atoms: O_17  and  C_18
REMARK   10  A    between atoms: C_23  and  C_24
REMARK   11  A    between atoms: C_27  and  C_28
REMARK   12  A    between atoms: C_30  and  C_31
REMARK                            x       y       z     vdW  Elec       q    Type
REMARK                         _______ _______ _______ _____ _____    ______ ____
ROOT
ATOM      1  C   UNL     1       1.081  11.346  19.870  0.00  0.00    +0.000 A 
ATOM      2  C   UNL     1       1.603  12.090  18.812  0.00  0.00    +0.000 A 
ATOM      3  N   UNL     1       2.186  11.271  17.888  0.00  0.00    +0.000 NA
ATOM      4  C   UNL     1       2.086  10.054  18.370  0.00  0.00    +0.000 A 
ATOM      5  C   UNL     1       2.554   8.843  17.810  0.00  0.00    +0.000 A 
ATOM      6  C   UNL     1       2.399   7.671  18.458  0.00  0.00    +0.000 A 
ATOM      7  C   UNL     1       2.915   6.403  17.827  0.00  0.00    +0.000 C 
ATOM      8  C   UNL     1       1.735   7.637  19.774  0.00  0.00    +0.000 A 
ATOM      9 BR   UNL     1       1.581   5.952  20.616  0.00  0.00    +0.000 Br
ATOM     10  C   UNL     1       1.262   8.790  20.329  0.00  0.00    +0.000 A 
ATOM     11  C   UNL     1       0.590   8.810  21.677  0.00  0.00    +0.000 C 
ATOM     12  N   UNL     1       1.436  10.012  19.606  0.00  0.00    +0.000 N 
ENDROOT
BRANCH   2  13
ATOM     13  C   UNL     1       1.571  13.543  18.627  0.00  0.00    +0.000 A 
ATOM     14  C   UNL     1       2.736  14.225  18.278  0.00  0.00    +0.000 A 
ATOM     15  C   UNL     1       2.725  15.617  18.132  0.00  0.00    +0.000 A 
ATOM     16  C   UNL     1       1.554  16.367  18.330  0.00  0.00    +0.000 A 
ATOM     17  C   UNL     1       0.372  15.700  18.682  0.00  0.00    +0.000 A 
ATOM     18  C   UNL     1       0.412  14.305  18.843  0.00  0.00    +0.000 A 
BRANCH  16  19
ATOM     19  O   UNL     1       1.752  17.710  18.145  0.00  0.00    +0.000 OA
ATOM     20  C   UNL     1       1.334  18.299  16.922  0.00  0.00    +0.000 C 
ENDBRANCH  16  19
BRANCH  17  21
ATOM     21  O   UNL     1      -0.771  16.431  18.870  0.00  0.00    +0.000 OA
ATOM     22  C   UNL     1      -1.094  16.877  20.183  0.00  0.00    +0.000 C 
ENDBRANCH  17  21
ENDBRANCH   2  13
BRANCH   1  23
ATOM     23  C   UNL     1       0.294  11.826  21.048  0.00  0.00    +0.000 C 
BRANCH  23  27
ATOM     24  C   UNL     1      -3.927  12.653  20.332  0.00  0.00    +0.000 A 
ATOM     25  C   UNL     1      -3.169  12.000  19.369  0.00  0.00    +0.000 A 
ATOM     26  C   UNL     1      -1.815  11.749  19.598  0.00  0.00    +0.000 A 
ATOM     27  C   UNL     1      -1.180  12.127  20.799  0.00  0.00    +0.000 A 
ATOM     28  C   UNL     1      -1.961  12.755  21.792  0.00  0.00    +0.000 A 
ATOM     29  C   UNL     1      -1.426  13.141  23.147  0.00  0.00    +0.000 C 
ATOM     30  C   UNL     1      -3.321  13.016  21.537  0.00  0.00    +0.000 A 
BRANCH  24  32
ATOM     31  C   UNL     1      -6.114  12.458  21.230  0.00  0.00    +0.000 C 
ATOM     32  O   UNL     1      -5.250  12.976  20.223  0.00  0.00    +0.000 OA
ENDBRANCH  24  32
ENDBRANCH  23  27
ENDBRANCH   1  23
TORSDOF 6
ENDMDL
MODEL 7
REMARK VINA RESULT:      -6.3      3.850      6.524
REMARK  Name = 
REMARK  12 active torsions:
REMARK  status: ('A' for Active; 'I' for Inactive)
REMARK    1  A    between atoms: C_1  and  O_2
REMARK    2  A    between atoms: O_2  and  C_3
REMARK    3  A    between atoms: C_6  and  C_7
REMARK    4  A    between atoms: C_7  and  C_8
REMARK    5  A    between atoms: C_9  and  C_10
REMARK    6  A    between atoms: C_13  and  O_14
REMARK    7  A    between atoms: O_14  and  C_15
REMARK    8  A    between atoms: C_16  and  O_17
REMARK    9  A    between atoms: O_17  and  C_18
REMARK   10  A    between atoms: C_23  and  C_24
REMARK   11  A    between atoms: C_27  and  C_28
REMARK   12  A    between atoms: C_30  and  C_31
REMARK                            x       y       z     vdW  Elec       q    Type
REMARK                         _______ _______ _______ _____ _____    ______ ____
ROOT
ATOM      1  C   UNL     1      -0.217  11.676  20.865  0.00  0.00    +0.000 A 
ATOM      2  C   UNL     1      -0.770  11.538  22.138  0.00  0.00    +0.000 A 
ATOM      3  N   UNL     1      -0.467  10.315  22.666  0.00  0.00    +0.000 NA
ATOM      4  C   UNL     1       0.209   9.679  21.736  0.00  0.00    +0.000 A 
ATOM      5  C   UNL     1       0.735   8.367  21.772  0.00  0.00    +0.000 A 
ATOM      6  C   UNL     1       1.379   7.847  20.708  0.00  0.00    +0.000 A 
ATOM      7  C   UNL     1       1.922   6.443  20.786  0.00  0.00    +0.000 C 
ATOM      8  C   UNL     1       1.542   8.647  19.480  0.00  0.00    +0.000 A 
ATOM      9 BR   UNL     1       2.441   7.827  18.033  0.00  0.00    +0.000 Br
ATOM     10  C   UNL     1       1.056   9.920  19.426  0.00  0.00    +0.000 A 
ATOM     11  C   UNL     1       1.184  10.772  18.190  0.00  0.00    +0.000 C 
ATOM     12  N   UNL     1       0.388  10.440  20.579  0.00  0.00    +0.000 N 
ENDROOT
BRANCH   2  13
ATOM     13  C   UNL     1      -1.568  12.512  22.888  0.00  0.00    +0.000 A 
ATOM     14  C   UNL     1      -2.937  12.309  23.052  0.00  0.00    +0.000 A 
ATOM     15  C   UNL     1      -3.715  13.250  23.737  0.00  0.00    +0.000 A 
ATOM     16  C   UNL     1      -3.150  14.418  24.276  0.00  0.00    +0.000 A 
ATOM     17  C   UNL     1      -1.775  14.640  24.120  0.00  0.00    +0.000 A 
ATOM     18  C   UNL     1      -1.018  13.692  23.412  0.00  0.00    +0.000 A 
BRANCH  16  19
ATOM     19  O   UNL     1      -4.077  15.210  24.901  0.00  0.00    +0.000 OA
ATOM     20  C   UNL     1      -4.754  16.199  24.139  0.00  0.00    +0.000 C 
ENDBRANCH  16  19
BRANCH  17  21
ATOM     21  O   UNL     1      -1.222  15.777  24.650  0.00  0.00    +0.000 OA
ATOM     22  C   UNL     1      -0.938  15.818  26.044  0.00  0.00    +0.000 C 
ENDBRANCH  17  21
ENDBRANCH   2  13
BRANCH   1  23
ATOM     23  C   UNL     1      -0.232  12.873  19.968  0.00  0.00    +0.000 C 
BRANCH  23  27
ATOM     24  C   UNL     1       3.132  15.619  20.359  0.00  0.00    +0.000 A 
ATOM     25  C   UNL     1       3.243  14.309  20.805  0.00  0.00    +0.000 A 
ATOM     26  C   UNL     1       2.159  13.437  20.689  0.00  0.00    +0.000 A 
ATOM     27  C   UNL     1       0.937  13.841  20.111  0.00  0.00    +0.000 A 
ATOM     28  C   UNL     1       0.839  15.161  19.624  0.00  0.00    +0.000 A 
ATOM     29  C   UNL     1      -0.380  15.697  18.918  0.00  0.00    +0.000 C 
ATOM     30  C   UNL     1       1.937  16.032  19.765  0.00  0.00    +0.000 A 
BRANCH  24  32
ATOM     31  C   UNL     1       4.871  16.793  19.253  0.00  0.00    +0.000 C 
ATOM     32  O   UNL     1       4.107  16.573  20.434  0.00  0.00    +0.000 OA
ENDBRANCH  24  32
ENDBRANCH  23  27
ENDBRANCH   1  23
TORSDOF 6
ENDMDL
MODEL 8
REMARK VINA RESULT:      -6.3      2.785      4.070
REMARK  Name = 
REMARK  12 active torsions:
REMARK  status: ('A' for Active; 'I' for Inactive)
REMARK    1  A    between atoms: C_1  and  O_2
REMARK    2  A    between atoms: O_2  and  C_3
REMARK    3  A    between atoms: C_6  and  C_7
REMARK    4  A    between atoms: C_7  and  C_8
REMARK    5  A    between atoms: C_9  and  C_10
REMARK    6  A    between atoms: C_13  and  O_14
REMARK    7  A    between atoms: O_14  and  C_15
REMARK    8  A    between atoms: C_16  and  O_17
REMARK    9  A    between atoms: O_17  and  C_18
REMARK   10  A    between atoms: C_23  and  C_24
REMARK   11  A    between atoms: C_27  and  C_28
REMARK   12  A    between atoms: C_30  and  C_31
REMARK                            x       y       z     vdW  Elec       q    Type
REMARK                         _______ _______ _______ _____ _____    ______ ____
ROOT
ATOM      1  C   UNL     1       1.228  14.698  20.331  0.00  0.00    +0.000 A 
ATOM      2  C   UNL     1       0.722  14.565  21.624  0.00  0.00    +0.000 A 
ATOM      3  N   UNL     1       1.517  15.221  22.521  0.00  0.00    +0.000 NA
ATOM      4  C   UNL     1       2.521  15.705  21.828  0.00  0.00    +0.000 A 
ATOM      5  C   UNL     1       3.634  16.445  22.288  0.00  0.00    +0.000 A 
ATOM      6  C   UNL     1       4.605  16.841  21.440  0.00  0.00    +0.000 A 
ATOM      7  C   UNL     1       5.777  17.626  21.973  0.00  0.00    +0.000 C 
ATOM      8  C   UNL     1       4.519  16.501  20.008  0.00  0.00    +0.000 A 
ATOM      9 BR   UNL     1       5.937  17.080  18.901  0.00  0.00    +0.000 Br
ATOM     10  C   UNL     1       3.448  15.799  19.537  0.00  0.00    +0.000 A 
ATOM     11  C   UNL     1       3.322  15.414  18.087  0.00  0.00    +0.000 C 
ATOM     12  N   UNL     1       2.434  15.407  20.465  0.00  0.00    +0.000 N 
ENDROOT
BRANCH   2  13
ATOM     13  C   UNL     1      -0.484  13.854  22.055  0.00  0.00    +0.000 A 
ATOM     14  C   UNL     1      -1.713  14.514  22.068  0.00  0.00    +0.000 A 
ATOM     15  C   UNL     1      -2.865  13.855  22.511  0.00  0.00    +0.000 A 
ATOM     16  C   UNL     1      -2.824  12.522  22.954  0.00  0.00    +0.000 A 
ATOM     17  C   UNL     1      -1.598  11.843  22.950  0.00  0.00    +0.000 A 
ATOM     18  C   UNL     1      -0.452  12.531  22.520  0.00  0.00    +0.000 A 
BRANCH  16  19
ATOM     19  O   UNL     1      -4.053  12.062  23.350  0.00  0.00    +0.000 OA
ATOM     20  C   UNL     1      -4.727  12.738  24.402  0.00  0.00    +0.000 C 
ENDBRANCH  16  19
BRANCH  17  21
ATOM     21  O   UNL     1      -1.560  10.541  23.377  0.00  0.00    +0.000 OA
ATOM     22  C   UNL     1      -0.438   9.736  23.030  0.00  0.00    +0.000 C 
ENDBRANCH  17  21
ENDBRANCH   2  13
BRANCH   1  23
ATOM     23  C   UNL     1       0.635  14.212  19.045  0.00  0.00    +0.000 C 
BRANCH  23  27
ATOM     24  C   UNL     1       1.202   9.980  18.166  0.00  0.00    +0.000 A 
ATOM     25  C   UNL     1       2.291  10.840  18.194  0.00  0.00    +0.000 A 
ATOM     26  C   UNL     1       2.103  12.197  18.464  0.00  0.00    +0.000 A 
ATOM     27  C   UNL     1       0.826  12.733  18.729  0.00  0.00    +0.000 A 
ATOM     28  C   UNL     1      -0.275  11.851  18.738  0.00  0.00    +0.000 A 
ATOM     29  C   UNL     1      -1.678  12.278  19.080  0.00  0.00    +0.000 C 
ATOM     30  C   UNL     1      -0.068  10.488  18.447  0.00  0.00    +0.000 A 
BRANCH  24  32
ATOM     31  C   UNL     1       2.543   8.053  17.826  0.00  0.00    +0.000 C 
ATOM     32  O   UNL     1       1.248   8.641  17.895  0.00  0.00    +0.000 OA
ENDBRANCH  24  32
ENDBRANCH  23  27
ENDBRANCH   1  23
TORSDOF 6
ENDMDL
MODEL 9
REMARK VINA RESULT:      -6.3      3.497      6.370
REMARK  Name = 
REMARK  12 active torsions:
REMARK  status: ('A' for Active; 'I' for Inactive)
REMARK    1  A    between atoms: C_1  and  O_2
REMARK    2  A    between atoms: O_2  and  C_3
REMARK    3  A    between atoms: C_6  and  C_7
REMARK    4  A    between atoms: C_7  and  C_8
REMARK    5  A    between atoms: C_9  and  C_10
REMARK    6  A    between atoms: C_13  and  O_14
REMARK    7  A    between atoms: O_14  and  C_15
REMARK    8  A    between atoms: C_16  and  O_17
REMARK    9  A    between atoms: O_17  and  C_18
REMARK   10  A    between atoms: C_23  and  C_24
REMARK   11  A    between atoms: C_27  and  C_28
REMARK   12  A    between atoms: C_30  and  C_31
REMARK                            x       y       z     vdW  Elec       q    Type
REMARK                         _______ _______ _______ _____ _____    ______ ____
ROOT
ATOM      1  C   UNL     1       0.182  11.354  20.183  0.00  0.00    +0.000 A 
ATOM      2  C   UNL     1      -0.561  11.337  21.363  0.00  0.00    +0.000 A 
ATOM      3  N   UNL     1      -0.424  10.138  22.002  0.00  0.00    +0.000 NA
ATOM      4  C   UNL     1       0.336   9.400  21.226  0.00  0.00    +0.000 A 
ATOM      5  C   UNL     1       0.759   8.065  21.419  0.00  0.00    +0.000 A 
ATOM      6  C   UNL     1       1.515   7.435  20.497  0.00  0.00    +0.000 A 
ATOM      7  C   UNL     1       1.942   6.010  20.740  0.00  0.00    +0.000 C 
ATOM      8  C   UNL     1       1.912   8.137  19.263  0.00  0.00    +0.000 A 
ATOM      9 BR   UNL     1       2.955   7.167  18.020  0.00  0.00    +0.000 Br
ATOM     10  C   UNL     1       1.528   9.430  19.060  0.00  0.00    +0.000 A 
ATOM     11  C   UNL     1       1.895  10.185  17.809  0.00  0.00    +0.000 C 
ATOM     12  N   UNL     1       0.735  10.067  20.065  0.00  0.00    +0.000 N 
ENDROOT
BRANCH   2  13
ATOM     13  C   UNL     1      -1.391  12.406  21.924  0.00  0.00    +0.000 A 
ATOM     14  C   UNL     1      -0.846  13.298  22.847  0.00  0.00    +0.000 A 
ATOM     15  C   UNL     1      -1.639  14.302  23.416  0.00  0.00    +0.000 A 
ATOM     16  C   UNL     1      -2.996  14.443  23.081  0.00  0.00    +0.000 A 
ATOM     17  C   UNL     1      -3.562  13.555  22.156  0.00  0.00    +0.000 A 
ATOM     18  C   UNL     1      -2.753  12.544  21.614  0.00  0.00    +0.000 A 
BRANCH  16  19
ATOM     19  O   UNL     1      -3.596  15.479  23.748  0.00  0.00    +0.000 OA
ATOM     20  C   UNL     1      -3.274  15.687  25.116  0.00  0.00    +0.000 C 
ENDBRANCH  16  19
BRANCH  17  21
ATOM     21  O   UNL     1      -4.885  13.696  21.826  0.00  0.00    +0.000 OA
ATOM     22  C   UNL     1      -5.577  12.585  21.267  0.00  0.00    +0.000 C 
ENDBRANCH  17  21
ENDBRANCH   2  13
BRANCH   1  23
ATOM     23  C   UNL     1       0.381  12.484  19.224  0.00  0.00    +0.000 C 
BRANCH  23  27
ATOM     24  C   UNL     1       2.862  15.795  20.598  0.00  0.00    +0.000 A 
ATOM     25  C   UNL     1       3.426  14.548  20.370  0.00  0.00    +0.000 A 
ATOM     26  C   UNL     1       2.625  13.487  19.942  0.00  0.00    +0.000 A 
ATOM     27  C   UNL     1       1.241  13.643  19.714  0.00  0.00    +0.000 A 
ATOM     28  C   UNL     1       0.678  14.922  19.909  0.00  0.00    +0.000 A 
ATOM     29  C   UNL     1      -0.767  15.243  19.629  0.00  0.00    +0.000 C 
ATOM     30  C   UNL     1       1.498  15.976  20.358  0.00  0.00    +0.000 A 
BRANCH  24  32
ATOM     31  C   UNL     1       4.811  17.140  20.466  0.00  0.00    +0.000 C 
ATOM     32  O   UNL     1       3.529  16.905  21.037  0.00  0.00    +0.000 OA
ENDBRANCH  24  32
ENDBRANCH  23  27
ENDBRANCH   1  23
TORSDOF 6
ENDMDL
