MODEL 1
REMARK VINA RESULT:      -7.4      0.000      0.000
REMARK  Name = 
REMARK  13 active torsions:
REMARK  status: ('A' for Active; 'I' for Inactive)
REMARK    1  A    between atoms: C_1  and  C_2
REMARK    2  A    between atoms: C_2  and  C_3
REMARK    3  A    between atoms: C_3  and  C_4
REMARK    4  A    between atoms: C_4  and  C_5
REMARK    5  A    between atoms: C_5  and  C_6
REMARK    6  A    between atoms: C_6  and  C_7
REMARK    7  A    between atoms: C_7  and  N_8
REMARK    8  A    between atoms: C_9  and  O_11
REMARK    9  A    between atoms: O_11  and  C_12
REMARK   10  A    between atoms: N_19  and  C_20
REMARK   11  A    between atoms: C_21  and  C_22
REMARK   12  A    between atoms: C_26  and  C_27
REMARK   13  A    between atoms: N_29  and  C_30
REMARK                            x       y       z     vdW  Elec       q    Type
REMARK                         _______ _______ _______ _____ _____    ______ ____
ROOT
ATOM      1  C   UNL     1       3.208   5.455  19.107  0.00  0.00    +0.000 A 
ATOM      2  C   UNL     1       3.245   6.239  17.960  0.00  0.00    +0.000 A 
ATOM      3  C   UNL     1       2.656   7.504  17.955  0.00  0.00    +0.000 A 
ATOM      4  C   UNL     1       1.982   8.023  19.074  0.00  0.00    +0.000 A 
ATOM      5  C   UNL     1       1.943   7.213  20.229  0.00  0.00    +0.000 A 
ATOM      6  C   UNL     1       2.532   5.922  20.233  0.00  0.00    +0.000 A 
ATOM      7  C   UNL     1       1.234   7.699  21.475  0.00  0.00    +0.000 C 
ATOM      8  N   UNL     1       1.074   9.159  21.543  0.00  0.00    +0.000 NA
ATOM      9  C   UNL     1       0.232   9.507  22.687  0.00  0.00    +0.000 C 
ATOM     10  C   UNL     1       0.537   9.607  20.238  0.00  0.00    +0.000 C 
ATOM     11  N   UNL     1       1.343   9.272  19.046  0.00  0.00    +0.000 N 
ATOM     12  C   UNL     1       1.797  10.266  18.082  0.00  0.00    +0.000 C 
ENDROOT
BRANCH  10  13
ATOM     13  C   UNL     1       0.112  11.090  20.299  0.00  0.00    +0.000 A 
ATOM     14  C   UNL     1       1.028  12.085  20.674  0.00  0.00    +0.000 A 
ATOM     15  C   UNL     1       0.623  13.409  20.828  0.00  0.00    +0.000 A 
ATOM     16  C   UNL     1      -0.727  13.748  20.674  0.00  0.00    +0.000 A 
ATOM     17  C   UNL     1      -1.666  12.772  20.332  0.00  0.00    +0.000 A 
ATOM     18  C   UNL     1      -3.129  13.112  20.281  0.00  0.00    +0.000 C 
ATOM     19  C   UNL     1      -1.236  11.458  20.096  0.00  0.00    +0.000 A 
ENDBRANCH  10  13
BRANCH   1  20
ATOM     20  O   UNL     1       3.749   4.152  19.103  0.00  0.00    +0.000 OA
BRANCH  20  22
ATOM     21  N   UNL     1       5.966   4.312  18.572  0.00  0.00    +0.000 N 
ATOM     22  C   UNL     1       4.741   3.857  18.175  0.00  0.00    +0.000 C 
ATOM     23  O   UNL     1       4.563   3.239  17.114  0.00  0.00    +0.000 OA
ATOM     24  H   UNL     1       6.110   4.515  19.557  0.00  0.00    +0.000 HD
BRANCH  21  25
ATOM     25  C   UNL     1       7.053   4.413  17.623  0.00  0.00    +0.000 C 
BRANCH  25  26
ATOM     26  C   UNL     1       7.134   5.795  16.962  0.00  0.00    +0.000 C 
BRANCH  26  27
ATOM     27  C   UNL     1       6.318   5.847  15.663  0.00  0.00    +0.000 C 
BRANCH  27  28
ATOM     28  C   UNL     1       6.866   4.885  14.608  0.00  0.00    +0.000 C 
BRANCH  28  29
ATOM     29  C   UNL     1       5.748   4.054  13.977  0.00  0.00    +0.000 C 
BRANCH  29  31
ATOM     30  C   UNL     1       7.211   4.335  11.946  0.00  0.00    +0.000 C 
ATOM     31  C   UNL     1       6.191   3.449  12.644  0.00  0.00    +0.000 C 
ENDBRANCH  29  31
ENDBRANCH  28  29
ENDBRANCH  27  28
ENDBRANCH  26  27
ENDBRANCH  25  26
ENDBRANCH  21  25
ENDBRANCH  20  22
ENDBRANCH   1  20
TORSDOF 9
ENDMDL
MODEL 2
REMARK VINA RESULT:      -7.4      2.789      4.740
REMARK  Name = 
REMARK  13 active torsions:
REMARK  status: ('A' for Active; 'I' for Inactive)
REMARK    1  A    between atoms: C_1  and  C_2
REMARK    2  A    between atoms: C_2  and  C_3
REMARK    3  A    between atoms: C_3  and  C_4
REMARK    4  A    between atoms: C_4  and  C_5
REMARK    5  A    between atoms: C_5  and  C_6
REMARK    6  A    between atoms: C_6  and  C_7
REMARK    7  A    between atoms: C_7  and  N_8
REMARK    8  A    between atoms: C_9  and  O_11
REMARK    9  A    between atoms: O_11  and  C_12
REMARK   10  A    between atoms: N_19  and  C_20
REMARK   11  A    between atoms: C_21  and  C_22
REMARK   12  A    between atoms: C_26  and  C_27
REMARK   13  A    between atoms: N_29  and  C_30
REMARK                            x       y       z     vdW  Elec       q    Type
REMARK                         _______ _______ _______ _____ _____    ______ ____
ROOT
ATOM      1  C   UNL     1       2.135   7.847  18.489  0.00  0.00    +0.000 A 
ATOM      2  C   UNL     1       2.159   7.430  19.815  0.00  0.00    +0.000 A 
ATOM      3  C   UNL     1       1.555   8.205  20.805  0.00  0.00    +0.000 A 
ATOM      4  C   UNL     1       0.934   9.434  20.524  0.00  0.00    +0.000 A 
ATOM      5  C   UNL     1       0.925   9.851  19.175  0.00  0.00    +0.000 A 
ATOM      6  C   UNL     1       1.549   9.070  18.167  0.00  0.00    +0.000 A 
ATOM      7  C   UNL     1       0.278  11.163  18.790  0.00  0.00    +0.000 C 
ATOM      8  N   UNL     1      -0.709  11.654  19.763  0.00  0.00    +0.000 NA
ATOM      9  C   UNL     1      -1.141  13.000  19.387  0.00  0.00    +0.000 C 
ATOM     10  C   UNL     1      -0.088  11.571  21.104  0.00  0.00    +0.000 C 
ATOM     11  N   UNL     1       0.377  10.236  21.532  0.00  0.00    +0.000 N 
ATOM     12  C   UNL     1      -0.043   9.602  22.774  0.00  0.00    +0.000 C 
ENDROOT
BRANCH  10  13
ATOM     13  C   UNL     1      -0.960  12.287  22.159  0.00  0.00    +0.000 A 
ATOM     14  C   UNL     1      -2.256  11.832  22.449  0.00  0.00    +0.000 A 
ATOM     15  C   UNL     1      -3.081  12.534  23.324  0.00  0.00    +0.000 A 
ATOM     16  C   UNL     1      -2.646  13.747  23.873  0.00  0.00    +0.000 A 
ATOM     17  C   UNL     1      -1.373  14.240  23.576  0.00  0.00    +0.000 A 
ATOM     18  C   UNL     1      -0.950  15.594  24.071  0.00  0.00    +0.000 C 
ATOM     19  C   UNL     1      -0.516  13.484  22.761  0.00  0.00    +0.000 A 
ENDBRANCH  10  13
BRANCH   1  20
ATOM     20  O   UNL     1       2.794   7.100  17.490  0.00  0.00    +0.000 OA
BRANCH  20  22
ATOM     21  N   UNL     1       3.733   5.107  18.100  0.00  0.00    +0.000 N 
ATOM     22  C   UNL     1       3.961   6.429  17.836  0.00  0.00    +0.000 C 
ATOM     23  O   UNL     1       5.090   6.941  17.890  0.00  0.00    +0.000 OA
ATOM     24  H   UNL     1       2.883   4.683  17.741  0.00  0.00    +0.000 HD
BRANCH  21  25
ATOM     25  C   UNL     1       4.726   4.318  18.796  0.00  0.00    +0.000 C 
BRANCH  25  26
ATOM     26  C   UNL     1       4.264   2.877  19.047  0.00  0.00    +0.000 C 
BRANCH  26  27
ATOM     27  C   UNL     1       3.050   2.514  18.181  0.00  0.00    +0.000 C 
BRANCH  27  28
ATOM     28  C   UNL     1       1.914   1.920  19.014  0.00  0.00    +0.000 C 
BRANCH  28  29
ATOM     29  C   UNL     1       0.817   2.953  19.279  0.00  0.00    +0.000 C 
BRANCH  29  31
ATOM     30  C   UNL     1       1.565   2.789  21.678  0.00  0.00    +0.000 C 
ATOM     31  C   UNL     1       1.076   3.717  20.577  0.00  0.00    +0.000 C 
ENDBRANCH  29  31
ENDBRANCH  28  29
ENDBRANCH  27  28
ENDBRANCH  26  27
ENDBRANCH  25  26
ENDBRANCH  21  25
ENDBRANCH  20  22
ENDBRANCH   1  20
TORSDOF 9
ENDMDL
MODEL 3
REMARK VINA RESULT:      -7.2      1.476      2.778
REMARK  Name = 
REMARK  13 active torsions:
REMARK  status: ('A' for Active; 'I' for Inactive)
REMARK    1  A    between atoms: C_1  and  C_2
REMARK    2  A    between atoms: C_2  and  C_3
REMARK    3  A    between atoms: C_3  and  C_4
REMARK    4  A    between atoms: C_4  and  C_5
REMARK    5  A    between atoms: C_5  and  C_6
REMARK    6  A    between atoms: C_6  and  C_7
REMARK    7  A    between atoms: C_7  and  N_8
REMARK    8  A    between atoms: C_9  and  O_11
REMARK    9  A    between atoms: O_11  and  C_12
REMARK   10  A    between atoms: N_19  and  C_20
REMARK   11  A    between atoms: C_21  and  C_22
REMARK   12  A    between atoms: C_26  and  C_27
REMARK   13  A    between atoms: N_29  and  C_30
REMARK                            x       y       z     vdW  Elec       q    Type
REMARK                         _______ _______ _______ _____ _____    ______ ____
ROOT
ATOM      1  C   UNL     1       2.830   5.799  19.162  0.00  0.00    +0.000 A 
ATOM      2  C   UNL     1       2.987   6.633  18.061  0.00  0.00    +0.000 A 
ATOM      3  C   UNL     1       2.481   7.933  18.086  0.00  0.00    +0.000 A 
ATOM      4  C   UNL     1       1.774   8.443  19.188  0.00  0.00    +0.000 A 
ATOM      5  C   UNL     1       1.612   7.583  20.297  0.00  0.00    +0.000 A 
ATOM      6  C   UNL     1       2.116   6.257  20.269  0.00  0.00    +0.000 A 
ATOM      7  C   UNL     1       0.861   8.056  21.522  0.00  0.00    +0.000 C 
ATOM      8  N   UNL     1       0.790   9.519  21.655  0.00  0.00    +0.000 NA
ATOM      9  C   UNL     1      -0.097   9.869  22.764  0.00  0.00    +0.000 C 
ATOM     10  C   UNL     1       0.364  10.063  20.346  0.00  0.00    +0.000 C 
ATOM     11  N   UNL     1       1.219   9.732  19.187  0.00  0.00    +0.000 N 
ATOM     12  C   UNL     1       1.794  10.737  18.303  0.00  0.00    +0.000 C 
ENDROOT
BRANCH  10  13
ATOM     13  C   UNL     1       0.032  11.567  20.457  0.00  0.00    +0.000 A 
ATOM     14  C   UNL     1      -1.178  12.074  19.957  0.00  0.00    +0.000 A 
ATOM     15  C   UNL     1      -1.436  13.443  19.964  0.00  0.00    +0.000 A 
ATOM     16  C   UNL     1      -0.455  14.336  20.412  0.00  0.00    +0.000 A 
ATOM     17  C   UNL     1       0.770  13.861  20.885  0.00  0.00    +0.000 A 
ATOM     18  C   UNL     1       1.865  14.822  21.255  0.00  0.00    +0.000 C 
ATOM     19  C   UNL     1       0.990  12.477  20.953  0.00  0.00    +0.000 A 
ENDBRANCH  10  13
BRANCH   1  20
ATOM     20  O   UNL     1       3.285   4.465  19.123  0.00  0.00    +0.000 OA
BRANCH  20  22
ATOM     21  N   UNL     1       5.104   3.948  17.839  0.00  0.00    +0.000 N 
ATOM     22  C   UNL     1       3.740   3.963  17.910  0.00  0.00    +0.000 C 
ATOM     23  O   UNL     1       3.014   3.554  16.990  0.00  0.00    +0.000 OA
ATOM     24  H   UNL     1       5.632   3.986  18.706  0.00  0.00    +0.000 HD
BRANCH  21  25
ATOM     25  C   UNL     1       5.770   3.789  16.564  0.00  0.00    +0.000 C 
BRANCH  25  26
ATOM     26  C   UNL     1       7.070   4.599  16.472  0.00  0.00    +0.000 C 
BRANCH  26  27
ATOM     27  C   UNL     1       7.753   4.726  17.840  0.00  0.00    +0.000 C 
BRANCH  27  28
ATOM     28  C   UNL     1       7.660   6.148  18.393  0.00  0.00    +0.000 C 
BRANCH  28  29
ATOM     29  C   UNL     1       7.085   7.114  17.355  0.00  0.00    +0.000 C 
BRANCH  29  31
ATOM     30  C   UNL     1       8.651   8.575  18.679  0.00  0.00    +0.000 C 
ATOM     31  C   UNL     1       7.667   8.518  17.522  0.00  0.00    +0.000 C 
ENDBRANCH  29  31
ENDBRANCH  28  29
ENDBRANCH  27  28
ENDBRANCH  26  27
ENDBRANCH  25  26
ENDBRANCH  21  25
ENDBRANCH  20  22
ENDBRANCH   1  20
TORSDOF 9
ENDMDL
MODEL 4
REMARK VINA RESULT:      -7.2      1.477      1.862
REMARK  Name = 
REMARK  13 active torsions:
REMARK  status: ('A' for Active; 'I' for Inactive)
REMARK    1  A    between atoms: C_1  and  C_2
REMARK    2  A    between atoms: C_2  and  C_3
REMARK    3  A    between atoms: C_3  and  C_4
REMARK    4  A    between atoms: C_4  and  C_5
REMARK    5  A    between atoms: C_5  and  C_6
REMARK    6  A    between atoms: C_6  and  C_7
REMARK    7  A    between atoms: C_7  and  N_8
REMARK    8  A    between atoms: C_9  and  O_11
REMARK    9  A    between atoms: O_11  and  C_12
REMARK   10  A    between atoms: N_19  and  C_20
REMARK   11  A    between atoms: C_21  and  C_22
REMARK   12  A    between atoms: C_26  and  C_27
REMARK   13  A    between atoms: N_29  and  C_30
REMARK                            x       y       z     vdW  Elec       q    Type
REMARK                         _______ _______ _______ _____ _____    ______ ____
ROOT
ATOM      1  C   UNL     1       2.701   7.113  18.440  0.00  0.00    +0.000 A 
ATOM      2  C   UNL     1       2.453   8.135  17.531  0.00  0.00    +0.000 A 
ATOM      3  C   UNL     1       1.737   9.266  17.924  0.00  0.00    +0.000 A 
ATOM      4  C   UNL     1       1.213   9.412  19.220  0.00  0.00    +0.000 A 
ATOM      5  C   UNL     1       1.463   8.363  20.131  0.00  0.00    +0.000 A 
ATOM      6  C   UNL     1       2.182   7.206  19.730  0.00  0.00    +0.000 A 
ATOM      7  C   UNL     1       0.932   8.442  21.546  0.00  0.00    +0.000 C 
ATOM      8  N   UNL     1       0.628   9.808  21.996  0.00  0.00    +0.000 NA
ATOM      9  C   UNL     1      -0.037   9.759  23.299  0.00  0.00    +0.000 C 
ATOM     10  C   UNL     1      -0.173  10.457  20.933  0.00  0.00    +0.000 C 
ATOM     11  N   UNL     1       0.446  10.526  19.594  0.00  0.00    +0.000 N 
ATOM     12  C   UNL     1       0.616  11.769  18.853  0.00  0.00    +0.000 C 
ENDROOT
BRANCH  10  13
ATOM     13  C   UNL     1      -0.740  11.808  21.420  0.00  0.00    +0.000 A 
ATOM     14  C   UNL     1       0.116  12.841  21.833  0.00  0.00    +0.000 A 
ATOM     15  C   UNL     1      -0.393  14.022  22.367  0.00  0.00    +0.000 A 
ATOM     16  C   UNL     1      -1.772  14.162  22.562  0.00  0.00    +0.000 A 
ATOM     17  C   UNL     1      -2.646  13.137  22.190  0.00  0.00    +0.000 A 
ATOM     18  C   UNL     1      -4.112  13.239  22.504  0.00  0.00    +0.000 C 
ATOM     19  C   UNL     1      -2.132  11.986  21.575  0.00  0.00    +0.000 A 
ENDBRANCH  10  13
BRANCH   1  20
ATOM     20  O   UNL     1       3.371   5.940  18.036  0.00  0.00    +0.000 OA
BRANCH  20  22
ATOM     21  N   UNL     1       5.365   6.201  16.949  0.00  0.00    +0.000 N 
ATOM     22  C   UNL     1       4.757   5.909  18.137  0.00  0.00    +0.000 C 
ATOM     23  O   UNL     1       5.391   5.666  19.176  0.00  0.00    +0.000 OA
ATOM     24  H   UNL     1       4.828   6.691  16.239  0.00  0.00    +0.000 HD
BRANCH  21  25
ATOM     25  C   UNL     1       6.765   5.896  16.748  0.00  0.00    +0.000 C 
BRANCH  25  26
ATOM     26  C   UNL     1       7.013   4.407  16.475  0.00  0.00    +0.000 C 
BRANCH  26  27
ATOM     27  C   UNL     1       6.310   3.944  15.193  0.00  0.00    +0.000 C 
BRANCH  27  28
ATOM     28  C   UNL     1       6.758   4.753  13.975  0.00  0.00    +0.000 C 
BRANCH  28  29
ATOM     29  C   UNL     1       6.531   3.977  12.676  0.00  0.00    +0.000 C 
BRANCH  29  31
ATOM     30  C   UNL     1       4.427   3.388  11.425  0.00  0.00    +0.000 C 
ATOM     31  C   UNL     1       5.211   3.206  12.714  0.00  0.00    +0.000 C 
ENDBRANCH  29  31
ENDBRANCH  28  29
ENDBRANCH  27  28
ENDBRANCH  26  27
ENDBRANCH  25  26
ENDBRANCH  21  25
ENDBRANCH  20  22
ENDBRANCH   1  20
TORSDOF 9
ENDMDL
MODEL 5
REMARK VINA RESULT:      -7.1      2.378      4.255
REMARK  Name = 
REMARK  13 active torsions:
REMARK  status: ('A' for Active; 'I' for Inactive)
REMARK    1  A    between atoms: C_1  and  C_2
REMARK    2  A    between atoms: C_2  and  C_3
REMARK    3  A    between atoms: C_3  and  C_4
REMARK    4  A    between atoms: C_4  and  C_5
REMARK    5  A    between atoms: C_5  and  C_6
REMARK    6  A    between atoms: C_6  and  C_7
REMARK    7  A    between atoms: C_7  and  N_8
REMARK    8  A    between atoms: C_9  and  O_11
REMARK    9  A    between atoms: O_11  and  C_12
REMARK   10  A    between atoms: N_19  and  C_20
REMARK   11  A    between atoms: C_21  and  C_22
REMARK   12  A    between atoms: C_26  and  C_27
REMARK   13  A    between atoms: N_29  and  C_30
REMARK                            x       y       z     vdW  Elec       q    Type
REMARK                         _______ _______ _______ _____ _____    ______ ____
ROOT
ATOM      1  C   UNL     1       2.003   8.115  18.892  0.00  0.00    +0.000 A 
ATOM      2  C   UNL     1       1.920   7.658  20.203  0.00  0.00    +0.000 A 
ATOM      3  C   UNL     1       1.249   8.410  21.168  0.00  0.00    +0.000 A 
ATOM      4  C   UNL     1       0.665   9.654  20.878  0.00  0.00    +0.000 A 
ATOM      5  C   UNL     1       0.764  10.112  19.546  0.00  0.00    +0.000 A 
ATOM      6  C   UNL     1       1.455   9.354  18.566  0.00  0.00    +0.000 A 
ATOM      7  C   UNL     1       0.162  11.444  19.154  0.00  0.00    +0.000 C 
ATOM      8  N   UNL     1      -0.892  11.917  20.063  0.00  0.00    +0.000 NA
ATOM      9  C   UNL     1      -1.281  13.279  19.698  0.00  0.00    +0.000 C 
ATOM     10  C   UNL     1      -0.378  11.786  21.445  0.00  0.00    +0.000 C 
ATOM     11  N   UNL     1       0.040  10.432  21.865  0.00  0.00    +0.000 N 
ATOM     12  C   UNL     1      -0.481   9.766  23.051  0.00  0.00    +0.000 C 
ENDROOT
BRANCH  10  13
ATOM     13  C   UNL     1      -1.321  12.480  22.451  0.00  0.00    +0.000 A 
ATOM     14  C   UNL     1      -2.676  12.123  22.530  0.00  0.00    +0.000 A 
ATOM     15  C   UNL     1      -3.551  12.816  23.364  0.00  0.00    +0.000 A 
ATOM     16  C   UNL     1      -3.096  13.927  24.084  0.00  0.00    +0.000 A 
ATOM     17  C   UNL     1      -1.760  14.324  23.999  0.00  0.00    +0.000 A 
ATOM     18  C   UNL     1      -1.299  15.583  24.679  0.00  0.00    +0.000 C 
ATOM     19  C   UNL     1      -0.866  13.571  23.224  0.00  0.00    +0.000 A 
ENDBRANCH  10  13
BRANCH   1  20
ATOM     20  O   UNL     1       2.730   7.392  17.924  0.00  0.00    +0.000 OA
BRANCH  20  22
ATOM     21  N   UNL     1       4.233   5.901  18.787  0.00  0.00    +0.000 N 
ATOM     22  C   UNL     1       3.017   6.057  18.183  0.00  0.00    +0.000 C 
ATOM     23  O   UNL     1       2.268   5.102  17.922  0.00  0.00    +0.000 OA
ATOM     24  H   UNL     1       4.646   6.702  19.254  0.00  0.00    +0.000 HD
BRANCH  21  25
ATOM     25  C   UNL     1       4.866   4.601  18.833  0.00  0.00    +0.000 C 
BRANCH  25  26
ATOM     26  C   UNL     1       6.344   4.648  18.423  0.00  0.00    +0.000 C 
BRANCH  26  27
ATOM     27  C   UNL     1       6.943   6.045  18.636  0.00  0.00    +0.000 C 
BRANCH  27  28
ATOM     28  C   UNL     1       7.406   6.672  17.321  0.00  0.00    +0.000 C 
BRANCH  28  29
ATOM     29  C   UNL     1       7.603   8.183  17.462  0.00  0.00    +0.000 C 
BRANCH  29  31
ATOM     30  C   UNL     1       8.872  10.007  18.647  0.00  0.00    +0.000 C 
ATOM     31  C   UNL     1       8.637   8.509  18.540  0.00  0.00    +0.000 C 
ENDBRANCH  29  31
ENDBRANCH  28  29
ENDBRANCH  27  28
ENDBRANCH  26  27
ENDBRANCH  25  26
ENDBRANCH  21  25
ENDBRANCH  20  22
ENDBRANCH   1  20
TORSDOF 9
ENDMDL
MODEL 6
REMARK VINA RESULT:      -7.1      1.132      1.432
REMARK  Name = 
REMARK  13 active torsions:
REMARK  status: ('A' for Active; 'I' for Inactive)
REMARK    1  A    between atoms: C_1  and  C_2
REMARK    2  A    between atoms: C_2  and  C_3
REMARK    3  A    between atoms: C_3  and  C_4
REMARK    4  A    between atoms: C_4  and  C_5
REMARK    5  A    between atoms: C_5  and  C_6
REMARK    6  A    between atoms: C_6  and  C_7
REMARK    7  A    between atoms: C_7  and  N_8
REMARK    8  A    between atoms: C_9  and  O_11
REMARK    9  A    between atoms: O_11  and  C_12
REMARK   10  A    between atoms: N_19  and  C_20
REMARK   11  A    between atoms: C_21  and  C_22
REMARK   12  A    between atoms: C_26  and  C_27
REMARK   13  A    between atoms: N_29  and  C_30
REMARK                            x       y       z     vdW  Elec       q    Type
REMARK                         _______ _______ _______ _____ _____    ______ ____
ROOT
ATOM      1  C   UNL     1       3.010   5.845  18.954  0.00  0.00    +0.000 A 
ATOM      2  C   UNL     1       3.117   6.727  17.885  0.00  0.00    +0.000 A 
ATOM      3  C   UNL     1       2.557   8.003  17.969  0.00  0.00    +0.000 A 
ATOM      4  C   UNL     1       1.846   8.439  19.100  0.00  0.00    +0.000 A 
ATOM      5  C   UNL     1       1.736   7.530  20.175  0.00  0.00    +0.000 A 
ATOM      6  C   UNL     1       2.295   6.228  20.088  0.00  0.00    +0.000 A 
ATOM      7  C   UNL     1       0.985   7.922  21.428  0.00  0.00    +0.000 C 
ATOM      8  N   UNL     1       0.855   9.374  21.620  0.00  0.00    +0.000 NA
ATOM      9  C   UNL     1      -0.029   9.642  22.754  0.00  0.00    +0.000 C 
ATOM     10  C   UNL     1       0.387   9.951  20.340  0.00  0.00    +0.000 C 
ATOM     11  N   UNL     1       1.237   9.702  19.158  0.00  0.00    +0.000 N 
ATOM     12  C   UNL     1       1.757  10.765  18.307  0.00  0.00    +0.000 C 
ENDROOT
BRANCH  10  13
ATOM     13  C   UNL     1      -0.006  11.434  20.515  0.00  0.00    +0.000 A 
ATOM     14  C   UNL     1       0.920  12.369  21.003  0.00  0.00    +0.000 A 
ATOM     15  C   UNL     1       0.540  13.685  21.258  0.00  0.00    +0.000 A 
ATOM     16  C   UNL     1      -0.796  14.070  21.094  0.00  0.00    +0.000 A 
ATOM     17  C   UNL     1      -1.745  13.151  20.640  0.00  0.00    +0.000 A 
ATOM     18  C   UNL     1      -3.198  13.531  20.574  0.00  0.00    +0.000 C 
ATOM     19  C   UNL     1      -1.338  11.851  20.305  0.00  0.00    +0.000 A 
ENDBRANCH  10  13
BRANCH   1  20
ATOM     20  O   UNL     1       3.520   4.533  18.856  0.00  0.00    +0.000 OA
BRANCH  20  22
ATOM     21  N   UNL     1       5.615   5.413  19.104  0.00  0.00    +0.000 N 
ATOM     22  C   UNL     1       4.829   4.307  19.263  0.00  0.00    +0.000 C 
ATOM     23  O   UNL     1       5.255   3.241  19.736  0.00  0.00    +0.000 OA
ATOM     24  H   UNL     1       5.163   6.319  19.022  0.00  0.00    +0.000 HD
BRANCH  21  25
ATOM     25  C   UNL     1       7.057   5.299  19.142  0.00  0.00    +0.000 C 
BRANCH  25  26
ATOM     26  C   UNL     1       7.763   6.564  18.638  0.00  0.00    +0.000 C 
BRANCH  26  27
ATOM     27  C   UNL     1       7.079   7.132  17.388  0.00  0.00    +0.000 C 
BRANCH  27  28
ATOM     28  C   UNL     1       7.072   6.126  16.237  0.00  0.00    +0.000 C 
BRANCH  28  29
ATOM     29  C   UNL     1       5.693   6.037  15.581  0.00  0.00    +0.000 C 
BRANCH  29  31
ATOM     30  C   UNL     1       5.737   3.525  15.757  0.00  0.00    +0.000 C 
ATOM     31  C   UNL     1       5.518   4.714  14.835  0.00  0.00    +0.000 C 
ENDBRANCH  29  31
ENDBRANCH  28  29
ENDBRANCH  27  28
ENDBRANCH  26  27
ENDBRANCH  25  26
ENDBRANCH  21  25
ENDBRANCH  20  22
ENDBRANCH   1  20
TORSDOF 9
ENDMDL
MODEL 7
REMARK VINA RESULT:      -7.0      2.093      3.596
REMARK  Name = 
REMARK  13 active torsions:
REMARK  status: ('A' for Active; 'I' for Inactive)
REMARK    1  A    between atoms: C_1  and  C_2
REMARK    2  A    between atoms: C_2  and  C_3
REMARK    3  A    between atoms: C_3  and  C_4
REMARK    4  A    between atoms: C_4  and  C_5
REMARK    5  A    between atoms: C_5  and  C_6
REMARK    6  A    between atoms: C_6  and  C_7
REMARK    7  A    between atoms: C_7  and  N_8
REMARK    8  A    between atoms: C_9  and  O_11
REMARK    9  A    between atoms: O_11  and  C_12
REMARK   10  A    between atoms: N_19  and  C_20
REMARK   11  A    between atoms: C_21  and  C_22
REMARK   12  A    between atoms: C_26  and  C_27
REMARK   13  A    between atoms: N_29  and  C_30
REMARK                            x       y       z     vdW  Elec       q    Type
REMARK                         _______ _______ _______ _____ _____    ______ ____
ROOT
ATOM      1  C   UNL     1       1.923   8.157  19.073  0.00  0.00    +0.000 A 
ATOM      2  C   UNL     1       1.828   7.726  20.392  0.00  0.00    +0.000 A 
ATOM      3  C   UNL     1       1.157   8.502  21.337  0.00  0.00    +0.000 A 
ATOM      4  C   UNL     1       0.584   9.746  21.019  0.00  0.00    +0.000 A 
ATOM      5  C   UNL     1       0.696  10.177  19.679  0.00  0.00    +0.000 A 
ATOM      6  C   UNL     1       1.388   9.394  18.718  0.00  0.00    +0.000 A 
ATOM      7  C   UNL     1       0.108  11.505  19.257  0.00  0.00    +0.000 C 
ATOM      8  N   UNL     1      -0.949  12.004  20.149  0.00  0.00    +0.000 NA
ATOM      9  C   UNL     1      -1.323  13.362  19.754  0.00  0.00    +0.000 C 
ATOM     10  C   UNL     1      -0.444  11.896  21.537  0.00  0.00    +0.000 C 
ATOM     11  N   UNL     1      -0.041  10.548  21.986  0.00  0.00    +0.000 N 
ATOM     12  C   UNL     1      -0.575   9.909  23.181  0.00  0.00    +0.000 C 
ENDROOT
BRANCH  10  13
ATOM     13  C   UNL     1      -1.388  12.618  22.523  0.00  0.00    +0.000 A 
ATOM     14  C   UNL     1      -2.746  12.271  22.602  0.00  0.00    +0.000 A 
ATOM     15  C   UNL     1      -3.621  12.987  23.416  0.00  0.00    +0.000 A 
ATOM     16  C   UNL     1      -3.162  14.111  24.114  0.00  0.00    +0.000 A 
ATOM     17  C   UNL     1      -1.823  14.498  24.028  0.00  0.00    +0.000 A 
ATOM     18  C   UNL     1      -1.358  15.768  24.683  0.00  0.00    +0.000 C 
ATOM     19  C   UNL     1      -0.931  13.722  23.274  0.00  0.00    +0.000 A 
ENDBRANCH  10  13
BRANCH   1  20
ATOM     20  O   UNL     1       2.650   7.408  18.124  0.00  0.00    +0.000 OA
BRANCH  20  22
ATOM     21  N   UNL     1       4.047   5.781  18.917  0.00  0.00    +0.000 N 
ATOM     22  C   UNL     1       2.829   6.050  18.359  0.00  0.00    +0.000 C 
ATOM     23  O   UNL     1       1.991   5.168  18.115  0.00  0.00    +0.000 OA
ATOM     24  H   UNL     1       4.544   6.538  19.377  0.00  0.00    +0.000 HD
BRANCH  21  25
ATOM     25  C   UNL     1       4.566   4.431  18.927  0.00  0.00    +0.000 C 
BRANCH  25  26
ATOM     26  C   UNL     1       5.190   4.028  17.585  0.00  0.00    +0.000 C 
BRANCH  26  27
ATOM     27  C   UNL     1       6.629   4.543  17.454  0.00  0.00    +0.000 C 
BRANCH  27  28
ATOM     28  C   UNL     1       6.724   5.726  16.490  0.00  0.00    +0.000 C 
BRANCH  28  29
ATOM     29  C   UNL     1       5.943   5.460  15.201  0.00  0.00    +0.000 C 
BRANCH  29  31
ATOM     30  C   UNL     1       6.045   3.692  13.410  0.00  0.00    +0.000 C 
ATOM     31  C   UNL     1       6.818   4.768  14.155  0.00  0.00    +0.000 C 
ENDBRANCH  29  31
ENDBRANCH  28  29
ENDBRANCH  27  28
ENDBRANCH  26  27
ENDBRANCH  25  26
ENDBRANCH  21  25
ENDBRANCH  20  22
ENDBRANCH   1  20
TORSDOF 9
ENDMDL
MODEL 8
REMARK VINA RESULT:      -7.0      2.217      3.981
REMARK  Name = 
REMARK  13 active torsions:
REMARK  status: ('A' for Active; 'I' for Inactive)
REMARK    1  A    between atoms: C_1  and  C_2
REMARK    2  A    between atoms: C_2  and  C_3
REMARK    3  A    between atoms: C_3  and  C_4
REMARK    4  A    between atoms: C_4  and  C_5
REMARK    5  A    between atoms: C_5  and  C_6
REMARK    6  A    between atoms: C_6  and  C_7
REMARK    7  A    between atoms: C_7  and  N_8
REMARK    8  A    between atoms: C_9  and  O_11
REMARK    9  A    between atoms: O_11  and  C_12
REMARK   10  A    between atoms: N_19  and  C_20
REMARK   11  A    between atoms: C_21  and  C_22
REMARK   12  A    between atoms: C_26  and  C_27
REMARK   13  A    between atoms: N_29  and  C_30
REMARK                            x       y       z     vdW  Elec       q    Type
REMARK                         _______ _______ _______ _____ _____    ______ ____
ROOT
ATOM      1  C   UNL     1       1.962   8.133  19.029  0.00  0.00    +0.000 A 
ATOM      2  C   UNL     1       1.950   7.721  20.357  0.00  0.00    +0.000 A 
ATOM      3  C   UNL     1       1.279   8.477  21.319  0.00  0.00    +0.000 A 
ATOM      4  C   UNL     1       0.625   9.681  21.008  0.00  0.00    +0.000 A 
ATOM      5  C   UNL     1       0.653  10.093  19.658  0.00  0.00    +0.000 A 
ATOM      6  C   UNL     1       1.344   9.332  18.679  0.00  0.00    +0.000 A 
ATOM      7  C   UNL     1      -0.026  11.379  19.242  0.00  0.00    +0.000 C 
ATOM      8  N   UNL     1      -1.067  11.836  20.174  0.00  0.00    +0.000 NA
ATOM      9  C   UNL     1      -1.534  13.165  19.775  0.00  0.00    +0.000 C 
ATOM     10  C   UNL     1      -0.497  11.781  21.538  0.00  0.00    +0.000 C 
ATOM     11  N   UNL     1      -0.000  10.465  21.990  0.00  0.00    +0.000 N 
ATOM     12  C   UNL     1      -0.445   9.820  23.218  0.00  0.00    +0.000 C 
ENDROOT
BRANCH  10  13
ATOM     13  C   UNL     1      -1.435  12.468  22.555  0.00  0.00    +0.000 A 
ATOM     14  C   UNL     1      -2.778  12.076  22.671  0.00  0.00    +0.000 A 
ATOM     15  C   UNL     1      -3.652  12.760  23.514  0.00  0.00    +0.000 A 
ATOM     16  C   UNL     1      -3.210  13.895  24.204  0.00  0.00    +0.000 A 
ATOM     17  C   UNL     1      -1.887  14.327  24.081  0.00  0.00    +0.000 A 
ATOM     18  C   UNL     1      -1.444  15.609  24.729  0.00  0.00    +0.000 C 
ATOM     19  C   UNL     1      -0.992  13.583  23.298  0.00  0.00    +0.000 A 
ENDBRANCH  10  13
BRANCH   1  20
ATOM     20  O   UNL     1       2.687   7.408  18.060  0.00  0.00    +0.000 OA
BRANCH  20  22
ATOM     21  N   UNL     1       3.733   5.403  17.727  0.00  0.00    +0.000 N 
ATOM     22  C   UNL     1       2.558   6.024  18.044  0.00  0.00    +0.000 C 
ATOM     23  O   UNL     1       1.516   5.402  18.301  0.00  0.00    +0.000 OA
ATOM     24  H   UNL     1       4.599   5.921  17.839  0.00  0.00    +0.000 HD
BRANCH  21  25
ATOM     25  C   UNL     1       3.742   4.012  17.327  0.00  0.00    +0.000 C 
BRANCH  25  26
ATOM     26  C   UNL     1       4.982   3.642  16.503  0.00  0.00    +0.000 C 
BRANCH  26  27
ATOM     27  C   UNL     1       5.422   4.799  15.597  0.00  0.00    +0.000 C 
BRANCH  27  28
ATOM     28  C   UNL     1       6.926   5.057  15.694  0.00  0.00    +0.000 C 
BRANCH  28  29
ATOM     29  C   UNL     1       7.310   5.609  17.069  0.00  0.00    +0.000 C 
BRANCH  29  31
ATOM     30  C   UNL     1       7.898   7.892  17.954  0.00  0.00    +0.000 C 
ATOM     31  C   UNL     1       6.851   7.058  17.232  0.00  0.00    +0.000 C 
ENDBRANCH  29  31
ENDBRANCH  28  29
ENDBRANCH  27  28
ENDBRANCH  26  27
ENDBRANCH  25  26
ENDBRANCH  21  25
ENDBRANCH  20  22
ENDBRANCH   1  20
TORSDOF 9
ENDMDL
MODEL 9
REMARK VINA RESULT:      -7.0      2.655      3.799
REMARK  Name = 
REMARK  13 active torsions:
REMARK  status: ('A' for Active; 'I' for Inactive)
REMARK    1  A    between atoms: C_1  and  C_2
REMARK    2  A    between atoms: C_2  and  C_3
REMARK    3  A    between atoms: C_3  and  C_4
REMARK    4  A    between atoms: C_4  and  C_5
REMARK    5  A    between atoms: C_5  and  C_6
REMARK    6  A    between atoms: C_6  and  C_7
REMARK    7  A    between atoms: C_7  and  N_8
REMARK    8  A    between atoms: C_9  and  O_11
REMARK    9  A    between atoms: O_11  and  C_12
REMARK   10  A    between atoms: N_19  and  C_20
REMARK   11  A    between atoms: C_21  and  C_22
REMARK   12  A    between atoms: C_26  and  C_27
REMARK   13  A    between atoms: N_29  and  C_30
REMARK                            x       y       z     vdW  Elec       q    Type
REMARK                         _______ _______ _______ _____ _____    ______ ____
ROOT
ATOM      1  C   UNL     1       2.873   6.914  18.572  0.00  0.00    +0.000 A 
ATOM      2  C   UNL     1       2.789   7.921  17.617  0.00  0.00    +0.000 A 
ATOM      3  C   UNL     1       2.093   9.097  17.897  0.00  0.00    +0.000 A 
ATOM      4  C   UNL     1       1.429   9.306  19.118  0.00  0.00    +0.000 A 
ATOM      5  C   UNL     1       1.514   8.272  20.076  0.00  0.00    +0.000 A 
ATOM      6  C   UNL     1       2.212   7.069  19.789  0.00  0.00    +0.000 A 
ATOM      7  C   UNL     1       0.826   8.418  21.415  0.00  0.00    +0.000 C 
ATOM      8  N   UNL     1       0.544   9.810  21.796  0.00  0.00    +0.000 NA
ATOM      9  C   UNL     1      -0.271   9.831  23.011  0.00  0.00    +0.000 C 
ATOM     10  C   UNL     1      -0.091  10.468  20.631  0.00  0.00    +0.000 C 
ATOM     11  N   UNL     1       0.684  10.467  19.374  0.00  0.00    +0.000 N 
ATOM     12  C   UNL     1       1.006  11.679  18.631  0.00  0.00    +0.000 C 
ENDROOT
BRANCH  10  13
ATOM     13  C   UNL     1      -0.638  11.859  21.017  0.00  0.00    +0.000 A 
ATOM     14  C   UNL     1       0.140  12.756  21.766  0.00  0.00    +0.000 A 
ATOM     15  C   UNL     1      -0.387  13.969  22.202  0.00  0.00    +0.000 A 
ATOM     16  C   UNL     1      -1.730  14.277  21.952  0.00  0.00    +0.000 A 
ATOM     17  C   UNL     1      -2.537  13.389  21.237  0.00  0.00    +0.000 A 
ATOM     18  C   UNL     1      -4.004  13.664  21.069  0.00  0.00    +0.000 C 
ATOM     19  C   UNL     1      -1.976  12.208  20.729  0.00  0.00    +0.000 A 
ENDBRANCH  10  13
BRANCH   1  20
ATOM     20  O   UNL     1       3.523   5.697  18.276  0.00  0.00    +0.000 OA
BRANCH  20  22
ATOM     21  N   UNL     1       5.627   6.545  17.999  0.00  0.00    +0.000 N 
ATOM     22  C   UNL     1       4.657   5.738  17.475  0.00  0.00    +0.000 C 
ATOM     23  O   UNL     1       4.804   5.112  16.413  0.00  0.00    +0.000 OA
ATOM     24  H   UNL     1       5.586   6.768  18.989  0.00  0.00    +0.000 HD
BRANCH  21  25
ATOM     25  C   UNL     1       6.732   6.992  17.178  0.00  0.00    +0.000 C 
BRANCH  25  26
ATOM     26  C   UNL     1       7.875   7.596  18.003  0.00  0.00    +0.000 C 
BRANCH  26  27
ATOM     27  C   UNL     1       8.061   9.088  17.701  0.00  0.00    +0.000 C 
BRANCH  27  28
ATOM     28  C   UNL     1       8.931   9.777  18.753  0.00  0.00    +0.000 C 
BRANCH  28  29
ATOM     29  C   UNL     1       9.721  10.940  18.149  0.00  0.00    +0.000 C 
BRANCH  29  31
ATOM     30  C   UNL     1       8.139  12.777  17.466  0.00  0.00    +0.000 C 
ATOM     31  C   UNL     1       9.105  12.286  18.532  0.00  0.00    +0.000 C 
ENDBRANCH  29  31
ENDBRANCH  28  29
ENDBRANCH  27  28
ENDBRANCH  26  27
ENDBRANCH  25  26
ENDBRANCH  21  25
ENDBRANCH  20  22
ENDBRANCH   1  20
TORSDOF 9
ENDMDL
