MODEL 1
REMARK VINA RESULT:      -8.4      0.000      0.000
REMARK  Name = 
REMARK  2 active torsions:
REMARK  status: ('A' for Active; 'I' for Inactive)
REMARK    1  A    between atoms: C_1  and  N_2
REMARK    2  A    between atoms: C_8  and  C_9
REMARK                            x       y       z     vdW  Elec       q    Type
REMARK                         _______ _______ _______ _____ _____    ______ ____
ROOT
ATOM      1  C   UNL     1       0.982   2.868  20.212  0.00  0.00    +0.000 C 
ATOM      2  N   UNL     1       2.372   3.312  20.144  0.00  0.00    +0.000 NA
ATOM      3  C   UNL     1       2.447   4.774  19.878  0.00  0.00    +0.000 C 
ATOM      4  C   UNL     1       3.901   5.295  19.696  0.00  0.00    +0.000 C 
ATOM      5  N   UNL     1       4.532   4.497  18.650  0.00  0.00    +0.000 N 
ATOM      6  C   UNL     1       5.483   5.049  17.816  0.00  0.00    +0.000 A 
ATOM      7  C   UNL     1       5.589   4.525  16.547  0.00  0.00    +0.000 A 
ATOM      8  C   UNL     1       6.439   5.139  15.658  0.00  0.00    +0.000 A 
ATOM      9  N   UNL     1       7.192   6.191  16.019  0.00  0.00    +0.000 NA
ATOM     10  C   UNL     1       7.035   6.636  17.267  0.00  0.00    +0.000 A 
ATOM     11  N   UNL     1       7.833   7.696  17.654  0.00  0.00    +0.000 N 
ATOM     12  N   UNL     1       6.202   6.118  18.181  0.00  0.00    +0.000 NA
ATOM     13  C   UNL     1       4.549   3.055  18.917  0.00  0.00    +0.000 C 
ATOM     14  C   UNL     1       3.093   2.571  19.083  0.00  0.00    +0.000 C 
ATOM     15  H   UNL     1       8.662   7.711  17.074  0.00  0.00    +0.000 HD
ATOM     16  H   UNL     1       7.970   7.664  18.655  0.00  0.00    +0.000 HD
ENDROOT
BRANCH   8  17
ATOM     17  C   UNL     1       6.474   4.693  14.243  0.00  0.00    +0.000 C 
ATOM     18  C   UNL     1       5.529   3.868  13.759  0.00  0.00    +0.000 C 
ATOM     19  C   UNL     1       5.583   3.258  12.389  0.00  0.00    +0.000 C 
ATOM     20  C   UNL     1       6.964   3.376  11.741  0.00  0.00    +0.000 C 
ATOM     21  C   UNL     1       7.521   4.783  11.912  0.00  0.00    +0.000 C 
ATOM     22  C   UNL     1       7.649   5.136  13.393  0.00  0.00    +0.000 C 
ENDBRANCH   8  17
TORSDOF 1
ENDMDL
MODEL 2
REMARK VINA RESULT:      -7.7      0.316      1.162
REMARK  Name = 
REMARK  2 active torsions:
REMARK  status: ('A' for Active; 'I' for Inactive)
REMARK    1  A    between atoms: C_1  and  N_2
REMARK    2  A    between atoms: C_8  and  C_9
REMARK                            x       y       z     vdW  Elec       q    Type
REMARK                         _______ _______ _______ _____ _____    ______ ____
ROOT
ATOM      1  C   UNL     1       0.819   3.011  20.042  0.00  0.00    +0.000 C 
ATOM      2  N   UNL     1       2.216   3.438  20.057  0.00  0.00    +0.000 NA
ATOM      3  C   UNL     1       2.327   4.896  19.783  0.00  0.00    +0.000 C 
ATOM      4  C   UNL     1       3.797   5.396  19.686  0.00  0.00    +0.000 C 
ATOM      5  N   UNL     1       4.481   4.579  18.690  0.00  0.00    +0.000 N 
ATOM      6  C   UNL     1       5.489   5.111  17.912  0.00  0.00    +0.000 A 
ATOM      7  C   UNL     1       5.667   4.573  16.657  0.00  0.00    +0.000 A 
ATOM      8  C   UNL     1       6.579   5.166  15.816  0.00  0.00    +0.000 A 
ATOM      9  N   UNL     1       7.322   6.212  16.214  0.00  0.00    +0.000 NA
ATOM     10  C   UNL     1       7.093   6.672  17.446  0.00  0.00    +0.000 A 
ATOM     11  N   UNL     1       7.880   7.726  17.871  0.00  0.00    +0.000 N 
ATOM     12  N   UNL     1       6.198   6.175  18.311  0.00  0.00    +0.000 NA
ATOM     13  C   UNL     1       4.462   3.140  18.971  0.00  0.00    +0.000 C 
ATOM     14  C   UNL     1       2.992   2.676  19.051  0.00  0.00    +0.000 C 
ATOM     15  H   UNL     1       8.743   7.724  17.344  0.00  0.00    +0.000 HD
ATOM     16  H   UNL     1       7.954   7.703  18.879  0.00  0.00    +0.000 HD
ENDROOT
BRANCH   8  17
ATOM     17  C   UNL     1       6.696   4.705  14.411  0.00  0.00    +0.000 C 
ATOM     18  C   UNL     1       7.670   5.176  13.613  0.00  0.00    +0.000 C 
ATOM     19  C   UNL     1       7.759   4.872  12.146  0.00  0.00    +0.000 C 
ATOM     20  C   UNL     1       6.466   4.281  11.582  0.00  0.00    +0.000 C 
ATOM     21  C   UNL     1       5.927   3.191  12.499  0.00  0.00    +0.000 C 
ATOM     22  C   UNL     1       5.638   3.751  13.891  0.00  0.00    +0.000 C 
ENDBRANCH   8  17
TORSDOF 1
ENDMDL
MODEL 3
REMARK VINA RESULT:      -7.3      2.986      7.281
REMARK  Name = 
REMARK  2 active torsions:
REMARK  status: ('A' for Active; 'I' for Inactive)
REMARK    1  A    between atoms: C_1  and  N_2
REMARK    2  A    between atoms: C_8  and  C_9
REMARK                            x       y       z     vdW  Elec       q    Type
REMARK                         _______ _______ _______ _____ _____    ______ ____
ROOT
ATOM      1  C   UNL     1       7.036   4.835  14.279  0.00  0.00    +0.000 C 
ATOM      2  N   UNL     1       6.705   4.640  15.689  0.00  0.00    +0.000 NA
ATOM      3  C   UNL     1       5.472   3.820  15.833  0.00  0.00    +0.000 C 
ATOM      4  C   UNL     1       5.007   3.658  17.309  0.00  0.00    +0.000 C 
ATOM      5  N   UNL     1       4.869   4.993  17.881  0.00  0.00    +0.000 N 
ATOM      6  C   UNL     1       3.917   5.254  18.845  0.00  0.00    +0.000 A 
ATOM      7  C   UNL     1       3.414   6.534  18.904  0.00  0.00    +0.000 A 
ATOM      8  C   UNL     1       2.376   6.788  19.770  0.00  0.00    +0.000 A 
ATOM      9  N   UNL     1       1.890   5.834  20.581  0.00  0.00    +0.000 NA
ATOM     10  C   UNL     1       2.434   4.620  20.466  0.00  0.00    +0.000 A 
ATOM     11  N   UNL     1       1.962   3.644  21.324  0.00  0.00    +0.000 N 
ATOM     12  N   UNL     1       3.420   4.283  19.623  0.00  0.00    +0.000 NA
ATOM     13  C   UNL     1       6.091   5.802  17.830  0.00  0.00    +0.000 C 
ATOM     14  C   UNL     1       6.518   5.951  16.354  0.00  0.00    +0.000 C 
ATOM     15  H   UNL     1       1.569   4.089  22.142  0.00  0.00    +0.000 HD
ATOM     16  H   UNL     1       2.683   2.953  21.475  0.00  0.00    +0.000 HD
ENDROOT
BRANCH   8  17
ATOM     17  C   UNL     1       1.714   8.116  19.759  0.00  0.00    +0.000 C 
ATOM     18  C   UNL     1       1.116   8.593  20.864  0.00  0.00    +0.000 C 
ATOM     19  C   UNL     1       0.301   9.853  20.887  0.00  0.00    +0.000 C 
ATOM     20  C   UNL     1      -0.076  10.341  19.487  0.00  0.00    +0.000 C 
ATOM     21  C   UNL     1       1.130  10.296  18.559  0.00  0.00    +0.000 C 
ATOM     22  C   UNL     1       1.671   8.871  18.445  0.00  0.00    +0.000 C 
ENDBRANCH   8  17
TORSDOF 1
ENDMDL
MODEL 4
REMARK VINA RESULT:      -7.2      3.003      7.434
REMARK  Name = 
REMARK  2 active torsions:
REMARK  status: ('A' for Active; 'I' for Inactive)
REMARK    1  A    between atoms: C_1  and  N_2
REMARK    2  A    between atoms: C_8  and  C_9
REMARK                            x       y       z     vdW  Elec       q    Type
REMARK                         _______ _______ _______ _____ _____    ______ ____
ROOT
ATOM      1  C   UNL     1       6.889   4.797  14.445  0.00  0.00    +0.000 C 
ATOM      2  N   UNL     1       6.558   4.601  15.855  0.00  0.00    +0.000 NA
ATOM      3  C   UNL     1       5.326   3.780  15.999  0.00  0.00    +0.000 C 
ATOM      4  C   UNL     1       4.862   3.616  17.475  0.00  0.00    +0.000 C 
ATOM      5  N   UNL     1       4.724   4.951  18.049  0.00  0.00    +0.000 N 
ATOM      6  C   UNL     1       3.772   5.210  19.014  0.00  0.00    +0.000 A 
ATOM      7  C   UNL     1       3.267   6.490  19.074  0.00  0.00    +0.000 A 
ATOM      8  C   UNL     1       2.230   6.742  19.940  0.00  0.00    +0.000 A 
ATOM      9  N   UNL     1       1.745   5.787  20.751  0.00  0.00    +0.000 NA
ATOM     10  C   UNL     1       2.290   4.573  20.635  0.00  0.00    +0.000 A 
ATOM     11  N   UNL     1       1.818   3.596  21.492  0.00  0.00    +0.000 N 
ATOM     12  N   UNL     1       3.276   4.238  19.791  0.00  0.00    +0.000 NA
ATOM     13  C   UNL     1       5.945   5.761  17.997  0.00  0.00    +0.000 C 
ATOM     14  C   UNL     1       6.371   5.911  16.521  0.00  0.00    +0.000 C 
ATOM     15  H   UNL     1       1.426   4.040  22.311  0.00  0.00    +0.000 HD
ATOM     16  H   UNL     1       2.540   2.906  21.642  0.00  0.00    +0.000 HD
ENDROOT
BRANCH   8  17
ATOM     17  C   UNL     1       1.567   8.069  19.931  0.00  0.00    +0.000 C 
ATOM     18  C   UNL     1       1.654   8.873  18.857  0.00  0.00    +0.000 C 
ATOM     19  C   UNL     1       1.139  10.282  18.833  0.00  0.00    +0.000 C 
ATOM     20  C   UNL     1       0.836  10.828  20.230  0.00  0.00    +0.000 C 
ATOM     21  C   UNL     1       0.061   9.806  21.050  0.00  0.00    +0.000 C 
ATOM     22  C   UNL     1       0.861   8.513  21.198  0.00  0.00    +0.000 C 
ENDBRANCH   8  17
TORSDOF 1
ENDMDL
MODEL 5
REMARK VINA RESULT:      -6.9      3.814      5.865
REMARK  Name = 
REMARK  2 active torsions:
REMARK  status: ('A' for Active; 'I' for Inactive)
REMARK    1  A    between atoms: C_1  and  N_2
REMARK    2  A    between atoms: C_8  and  C_9
REMARK                            x       y       z     vdW  Elec       q    Type
REMARK                         _______ _______ _______ _____ _____    ______ ____
ROOT
ATOM      1  C   UNL     1       1.173  12.625  19.879  0.00  0.00    +0.000 C 
ATOM      2  N   UNL     1       0.813  11.210  19.827  0.00  0.00    +0.000 NA
ATOM      3  C   UNL     1       1.323  10.490  21.024  0.00  0.00    +0.000 C 
ATOM      4  C   UNL     1       1.058   8.958  20.982  0.00  0.00    +0.000 C 
ATOM      5  N   UNL     1       1.613   8.444  19.734  0.00  0.00    +0.000 N 
ATOM      6  C   UNL     1       2.131   7.167  19.664  0.00  0.00    +0.000 A 
ATOM      7  C   UNL     1       3.137   6.944  18.751  0.00  0.00    +0.000 A 
ATOM      8  C   UNL     1       3.755   5.717  18.748  0.00  0.00    +0.000 A 
ATOM      9  N   UNL     1       3.364   4.732  19.574  0.00  0.00    +0.000 NA
ATOM     10  C   UNL     1       2.379   5.025  20.427  0.00  0.00    +0.000 A 
ATOM     11  N   UNL     1       1.949   4.005  21.254  0.00  0.00    +0.000 N 
ATOM     12  N   UNL     1       1.752   6.206  20.517  0.00  0.00    +0.000 NA
ATOM     13  C   UNL     1       1.072   9.076  18.527  0.00  0.00    +0.000 C 
ATOM     14  C   UNL     1       1.359  10.591  18.597  0.00  0.00    +0.000 C 
ATOM     15  H   UNL     1       2.173   3.118  20.823  0.00  0.00    +0.000 HD
ATOM     16  H   UNL     1       0.984   4.164  21.509  0.00  0.00    +0.000 HD
ENDROOT
BRANCH   8  17
ATOM     17  C   UNL     1       4.936   5.486  17.879  0.00  0.00    +0.000 C 
ATOM     18  C   UNL     1       4.884   5.759  16.564  0.00  0.00    +0.000 C 
ATOM     19  C   UNL     1       5.981   5.412  15.601  0.00  0.00    +0.000 C 
ATOM     20  C   UNL     1       6.989   4.418  16.183  0.00  0.00    +0.000 C 
ATOM     21  C   UNL     1       7.388   4.821  17.596  0.00  0.00    +0.000 C 
ATOM     22  C   UNL     1       6.166   4.863  18.511  0.00  0.00    +0.000 C 
ENDBRANCH   8  17
TORSDOF 1
ENDMDL
MODEL 6
REMARK VINA RESULT:      -6.9      3.519      5.752
REMARK  Name = 
REMARK  2 active torsions:
REMARK  status: ('A' for Active; 'I' for Inactive)
REMARK    1  A    between atoms: C_1  and  N_2
REMARK    2  A    between atoms: C_8  and  C_9
REMARK                            x       y       z     vdW  Elec       q    Type
REMARK                         _______ _______ _______ _____ _____    ______ ____
ROOT
ATOM      1  C   UNL     1       1.381  12.179  19.507  0.00  0.00    +0.000 C 
ATOM      2  N   UNL     1       0.993  10.772  19.558  0.00  0.00    +0.000 NA
ATOM      3  C   UNL     1       1.482  10.133  20.810  0.00  0.00    +0.000 C 
ATOM      4  C   UNL     1       1.187   8.608  20.882  0.00  0.00    +0.000 C 
ATOM      5  N   UNL     1       1.737   7.991  19.680  0.00  0.00    +0.000 N 
ATOM      6  C   UNL     1       2.230   6.702  19.709  0.00  0.00    +0.000 A 
ATOM      7  C   UNL     1       3.237   6.392  18.822  0.00  0.00    +0.000 A 
ATOM      8  C   UNL     1       3.830   5.155  18.916  0.00  0.00    +0.000 A 
ATOM      9  N   UNL     1       3.414   4.244  19.811  0.00  0.00    +0.000 NA
ATOM     10  C   UNL     1       2.431   4.620  20.633  0.00  0.00    +0.000 A 
ATOM     11  N   UNL     1       1.976   3.673  21.531  0.00  0.00    +0.000 N 
ATOM     12  N   UNL     1       1.827   5.816  20.630  0.00  0.00    +0.000 NA
ATOM     13  C   UNL     1       1.216   8.541  18.424  0.00  0.00    +0.000 C 
ATOM     14  C   UNL     1       1.533  10.051  18.382  0.00  0.00    +0.000 C 
ATOM     15  H   UNL     1       2.184   2.752  21.170  0.00  0.00    +0.000 HD
ATOM     16  H   UNL     1       1.014   3.870  21.767  0.00  0.00    +0.000 HD
ENDROOT
BRANCH   8  17
ATOM     17  C   UNL     1       5.010   4.837  18.075  0.00  0.00    +0.000 C 
ATOM     18  C   UNL     1       6.255   4.944  18.569  0.00  0.00    +0.000 C 
ATOM     19  C   UNL     1       7.494   4.786  17.737  0.00  0.00    +0.000 C 
ATOM     20  C   UNL     1       7.212   4.845  16.235  0.00  0.00    +0.000 C 
ATOM     21  C   UNL     1       6.006   3.985  15.880  0.00  0.00    +0.000 C 
ATOM     22  C   UNL     1       4.762   4.466  16.625  0.00  0.00    +0.000 C 
ENDBRANCH   8  17
TORSDOF 1
ENDMDL
MODEL 7
REMARK VINA RESULT:      -6.7      2.680      7.063
REMARK  Name = 
REMARK  2 active torsions:
REMARK  status: ('A' for Active; 'I' for Inactive)
REMARK    1  A    between atoms: C_1  and  N_2
REMARK    2  A    between atoms: C_8  and  C_9
REMARK                            x       y       z     vdW  Elec       q    Type
REMARK                         _______ _______ _______ _____ _____    ______ ____
ROOT
ATOM      1  C   UNL     1       7.522   5.117  13.260  0.00  0.00    +0.000 C 
ATOM      2  N   UNL     1       7.280   4.830  14.672  0.00  0.00    +0.000 NA
ATOM      3  C   UNL     1       6.146   3.882  14.832  0.00  0.00    +0.000 C 
ATOM      4  C   UNL     1       5.771   3.611  16.318  0.00  0.00    +0.000 C 
ATOM      5  N   UNL     1       5.526   4.900  16.957  0.00  0.00    +0.000 N 
ATOM      6  C   UNL     1       4.599   5.020  17.972  0.00  0.00    +0.000 A 
ATOM      7  C   UNL     1       3.971   6.237  18.112  0.00  0.00    +0.000 A 
ATOM      8  C   UNL     1       2.956   6.345  19.032  0.00  0.00    +0.000 A 
ATOM      9  N   UNL     1       2.609   5.313  19.819  0.00  0.00    +0.000 NA
ATOM     10  C   UNL     1       3.268   4.168  19.625  0.00  0.00    +0.000 A 
ATOM     11  N   UNL     1       2.939   3.114  20.456  0.00  0.00    +0.000 N 
ATOM     12  N   UNL     1       4.242   3.971  18.725  0.00  0.00    +0.000 NA
ATOM     13  C   UNL     1       6.655   5.833  16.889  0.00  0.00    +0.000 C 
ATOM     14  C   UNL     1       6.994   6.086  15.405  0.00  0.00    +0.000 C 
ATOM     15  H   UNL     1       2.543   3.481  21.311  0.00  0.00    +0.000 HD
ATOM     16  H   UNL     1       3.734   2.496  20.544  0.00  0.00    +0.000 HD
ENDROOT
BRANCH   8  17
ATOM     17  C   UNL     1       2.162   7.597  19.112  0.00  0.00    +0.000 C 
ATOM     18  C   UNL     1       2.018   8.388  18.035  0.00  0.00    +0.000 C 
ATOM     19  C   UNL     1       1.360   9.736  18.080  0.00  0.00    +0.000 C 
ATOM     20  C   UNL     1       1.193  10.268  19.504  0.00  0.00    +0.000 C 
ATOM     21  C   UNL     1       0.647   9.184  20.423  0.00  0.00    +0.000 C 
ATOM     22  C   UNL     1       1.592   7.984  20.463  0.00  0.00    +0.000 C 
ENDBRANCH   8  17
TORSDOF 1
ENDMDL
MODEL 8
REMARK VINA RESULT:      -6.5      3.952      5.967
REMARK  Name = 
REMARK  2 active torsions:
REMARK  status: ('A' for Active; 'I' for Inactive)
REMARK    1  A    between atoms: C_1  and  N_2
REMARK    2  A    between atoms: C_8  and  C_9
REMARK                            x       y       z     vdW  Elec       q    Type
REMARK                         _______ _______ _______ _____ _____    ______ ____
ROOT
ATOM      1  C   UNL     1       1.132  12.662  20.611  0.00  0.00    +0.000 C 
ATOM      2  N   UNL     1       0.725  11.259  20.564  0.00  0.00    +0.000 NA
ATOM      3  C   UNL     1       1.449  10.463  21.591  0.00  0.00    +0.000 C 
ATOM      4  C   UNL     1       1.134   8.942  21.529  0.00  0.00    +0.000 C 
ATOM      5  N   UNL     1       1.402   8.487  20.169  0.00  0.00    +0.000 N 
ATOM      6  C   UNL     1       1.855   7.206  19.928  0.00  0.00    +0.000 A 
ATOM      7  C   UNL     1       2.643   7.014  18.816  0.00  0.00    +0.000 A 
ATOM      8  C   UNL     1       3.209   5.776  18.623  0.00  0.00    +0.000 A 
ATOM      9  N   UNL     1       2.966   4.755  19.462  0.00  0.00    +0.000 NA
ATOM     10  C   UNL     1       2.189   5.021  20.514  0.00  0.00    +0.000 A 
ATOM     11  N   UNL     1       1.908   3.965  21.360  0.00  0.00    +0.000 N 
ATOM     12  N   UNL     1       1.631   6.207  20.792  0.00  0.00    +0.000 NA
ATOM     13  C   UNL     1       0.643   9.196  19.133  0.00  0.00    +0.000 C 
ATOM     14  C   UNL     1       0.986  10.698  19.218  0.00  0.00    +0.000 C 
ATOM     15  H   UNL     1       2.010   3.098  20.849  0.00  0.00    +0.000 HD
ATOM     16  H   UNL     1       1.022   4.129  21.818  0.00  0.00    +0.000 HD
ENDROOT
BRANCH   8  17
ATOM     17  C   UNL     1       4.177   5.571  17.516  0.00  0.00    +0.000 C 
ATOM     18  C   UNL     1       4.618   6.611  16.788  0.00  0.00    +0.000 C 
ATOM     19  C   UNL     1       5.474   6.463  15.565  0.00  0.00    +0.000 C 
ATOM     20  C   UNL     1       5.501   5.030  15.029  0.00  0.00    +0.000 C 
ATOM     21  C   UNL     1       5.708   4.035  16.163  0.00  0.00    +0.000 C 
ATOM     22  C   UNL     1       4.583   4.146  17.191  0.00  0.00    +0.000 C 
ENDBRANCH   8  17
TORSDOF 1
ENDMDL
MODEL 9
REMARK VINA RESULT:      -6.5      3.902      6.108
REMARK  Name = 
REMARK  2 active torsions:
REMARK  status: ('A' for Active; 'I' for Inactive)
REMARK    1  A    between atoms: C_1  and  N_2
REMARK    2  A    between atoms: C_8  and  C_9
REMARK                            x       y       z     vdW  Elec       q    Type
REMARK                         _______ _______ _______ _____ _____    ______ ____
ROOT
ATOM      1  C   UNL     1      -1.399  11.074  19.709  0.00  0.00    +0.000 C 
ATOM      2  N   UNL     1      -0.006  10.652  19.586  0.00  0.00    +0.000 NA
ATOM      3  C   UNL     1       0.380  10.511  18.156  0.00  0.00    +0.000 C 
ATOM      4  C   UNL     1       1.824   9.968  17.956  0.00  0.00    +0.000 C 
ATOM      5  N   UNL     1       1.935   8.717  18.698  0.00  0.00    +0.000 N 
ATOM      6  C   UNL     1       2.753   7.700  18.249  0.00  0.00    +0.000 A 
ATOM      7  C   UNL     1       2.391   6.411  18.572  0.00  0.00    +0.000 A 
ATOM      8  C   UNL     1       3.117   5.376  18.032  0.00  0.00    +0.000 A 
ATOM      9  N   UNL     1       4.186   5.600  17.250  0.00  0.00    +0.000 NA
ATOM     10  C   UNL     1       4.474   6.877  16.988  0.00  0.00    +0.000 A 
ATOM     11  N   UNL     1       5.594   7.114  16.213  0.00  0.00    +0.000 N 
ATOM     12  N   UNL     1       3.796   7.940  17.443  0.00  0.00    +0.000 NA
ATOM     13  C   UNL     1       1.641   8.834  20.129  0.00  0.00    +0.000 C 
ATOM     14  C   UNL     1       0.201   9.366  20.291  0.00  0.00    +0.000 C 
ATOM     15  H   UNL     1       6.221   6.326  16.293  0.00  0.00    +0.000 HD
ATOM     16  H   UNL     1       5.968   8.027  16.435  0.00  0.00    +0.000 HD
ENDROOT
BRANCH   8  17
ATOM     17  C   UNL     1       2.672   3.975  18.241  0.00  0.00    +0.000 C 
ATOM     18  C   UNL     1       1.366   3.679  18.357  0.00  0.00    +0.000 C 
ATOM     19  C   UNL     1       0.854   2.316  18.719  0.00  0.00    +0.000 C 
ATOM     20  C   UNL     1       1.944   1.403  19.282  0.00  0.00    +0.000 C 
ATOM     21  C   UNL     1       3.206   1.482  18.432  0.00  0.00    +0.000 C 
ATOM     22  C   UNL     1       3.743   2.912  18.397  0.00  0.00    +0.000 C 
ENDBRANCH   8  17
TORSDOF 1
ENDMDL
