MODEL 1
REMARK VINA RESULT:      -8.2      0.000      0.000
REMARK  Name = 
REMARK  11 active torsions:
REMARK  status: ('A' for Active; 'I' for Inactive)
REMARK    1  A    between atoms: C_1  and  C_2
REMARK    2  A    between atoms: N_4  and  C_5
REMARK    3  A    between atoms: C_5  and  C_6
REMARK    4  A    between atoms: C_5  and  C_7
REMARK    5  A    between atoms: C_8  and  C_9
REMARK    6  A    between atoms: C_12  and  O_13
REMARK    7  A    between atoms: O_13  and  C_14
REMARK    8  A    between atoms: C_17  and  O_18
REMARK    9  A    between atoms: O_18  and  C_19
REMARK   10  A    between atoms: C_19  and  C_20
REMARK   11  A    between atoms: C_19  and  C_21
REMARK                            x       y       z     vdW  Elec       q    Type
REMARK                         _______ _______ _______ _____ _____    ______ ____
ROOT
ATOM      1  C   UNL     1       7.561   7.184  17.998  0.00  0.00    +0.000 A 
ATOM      2  C   UNL     1       7.588   6.002  18.741  0.00  0.00    +0.000 A 
ATOM      3  C   UNL     1       6.897   4.870  18.290  0.00  0.00    +0.000 A 
ATOM      4  C   UNL     1       6.169   4.916  17.098  0.00  0.00    +0.000 A 
ATOM      5  C   UNL     1       6.155   6.102  16.352  0.00  0.00    +0.000 A 
ATOM      6  C   UNL     1       6.826   7.241  16.814  0.00  0.00    +0.000 A 
ENDROOT
BRANCH   1   8
ATOM      7  C   UNL     1       9.012   9.347  18.833  0.00  0.00    +0.000 C 
ATOM      8  C   UNL     1       8.323   8.322  18.410  0.00  0.00    +0.000 C 
BRANCH   7   9
ATOM      9  C   UNL     1       9.812  10.541  19.325  0.00  0.00    +0.000 C 
ATOM     10  C   UNL     1       9.186  11.054  20.620  0.00  0.00    +0.000 C 
BRANCH   9  14
ATOM     11  C   UNL     1      10.914  13.244  16.937  0.00  0.00    +0.000 C 
ATOM     12  C   UNL     1      11.044  12.171  17.973  0.00  0.00    +0.000 C 
ATOM     13  O   UNL     1      12.123  11.870  18.474  0.00  0.00    +0.000 OA
ATOM     14  N   UNL     1       9.860  11.561  18.304  0.00  0.00    +0.000 N 
ATOM     15  H   UNL     1       8.988  11.917  17.932  0.00  0.00    +0.000 HD
ENDBRANCH   9  14
ENDBRANCH   7   9
ENDBRANCH   1   8
BRANCH   4  16
ATOM     16  O   UNL     1       5.540   3.740  16.722  0.00  0.00    +0.000 OA
BRANCH  16  17
ATOM     17  C   UNL     1       4.311   3.453  17.270  0.00  0.00    +0.000 A 
ATOM     18  C   UNL     1       3.288   4.384  17.107  0.00  0.00    +0.000 A 
ATOM     19  C   UNL     1       2.079   4.211  17.796  0.00  0.00    +0.000 A 
ATOM     20  C   UNL     1       1.887   3.092  18.617  0.00  0.00    +0.000 A 
ATOM     21  C   UNL     1       2.860   2.105  18.656  0.00  0.00    +0.000 A 
ATOM     22  C   UNL     1       4.057   2.266  17.960  0.00  0.00    +0.000 A 
BRANCH  20  23
ATOM     23  O   UNL     1       0.764   3.120  19.397  0.00  0.00    +0.000 OA
BRANCH  23  24
ATOM     24  C   UNL     1       0.890   3.525  20.762  0.00  0.00    +0.000 C 
ATOM     25  C   UNL     1       1.718   2.542  21.594  0.00  0.00    +0.000 C 
ATOM     26  C   UNL     1       1.635   4.863  20.722  0.00  0.00    +0.000 C 
ENDBRANCH  23  24
ENDBRANCH  20  23
ENDBRANCH  16  17
ENDBRANCH   4  16
TORSDOF 7
ENDMDL
MODEL 2
REMARK VINA RESULT:      -7.9      1.563      2.469
REMARK  Name = 
REMARK  11 active torsions:
REMARK  status: ('A' for Active; 'I' for Inactive)
REMARK    1  A    between atoms: C_1  and  C_2
REMARK    2  A    between atoms: N_4  and  C_5
REMARK    3  A    between atoms: C_5  and  C_6
REMARK    4  A    between atoms: C_5  and  C_7
REMARK    5  A    between atoms: C_8  and  C_9
REMARK    6  A    between atoms: C_12  and  O_13
REMARK    7  A    between atoms: O_13  and  C_14
REMARK    8  A    between atoms: C_17  and  O_18
REMARK    9  A    between atoms: O_18  and  C_19
REMARK   10  A    between atoms: C_19  and  C_20
REMARK   11  A    between atoms: C_19  and  C_21
REMARK                            x       y       z     vdW  Elec       q    Type
REMARK                         _______ _______ _______ _____ _____    ______ ____
ROOT
ATOM      1  C   UNL     1       8.061   7.753  18.209  0.00  0.00    +0.000 A 
ATOM      2  C   UNL     1       7.230   7.719  17.087  0.00  0.00    +0.000 A 
ATOM      3  C   UNL     1       6.608   6.523  16.707  0.00  0.00    +0.000 A 
ATOM      4  C   UNL     1       6.820   5.354  17.441  0.00  0.00    +0.000 A 
ATOM      5  C   UNL     1       7.646   5.397  18.571  0.00  0.00    +0.000 A 
ATOM      6  C   UNL     1       8.287   6.586  18.938  0.00  0.00    +0.000 A 
ENDROOT
BRANCH   1   8
ATOM      7  C   UNL     1       9.153  10.098  19.098  0.00  0.00    +0.000 C 
ATOM      8  C   UNL     1       8.642   8.985  18.650  0.00  0.00    +0.000 C 
BRANCH   7   9
ATOM      9  C   UNL     1       9.747  11.396  19.619  0.00  0.00    +0.000 C 
ATOM     10  C   UNL     1      11.223  11.453  19.230  0.00  0.00    +0.000 C 
BRANCH   9  14
ATOM     11  C   UNL     1       8.819  12.521  23.097  0.00  0.00    +0.000 C 
ATOM     12  C   UNL     1       8.878  12.544  21.601  0.00  0.00    +0.000 C 
ATOM     13  O   UNL     1       8.356  13.435  20.937  0.00  0.00    +0.000 OA
ATOM     14  N   UNL     1       9.559  11.489  21.047  0.00  0.00    +0.000 N 
ATOM     15  H   UNL     1      10.054  10.839  21.646  0.00  0.00    +0.000 HD
ENDBRANCH   9  14
ENDBRANCH   7   9
ENDBRANCH   1   8
BRANCH   4  16
ATOM     16  O   UNL     1       6.142   4.227  17.002  0.00  0.00    +0.000 OA
BRANCH  16  17
ATOM     17  C   UNL     1       4.938   3.919  17.592  0.00  0.00    +0.000 A 
ATOM     18  C   UNL     1       4.936   3.597  18.947  0.00  0.00    +0.000 A 
ATOM     19  C   UNL     1       3.763   3.110  19.540  0.00  0.00    +0.000 A 
ATOM     20  C   UNL     1       2.590   2.980  18.785  0.00  0.00    +0.000 A 
ATOM     21  C   UNL     1       2.572   3.438  17.476  0.00  0.00    +0.000 A 
ATOM     22  C   UNL     1       3.732   3.938  16.888  0.00  0.00    +0.000 A 
BRANCH  20  23
ATOM     23  O   UNL     1       1.567   2.311  19.398  0.00  0.00    +0.000 OA
BRANCH  23  24
ATOM     24  C   UNL     1       0.958   2.900  20.550  0.00  0.00    +0.000 C 
ATOM     25  C   UNL     1       1.736   2.617  21.837  0.00  0.00    +0.000 C 
ATOM     26  C   UNL     1       0.987   4.410  20.297  0.00  0.00    +0.000 C 
ENDBRANCH  23  24
ENDBRANCH  20  23
ENDBRANCH  16  17
ENDBRANCH   4  16
TORSDOF 7
ENDMDL
MODEL 3
REMARK VINA RESULT:      -7.8      1.561      2.053
REMARK  Name = 
REMARK  11 active torsions:
REMARK  status: ('A' for Active; 'I' for Inactive)
REMARK    1  A    between atoms: C_1  and  C_2
REMARK    2  A    between atoms: N_4  and  C_5
REMARK    3  A    between atoms: C_5  and  C_6
REMARK    4  A    between atoms: C_5  and  C_7
REMARK    5  A    between atoms: C_8  and  C_9
REMARK    6  A    between atoms: C_12  and  O_13
REMARK    7  A    between atoms: O_13  and  C_14
REMARK    8  A    between atoms: C_17  and  O_18
REMARK    9  A    between atoms: O_18  and  C_19
REMARK   10  A    between atoms: C_19  and  C_20
REMARK   11  A    between atoms: C_19  and  C_21
REMARK                            x       y       z     vdW  Elec       q    Type
REMARK                         _______ _______ _______ _____ _____    ______ ____
ROOT
ATOM      1  C   UNL     1       8.212   8.263  18.258  0.00  0.00    +0.000 A 
ATOM      2  C   UNL     1       7.350   8.175  17.163  0.00  0.00    +0.000 A 
ATOM      3  C   UNL     1       6.719   6.963  16.858  0.00  0.00    +0.000 A 
ATOM      4  C   UNL     1       6.952   5.830  17.641  0.00  0.00    +0.000 A 
ATOM      5  C   UNL     1       7.809   5.928  18.745  0.00  0.00    +0.000 A 
ATOM      6  C   UNL     1       8.459   7.132  19.036  0.00  0.00    +0.000 A 
ENDROOT
BRANCH   1   8
ATOM      7  C   UNL     1       9.319  10.675  18.918  0.00  0.00    +0.000 C 
ATOM      8  C   UNL     1       8.803   9.514  18.623  0.00  0.00    +0.000 C 
BRANCH   7   9
ATOM      9  C   UNL     1       9.921  12.028  19.261  0.00  0.00    +0.000 C 
ATOM     10  C   UNL     1      10.370  12.012  20.720  0.00  0.00    +0.000 C 
BRANCH   9  14
ATOM     11  C   UNL     1       8.215  15.186  18.103  0.00  0.00    +0.000 C 
ATOM     12  C   UNL     1       9.302  14.163  18.232  0.00  0.00    +0.000 C 
ATOM     13  O   UNL     1      10.395  14.295  17.691  0.00  0.00    +0.000 OA
ATOM     14  N   UNL     1       8.964  13.077  19.000  0.00  0.00    +0.000 N 
ATOM     15  H   UNL     1       8.084  13.068  19.502  0.00  0.00    +0.000 HD
ENDBRANCH   9  14
ENDBRANCH   7   9
ENDBRANCH   1   8
BRANCH   4  16
ATOM     16  O   UNL     1       6.263   4.684  17.276  0.00  0.00    +0.000 OA
BRANCH  16  17
ATOM     17  C   UNL     1       5.047   4.437  17.869  0.00  0.00    +0.000 A 
ATOM     18  C   UNL     1       3.898   4.882  17.218  0.00  0.00    +0.000 A 
ATOM     19  C   UNL     1       2.660   4.806  17.871  0.00  0.00    +0.000 A 
ATOM     20  C   UNL     1       2.571   4.253  19.156  0.00  0.00    +0.000 A 
ATOM     21  C   UNL     1       3.699   3.687  19.730  0.00  0.00    +0.000 A 
ATOM     22  C   UNL     1       4.928   3.746  19.077  0.00  0.00    +0.000 A 
BRANCH  20  23
ATOM     23  O   UNL     1       1.364   4.410  19.781  0.00  0.00    +0.000 OA
BRANCH  23  24
ATOM     24  C   UNL     1       0.610   3.241  20.113  0.00  0.00    +0.000 C 
ATOM     25  C   UNL     1       0.679   2.168  19.024  0.00  0.00    +0.000 C 
ATOM     26  C   UNL     1       1.265   2.680  21.378  0.00  0.00    +0.000 C 
ENDBRANCH  23  24
ENDBRANCH  20  23
ENDBRANCH  16  17
ENDBRANCH   4  16
TORSDOF 7
ENDMDL
MODEL 4
REMARK VINA RESULT:      -7.7      1.658      2.023
REMARK  Name = 
REMARK  11 active torsions:
REMARK  status: ('A' for Active; 'I' for Inactive)
REMARK    1  A    between atoms: C_1  and  C_2
REMARK    2  A    between atoms: N_4  and  C_5
REMARK    3  A    between atoms: C_5  and  C_6
REMARK    4  A    between atoms: C_5  and  C_7
REMARK    5  A    between atoms: C_8  and  C_9
REMARK    6  A    between atoms: C_12  and  O_13
REMARK    7  A    between atoms: O_13  and  C_14
REMARK    8  A    between atoms: C_17  and  O_18
REMARK    9  A    between atoms: O_18  and  C_19
REMARK   10  A    between atoms: C_19  and  C_20
REMARK   11  A    between atoms: C_19  and  C_21
REMARK                            x       y       z     vdW  Elec       q    Type
REMARK                         _______ _______ _______ _____ _____    ______ ____
ROOT
ATOM      1  C   UNL     1       8.009   8.119  18.157  0.00  0.00    +0.000 A 
ATOM      2  C   UNL     1       8.339   6.980  18.894  0.00  0.00    +0.000 A 
ATOM      3  C   UNL     1       7.750   5.746  18.586  0.00  0.00    +0.000 A 
ATOM      4  C   UNL     1       6.823   5.647  17.547  0.00  0.00    +0.000 A 
ATOM      5  C   UNL     1       6.505   6.792  16.804  0.00  0.00    +0.000 A 
ATOM      6  C   UNL     1       7.075   8.029  17.126  0.00  0.00    +0.000 A 
ENDROOT
BRANCH   1   8
ATOM      7  C   UNL     1       9.263  10.510  18.599  0.00  0.00    +0.000 C 
ATOM      8  C   UNL     1       8.660   9.368  18.413  0.00  0.00    +0.000 C 
BRANCH   7   9
ATOM      9  C   UNL     1       9.965  11.839  18.815  0.00  0.00    +0.000 C 
ATOM     10  C   UNL     1      11.373  11.572  19.341  0.00  0.00    +0.000 C 
BRANCH   9  14
ATOM     11  C   UNL     1       7.843  14.564  20.331  0.00  0.00    +0.000 C 
ATOM     12  C   UNL     1       8.548  13.787  19.262  0.00  0.00    +0.000 C 
ATOM     13  O   UNL     1       8.537  14.132  18.084  0.00  0.00    +0.000 OA
ATOM     14  N   UNL     1       9.197  12.666  19.715  0.00  0.00    +0.000 N 
ATOM     15  H   UNL     1       9.255  12.485  20.710  0.00  0.00    +0.000 HD
ENDBRANCH   9  14
ENDBRANCH   7   9
ENDBRANCH   1   8
BRANCH   4  16
ATOM     16  O   UNL     1       6.314   4.382  17.302  0.00  0.00    +0.000 OA
BRANCH  16  17
ATOM     17  C   UNL     1       5.079   4.065  17.818  0.00  0.00    +0.000 A 
ATOM     18  C   UNL     1       5.016   3.608  19.133  0.00  0.00    +0.000 A 
ATOM     19  C   UNL     1       3.805   3.111  19.635  0.00  0.00    +0.000 A 
ATOM     20  C   UNL     1       2.656   3.105  18.833  0.00  0.00    +0.000 A 
ATOM     21  C   UNL     1       2.702   3.692  17.578  0.00  0.00    +0.000 A 
ATOM     22  C   UNL     1       3.900   4.202  17.081  0.00  0.00    +0.000 A 
BRANCH  20  23
ATOM     23  O   UNL     1       1.588   2.419  19.342  0.00  0.00    +0.000 OA
BRANCH  23  24
ATOM     24  C   UNL     1       0.899   2.966  20.470  0.00  0.00    +0.000 C 
ATOM     25  C   UNL     1       1.532   2.556  21.801  0.00  0.00    +0.000 C 
ATOM     26  C   UNL     1       1.027   4.485  20.327  0.00  0.00    +0.000 C 
ENDBRANCH  23  24
ENDBRANCH  20  23
ENDBRANCH  16  17
ENDBRANCH   4  16
TORSDOF 7
ENDMDL
MODEL 5
REMARK VINA RESULT:      -7.7      1.017      1.343
REMARK  Name = 
REMARK  11 active torsions:
REMARK  status: ('A' for Active; 'I' for Inactive)
REMARK    1  A    between atoms: C_1  and  C_2
REMARK    2  A    between atoms: N_4  and  C_5
REMARK    3  A    between atoms: C_5  and  C_6
REMARK    4  A    between atoms: C_5  and  C_7
REMARK    5  A    between atoms: C_8  and  C_9
REMARK    6  A    between atoms: C_12  and  O_13
REMARK    7  A    between atoms: O_13  and  C_14
REMARK    8  A    between atoms: C_17  and  O_18
REMARK    9  A    between atoms: O_18  and  C_19
REMARK   10  A    between atoms: C_19  and  C_20
REMARK   11  A    between atoms: C_19  and  C_21
REMARK                            x       y       z     vdW  Elec       q    Type
REMARK                         _______ _______ _______ _____ _____    ______ ____
ROOT
ATOM      1  C   UNL     1       8.024   8.012  18.203  0.00  0.00    +0.000 A 
ATOM      2  C   UNL     1       8.354   6.792  18.798  0.00  0.00    +0.000 A 
ATOM      3  C   UNL     1       7.696   5.618  18.408  0.00  0.00    +0.000 A 
ATOM      4  C   UNL     1       6.702   5.658  17.429  0.00  0.00    +0.000 A 
ATOM      5  C   UNL     1       6.384   6.884  16.828  0.00  0.00    +0.000 A 
ATOM      6  C   UNL     1       7.023   8.061  17.233  0.00  0.00    +0.000 A 
ENDROOT
BRANCH   1   8
ATOM      7  C   UNL     1       9.360  10.301  18.878  0.00  0.00    +0.000 C 
ATOM      8  C   UNL     1       8.741   9.204  18.538  0.00  0.00    +0.000 C 
BRANCH   7   9
ATOM      9  C   UNL     1      10.081  11.579  19.273  0.00  0.00    +0.000 C 
ATOM     10  C   UNL     1       9.221  12.338  20.282  0.00  0.00    +0.000 C 
BRANCH   9  14
ATOM     11  C   UNL     1      11.489  14.091  16.838  0.00  0.00    +0.000 C 
ATOM     12  C   UNL     1      11.357  13.320  18.115  0.00  0.00    +0.000 C 
ATOM     13  O   UNL     1      12.081  13.527  19.084  0.00  0.00    +0.000 OA
ATOM     14  N   UNL     1      10.367  12.370  18.100  0.00  0.00    +0.000 N 
ATOM     15  H   UNL     1       9.737  12.311  17.309  0.00  0.00    +0.000 HD
ENDBRANCH   9  14
ENDBRANCH   7   9
ENDBRANCH   1   8
BRANCH   4  16
ATOM     16  O   UNL     1       6.126   4.443  17.093  0.00  0.00    +0.000 OA
BRANCH  16  17
ATOM     17  C   UNL     1       4.932   4.101  17.684  0.00  0.00    +0.000 A 
ATOM     18  C   UNL     1       4.958   3.655  19.004  0.00  0.00    +0.000 A 
ATOM     19  C   UNL     1       3.792   3.134  19.581  0.00  0.00    +0.000 A 
ATOM     20  C   UNL     1       2.598   3.093  18.850  0.00  0.00    +0.000 A 
ATOM     21  C   UNL     1       2.555   3.670  17.590  0.00  0.00    +0.000 A 
ATOM     22  C   UNL     1       3.709   4.204  17.018  0.00  0.00    +0.000 A 
BRANCH  20  23
ATOM     23  O   UNL     1       1.579   2.387  19.426  0.00  0.00    +0.000 OA
BRANCH  23  24
ATOM     24  C   UNL     1       0.948   2.926  20.591  0.00  0.00    +0.000 C 
ATOM     25  C   UNL     1       1.679   2.553  21.883  0.00  0.00    +0.000 C 
ATOM     26  C   UNL     1       1.017   4.446  20.424  0.00  0.00    +0.000 C 
ENDBRANCH  23  24
ENDBRANCH  20  23
ENDBRANCH  16  17
ENDBRANCH   4  16
TORSDOF 7
ENDMDL
MODEL 6
REMARK VINA RESULT:      -7.6      1.787      2.448
REMARK  Name = 
REMARK  11 active torsions:
REMARK  status: ('A' for Active; 'I' for Inactive)
REMARK    1  A    between atoms: C_1  and  C_2
REMARK    2  A    between atoms: N_4  and  C_5
REMARK    3  A    between atoms: C_5  and  C_6
REMARK    4  A    between atoms: C_5  and  C_7
REMARK    5  A    between atoms: C_8  and  C_9
REMARK    6  A    between atoms: C_12  and  O_13
REMARK    7  A    between atoms: O_13  and  C_14
REMARK    8  A    between atoms: C_17  and  O_18
REMARK    9  A    between atoms: O_18  and  C_19
REMARK   10  A    between atoms: C_19  and  C_20
REMARK   11  A    between atoms: C_19  and  C_21
REMARK                            x       y       z     vdW  Elec       q    Type
REMARK                         _______ _______ _______ _____ _____    ______ ____
ROOT
ATOM      1  C   UNL     1       8.185   8.417  18.219  0.00  0.00    +0.000 A 
ATOM      2  C   UNL     1       7.180   8.319  17.254  0.00  0.00    +0.000 A 
ATOM      3  C   UNL     1       6.486   7.115  17.078  0.00  0.00    +0.000 A 
ATOM      4  C   UNL     1       6.798   6.001  17.860  0.00  0.00    +0.000 A 
ATOM      5  C   UNL     1       7.799   6.108  18.834  0.00  0.00    +0.000 A 
ATOM      6  C   UNL     1       8.509   7.304  18.994  0.00  0.00    +0.000 A 
ENDROOT
BRANCH   1   8
ATOM      7  C   UNL     1       9.492  10.779  18.655  0.00  0.00    +0.000 C 
ATOM      8  C   UNL     1       8.847   9.662  18.459  0.00  0.00    +0.000 C 
BRANCH   7   9
ATOM      9  C   UNL     1      10.243  12.080  18.885  0.00  0.00    +0.000 C 
ATOM     10  C   UNL     1      11.601  11.761  19.505  0.00  0.00    +0.000 C 
BRANCH   9  14
ATOM     11  C   UNL     1       7.969  14.805  20.161  0.00  0.00    +0.000 C 
ATOM     12  C   UNL     1       8.670  13.938  19.161  0.00  0.00    +0.000 C 
ATOM     13  O   UNL     1       8.540  14.095  17.951  0.00  0.00    +0.000 OA
ATOM     14  N   UNL     1       9.461  12.964  19.717  0.00  0.00    +0.000 N 
ATOM     15  H   UNL     1       9.608  12.944  20.719  0.00  0.00    +0.000 HD
ENDBRANCH   9  14
ENDBRANCH   7   9
ENDBRANCH   1   8
BRANCH   4  16
ATOM     16  O   UNL     1       6.041   4.863  17.630  0.00  0.00    +0.000 OA
BRANCH  16  17
ATOM     17  C   UNL     1       4.735   4.850  18.062  0.00  0.00    +0.000 A 
ATOM     18  C   UNL     1       4.480   5.204  19.385  0.00  0.00    +0.000 A 
ATOM     19  C   UNL     1       3.191   5.035  19.910  0.00  0.00    +0.000 A 
ATOM     20  C   UNL     1       2.157   4.546  19.101  0.00  0.00    +0.000 A 
ATOM     21  C   UNL     1       2.394   4.333  17.752  0.00  0.00    +0.000 A 
ATOM     22  C   UNL     1       3.670   4.515  17.223  0.00  0.00    +0.000 A 
BRANCH  20  23
ATOM     23  O   UNL     1       0.998   4.228  19.756  0.00  0.00    +0.000 OA
BRANCH  23  24
ATOM     24  C   UNL     1       0.793   2.872  20.163  0.00  0.00    +0.000 C 
ATOM     25  C   UNL     1       1.506   1.870  19.252  0.00  0.00    +0.000 C 
ATOM     26  C   UNL     1       1.410   2.770  21.561  0.00  0.00    +0.000 C 
ENDBRANCH  23  24
ENDBRANCH  20  23
ENDBRANCH  16  17
ENDBRANCH   4  16
TORSDOF 7
ENDMDL
MODEL 7
REMARK VINA RESULT:      -7.6      0.773      1.231
REMARK  Name = 
REMARK  11 active torsions:
REMARK  status: ('A' for Active; 'I' for Inactive)
REMARK    1  A    between atoms: C_1  and  C_2
REMARK    2  A    between atoms: N_4  and  C_5
REMARK    3  A    between atoms: C_5  and  C_6
REMARK    4  A    between atoms: C_5  and  C_7
REMARK    5  A    between atoms: C_8  and  C_9
REMARK    6  A    between atoms: C_12  and  O_13
REMARK    7  A    between atoms: O_13  and  C_14
REMARK    8  A    between atoms: C_17  and  O_18
REMARK    9  A    between atoms: O_18  and  C_19
REMARK   10  A    between atoms: C_19  and  C_20
REMARK   11  A    between atoms: C_19  and  C_21
REMARK                            x       y       z     vdW  Elec       q    Type
REMARK                         _______ _______ _______ _____ _____    ______ ____
ROOT
ATOM      1  C   UNL     1       7.498   7.381  17.794  0.00  0.00    +0.000 A 
ATOM      2  C   UNL     1       6.385   7.628  16.988  0.00  0.00    +0.000 A 
ATOM      3  C   UNL     1       5.599   6.565  16.526  0.00  0.00    +0.000 A 
ATOM      4  C   UNL     1       5.926   5.249  16.860  0.00  0.00    +0.000 A 
ATOM      5  C   UNL     1       7.038   5.008  17.678  0.00  0.00    +0.000 A 
ATOM      6  C   UNL     1       7.837   6.068  18.121  0.00  0.00    +0.000 A 
ENDROOT
BRANCH   1   8
ATOM      7  C   UNL     1       8.994   9.443  18.790  0.00  0.00    +0.000 C 
ATOM      8  C   UNL     1       8.263   8.463  18.334  0.00  0.00    +0.000 C 
BRANCH   7   9
ATOM      9  C   UNL     1       9.845  10.584  19.321  0.00  0.00    +0.000 C 
ATOM     10  C   UNL     1       9.263  11.053  20.653  0.00  0.00    +0.000 C 
BRANCH   9  14
ATOM     11  C   UNL     1      10.991  13.353  17.032  0.00  0.00    +0.000 C 
ATOM     12  C   UNL     1      11.106  12.225  18.010  0.00  0.00    +0.000 C 
ATOM     13  O   UNL     1      12.185  11.853  18.460  0.00  0.00    +0.000 OA
ATOM     14  N   UNL     1       9.907  11.650  18.350  0.00  0.00    +0.000 N 
ATOM     15  H   UNL     1       9.040  12.062  18.024  0.00  0.00    +0.000 HD
ENDBRANCH   9  14
ENDBRANCH   7   9
ENDBRANCH   1   8
BRANCH   4  16
ATOM     16  O   UNL     1       5.075   4.267  16.376  0.00  0.00    +0.000 OA
BRANCH  16  17
ATOM     17  C   UNL     1       4.302   3.572  17.277  0.00  0.00    +0.000 A 
ATOM     18  C   UNL     1       3.048   3.131  16.861  0.00  0.00    +0.000 A 
ATOM     19  C   UNL     1       2.165   2.576  17.798  0.00  0.00    +0.000 A 
ATOM     20  C   UNL     1       2.552   2.432  19.137  0.00  0.00    +0.000 A 
ATOM     21  C   UNL     1       3.853   2.744  19.503  0.00  0.00    +0.000 A 
ATOM     22  C   UNL     1       4.738   3.282  18.572  0.00  0.00    +0.000 A 
BRANCH  20  23
ATOM     23  O   UNL     1       1.556   2.072  20.002  0.00  0.00    +0.000 OA
BRANCH  23  24
ATOM     24  C   UNL     1       1.181   2.991  21.032  0.00  0.00    +0.000 C 
ATOM     25  C   UNL     1       2.316   3.260  22.022  0.00  0.00    +0.000 C 
ATOM     26  C   UNL     1       0.855   4.301  20.310  0.00  0.00    +0.000 C 
ENDBRANCH  23  24
ENDBRANCH  20  23
ENDBRANCH  16  17
ENDBRANCH   4  16
TORSDOF 7
ENDMDL
MODEL 8
REMARK VINA RESULT:      -7.6      6.714      9.334
REMARK  Name = 
REMARK  11 active torsions:
REMARK  status: ('A' for Active; 'I' for Inactive)
REMARK    1  A    between atoms: C_1  and  C_2
REMARK    2  A    between atoms: N_4  and  C_5
REMARK    3  A    between atoms: C_5  and  C_6
REMARK    4  A    between atoms: C_5  and  C_7
REMARK    5  A    between atoms: C_8  and  C_9
REMARK    6  A    between atoms: C_12  and  O_13
REMARK    7  A    between atoms: O_13  and  C_14
REMARK    8  A    between atoms: C_17  and  O_18
REMARK    9  A    between atoms: O_18  and  C_19
REMARK   10  A    between atoms: C_19  and  C_20
REMARK   11  A    between atoms: C_19  and  C_21
REMARK                            x       y       z     vdW  Elec       q    Type
REMARK                         _______ _______ _______ _____ _____    ______ ____
ROOT
ATOM      1  C   UNL     1       2.462   7.738  18.564  0.00  0.00    +0.000 A 
ATOM      2  C   UNL     1       2.166   8.749  17.648  0.00  0.00    +0.000 A 
ATOM      3  C   UNL     1       1.305   9.795  18.006  0.00  0.00    +0.000 A 
ATOM      4  C   UNL     1       0.732   9.831  19.278  0.00  0.00    +0.000 A 
ATOM      5  C   UNL     1       1.042   8.820  20.197  0.00  0.00    +0.000 A 
ATOM      6  C   UNL     1       1.883   7.762  19.833  0.00  0.00    +0.000 A 
ENDROOT
BRANCH   1   8
ATOM      7  C   UNL     1       4.218   5.732  17.950  0.00  0.00    +0.000 C 
ATOM      8  C   UNL     1       3.398   6.706  18.236  0.00  0.00    +0.000 C 
BRANCH   7   9
ATOM      9  C   UNL     1       5.173   4.598  17.619  0.00  0.00    +0.000 C 
ATOM     10  C   UNL     1       5.842   4.894  16.279  0.00  0.00    +0.000 C 
BRANCH   9  14
ATOM     11  C   UNL     1       3.638   1.281  18.547  0.00  0.00    +0.000 C 
ATOM     12  C   UNL     1       4.355   2.581  18.743  0.00  0.00    +0.000 C 
ATOM     13  O   UNL     1       4.800   2.927  19.832  0.00  0.00    +0.000 OA
ATOM     14  N   UNL     1       4.464   3.341  17.605  0.00  0.00    +0.000 N 
ATOM     15  H   UNL     1       4.165   2.961  16.715  0.00  0.00    +0.000 HD
ENDBRANCH   9  14
ENDBRANCH   7   9
ENDBRANCH   1   8
BRANCH   4  16
ATOM     16  O   UNL     1      -0.086  10.918  19.548  0.00  0.00    +0.000 OA
BRANCH  16  17
ATOM     17  C   UNL     1      -1.318  10.975  18.937  0.00  0.00    +0.000 A 
ATOM     18  C   UNL     1      -2.176  12.014  19.289  0.00  0.00    +0.000 A 
ATOM     19  C   UNL     1      -3.498  12.007  18.824  0.00  0.00    +0.000 A 
ATOM     20  C   UNL     1      -3.945  10.981  17.981  0.00  0.00    +0.000 A 
ATOM     21  C   UNL     1      -3.041  10.033  17.527  0.00  0.00    +0.000 A 
ATOM     22  C   UNL     1      -1.721  10.046  17.975  0.00  0.00    +0.000 A 
BRANCH  20  23
ATOM     23  O   UNL     1      -5.293  10.955  17.749  0.00  0.00    +0.000 OA
BRANCH  23  24
ATOM     24  C   UNL     1      -6.178  11.261  18.831  0.00  0.00    +0.000 C 
ATOM     25  C   UNL     1      -7.262  12.267  18.438  0.00  0.00    +0.000 C 
ATOM     26  C   UNL     1      -6.860   9.936  19.184  0.00  0.00    +0.000 C 
ENDBRANCH  23  24
ENDBRANCH  20  23
ENDBRANCH  16  17
ENDBRANCH   4  16
TORSDOF 7
ENDMDL
MODEL 9
REMARK VINA RESULT:      -7.4      5.617      8.449
REMARK  Name = 
REMARK  11 active torsions:
REMARK  status: ('A' for Active; 'I' for Inactive)
REMARK    1  A    between atoms: C_1  and  C_2
REMARK    2  A    between atoms: N_4  and  C_5
REMARK    3  A    between atoms: C_5  and  C_6
REMARK    4  A    between atoms: C_5  and  C_7
REMARK    5  A    between atoms: C_8  and  C_9
REMARK    6  A    between atoms: C_12  and  O_13
REMARK    7  A    between atoms: O_13  and  C_14
REMARK    8  A    between atoms: C_17  and  O_18
REMARK    9  A    between atoms: O_18  and  C_19
REMARK   10  A    between atoms: C_19  and  C_20
REMARK   11  A    between atoms: C_19  and  C_21
REMARK                            x       y       z     vdW  Elec       q    Type
REMARK                         _______ _______ _______ _____ _____    ______ ____
ROOT
ATOM      1  C   UNL     1       1.257   9.023  18.912  0.00  0.00    +0.000 A 
ATOM      2  C   UNL     1       1.255   8.395  20.159  0.00  0.00    +0.000 A 
ATOM      3  C   UNL     1       2.081   7.287  20.391  0.00  0.00    +0.000 A 
ATOM      4  C   UNL     1       2.905   6.797  19.376  0.00  0.00    +0.000 A 
ATOM      5  C   UNL     1       2.910   7.438  18.130  0.00  0.00    +0.000 A 
ATOM      6  C   UNL     1       2.068   8.530  17.890  0.00  0.00    +0.000 A 
ENDROOT
BRANCH   1   8
ATOM      7  C   UNL     1      -0.272  11.246  18.459  0.00  0.00    +0.000 C 
ATOM      8  C   UNL     1       0.475  10.200  18.686  0.00  0.00    +0.000 C 
BRANCH   7   9
ATOM      9  C   UNL     1      -1.141  12.463  18.193  0.00  0.00    +0.000 C 
ATOM     10  C   UNL     1      -0.685  13.602  19.103  0.00  0.00    +0.000 C 
BRANCH   9  14
ATOM     11  C   UNL     1      -4.706  11.318  17.742  0.00  0.00    +0.000 C 
ATOM     12  C   UNL     1      -3.267  11.544  17.395  0.00  0.00    +0.000 C 
ATOM     13  O   UNL     1      -2.796  11.223  16.308  0.00  0.00    +0.000 OA
ATOM     14  N   UNL     1      -2.532  12.133  18.393  0.00  0.00    +0.000 N 
ATOM     15  H   UNL     1      -2.994  12.466  19.230  0.00  0.00    +0.000 HD
ENDBRANCH   9  14
ENDBRANCH   7   9
ENDBRANCH   1   8
BRANCH   4  16
ATOM     16  O   UNL     1       3.703   5.713  19.708  0.00  0.00    +0.000 OA
BRANCH  16  17
ATOM     17  C   UNL     1       4.338   5.036  18.694  0.00  0.00    +0.000 A 
ATOM     18  C   UNL     1       5.713   5.207  18.552  0.00  0.00    +0.000 A 
ATOM     19  C   UNL     1       6.365   4.676  17.430  0.00  0.00    +0.000 A 
ATOM     20  C   UNL     1       5.645   3.947  16.474  0.00  0.00    +0.000 A 
ATOM     21  C   UNL     1       4.307   3.665  16.702  0.00  0.00    +0.000 A 
ATOM     22  C   UNL     1       3.659   4.178  17.824  0.00  0.00    +0.000 A 
BRANCH  20  23
ATOM     23  O   UNL     1       6.327   3.649  15.326  0.00  0.00    +0.000 OA
BRANCH  23  24
ATOM     24  C   UNL     1       6.165   4.506  14.193  0.00  0.00    +0.000 C 
ATOM     25  C   UNL     1       7.480   5.152  13.751  0.00  0.00    +0.000 C 
ATOM     26  C   UNL     1       5.674   3.598  13.062  0.00  0.00    +0.000 C 
ENDBRANCH  23  24
ENDBRANCH  20  23
ENDBRANCH  16  17
ENDBRANCH   4  16
TORSDOF 7
ENDMDL
