MODEL 1
REMARK VINA RESULT:      -7.3      0.000      0.000
REMARK  Name = 
REMARK  6 active torsions:
REMARK  status: ('A' for Active; 'I' for Inactive)
REMARK    1  A    between atoms: C_2  and  C_3
REMARK    2  A    between atoms: C_8  and  N_9
REMARK    3  A    between atoms: C_10  and  C_12
REMARK    4  A    between atoms: C_12  and  O_13
REMARK    5  A    between atoms: O_13  and  C_14
REMARK    6  A    between atoms: C_14  and  C_16
REMARK                            x       y       z     vdW  Elec       q    Type
REMARK                         _______ _______ _______ _____ _____    ______ ____
ROOT
ATOM      1  C   UNL     1       2.685   3.904  21.369  0.00  0.00    +0.000 C 
ENDROOT
BRANCH   1   3
ATOM      2  N   UNL     1       2.667   6.168  20.424  0.00  0.00    +0.000 N 
ATOM      3  C   UNL     1       2.057   4.917  20.416  0.00  0.00    +0.000 C 
ATOM      4  O   UNL     1       1.115   4.577  19.704  0.00  0.00    +0.000 OA
ATOM      5  H   UNL     1       3.318   6.329  21.188  0.00  0.00    +0.000 HD
BRANCH   2  11
ATOM      6  C   UNL     1       1.616   8.375  20.053  0.00  0.00    +0.000 A 
ATOM      7  C   UNL     1       1.297   9.440  19.189  0.00  0.00    +0.000 A 
ATOM      8  C   UNL     1       1.684   9.412  17.851  0.00  0.00    +0.000 A 
ATOM      9  C   UNL     1       2.408   8.329  17.375  0.00  0.00    +0.000 A 
ATOM     10  C   UNL     1       2.742   7.277  18.229  0.00  0.00    +0.000 A 
ATOM     11  C   UNL     1       2.340   7.263  19.574  0.00  0.00    +0.000 A 
BRANCH   6  13
ATOM     12  N   UNL     1       0.787   8.549  22.505  0.00  0.00    +0.000 NA
ATOM     13  C   UNL     1       1.141   8.469  21.402  0.00  0.00    +0.000 C 
ENDBRANCH   6  13
ENDBRANCH   2  11
ENDBRANCH   1   3
BRANCH   1  14
ATOM     14  O   UNL     1       2.950   2.662  20.721  0.00  0.00    +0.000 OA
BRANCH  14  15
ATOM     15  C   UNL     1       4.178   2.542  20.140  0.00  0.00    +0.000 C 
ATOM     16  O   UNL     1       5.121   1.936  20.636  0.00  0.00    +0.000 OA
BRANCH  15  17
ATOM     17  C   UNL     1       4.263   3.222  18.855  0.00  0.00    +0.000 A 
ATOM     18  C   UNL     1       3.523   2.853  17.746  0.00  0.00    +0.000 A 
ATOM     19  N   UNL     1       3.850   3.679  16.708  0.00  0.00    +0.000 N 
ATOM     20  C   UNL     1       4.805   4.583  17.105  0.00  0.00    +0.000 A 
ATOM     21  C   UNL     1       5.446   5.588  16.371  0.00  0.00    +0.000 A 
ATOM     22  C   UNL     1       6.403   6.364  17.028  0.00  0.00    +0.000 A 
ATOM     23  C   UNL     1       6.692   6.155  18.372  0.00  0.00    +0.000 A 
ATOM     24  C   UNL     1       6.030   5.156  19.094  0.00  0.00    +0.000 A 
ATOM     25  C   UNL     1       5.076   4.335  18.455  0.00  0.00    +0.000 A 
ATOM     26  H   UNL     1       3.459   3.631  15.777  0.00  0.00    +0.000 HD
ENDBRANCH  15  17
ENDBRANCH  14  15
ENDBRANCH   1  14
TORSDOF 6
ENDMDL
MODEL 2
REMARK VINA RESULT:      -7.2      1.116      2.117
REMARK  Name = 
REMARK  6 active torsions:
REMARK  status: ('A' for Active; 'I' for Inactive)
REMARK    1  A    between atoms: C_2  and  C_3
REMARK    2  A    between atoms: C_8  and  N_9
REMARK    3  A    between atoms: C_10  and  C_12
REMARK    4  A    between atoms: C_12  and  O_13
REMARK    5  A    between atoms: O_13  and  C_14
REMARK    6  A    between atoms: C_14  and  C_16
REMARK                            x       y       z     vdW  Elec       q    Type
REMARK                         _______ _______ _______ _____ _____    ______ ____
ROOT
ATOM      1  C   UNL     1       2.735   4.114  21.002  0.00  0.00    +0.000 C 
ENDROOT
BRANCH   1   3
ATOM      2  N   UNL     1       2.237   6.506  20.787  0.00  0.00    +0.000 N 
ATOM      3  C   UNL     1       1.741   5.214  20.641  0.00  0.00    +0.000 C 
ATOM      4  O   UNL     1       0.625   4.911  20.227  0.00  0.00    +0.000 OA
ATOM      5  H   UNL     1       3.113   6.581  21.297  0.00  0.00    +0.000 HD
BRANCH   2  11
ATOM      6  C   UNL     1       1.756   8.331  19.190  0.00  0.00    +0.000 A 
ATOM      7  C   UNL     1       1.077   9.525  18.875  0.00  0.00    +0.000 A 
ATOM      8  C   UNL     1       0.204  10.109  19.789  0.00  0.00    +0.000 A 
ATOM      9  C   UNL     1      -0.010   9.496  21.014  0.00  0.00    +0.000 A 
ATOM     10  C   UNL     1       0.647   8.304  21.328  0.00  0.00    +0.000 A 
ATOM     11  C   UNL     1       1.555   7.708  20.439  0.00  0.00    +0.000 A 
BRANCH   6  13
ATOM     12  N   UNL     1       3.423   7.400  17.433  0.00  0.00    +0.000 NA
ATOM     13  C   UNL     1       2.666   7.824  18.207  0.00  0.00    +0.000 C 
ENDBRANCH   6  13
ENDBRANCH   2  11
ENDBRANCH   1   3
BRANCH   1  14
ATOM     14  O   UNL     1       2.952   3.219  19.914  0.00  0.00    +0.000 OA
BRANCH  14  15
ATOM     15  C   UNL     1       4.254   2.986  19.583  0.00  0.00    +0.000 C 
ATOM     16  O   UNL     1       4.975   2.171  20.145  0.00  0.00    +0.000 OA
BRANCH  15  17
ATOM     17  C   UNL     1       4.713   3.821  18.480  0.00  0.00    +0.000 A 
ATOM     18  C   UNL     1       4.148   3.798  17.218  0.00  0.00    +0.000 A 
ATOM     19  N   UNL     1       4.819   4.682  16.423  0.00  0.00    +0.000 N 
ATOM     20  C   UNL     1       5.830   5.285  17.132  0.00  0.00    +0.000 A 
ATOM     21  C   UNL     1       6.778   6.227  16.715  0.00  0.00    +0.000 A 
ATOM     22  C   UNL     1       7.716   6.665  17.652  0.00  0.00    +0.000 A 
ATOM     23  C   UNL     1       7.692   6.194  18.959  0.00  0.00    +0.000 A 
ATOM     24  C   UNL     1       6.728   5.264  19.363  0.00  0.00    +0.000 A 
ATOM     25  C   UNL     1       5.781   4.779  18.435  0.00  0.00    +0.000 A 
ATOM     26  H   UNL     1       4.616   4.864  15.449  0.00  0.00    +0.000 HD
ENDBRANCH  15  17
ENDBRANCH  14  15
ENDBRANCH   1  14
TORSDOF 6
ENDMDL
MODEL 3
REMARK VINA RESULT:      -7.1      1.684      5.386
REMARK  Name = 
REMARK  6 active torsions:
REMARK  status: ('A' for Active; 'I' for Inactive)
REMARK    1  A    between atoms: C_2  and  C_3
REMARK    2  A    between atoms: C_8  and  N_9
REMARK    3  A    between atoms: C_10  and  C_12
REMARK    4  A    between atoms: C_12  and  O_13
REMARK    5  A    between atoms: O_13  and  C_14
REMARK    6  A    between atoms: C_14  and  C_16
REMARK                            x       y       z     vdW  Elec       q    Type
REMARK                         _______ _______ _______ _____ _____    ______ ____
ROOT
ATOM      1  C   UNL     1       3.295   1.480  18.217  0.00  0.00    +0.000 C 
ENDROOT
BRANCH   1   3
ATOM      2  N   UNL     1       4.777   3.328  17.581  0.00  0.00    +0.000 N 
ATOM      3  C   UNL     1       4.418   2.442  18.593  0.00  0.00    +0.000 C 
ATOM      4  O   UNL     1       4.896   2.405  19.724  0.00  0.00    +0.000 OA
ATOM      5  H   UNL     1       4.403   3.113  16.661  0.00  0.00    +0.000 HD
BRANCH   2  11
ATOM      6  C   UNL     1       6.438   4.853  16.567  0.00  0.00    +0.000 A 
ATOM      7  C   UNL     1       7.381   5.891  16.706  0.00  0.00    +0.000 A 
ATOM      8  C   UNL     1       7.632   6.462  17.951  0.00  0.00    +0.000 A 
ATOM      9  C   UNL     1       6.930   6.015  19.060  0.00  0.00    +0.000 A 
ATOM     10  C   UNL     1       5.982   4.998  18.928  0.00  0.00    +0.000 A 
ATOM     11  C   UNL     1       5.729   4.382  17.692  0.00  0.00    +0.000 A 
BRANCH   6  13
ATOM     12  N   UNL     1       6.125   3.821  14.208  0.00  0.00    +0.000 NA
ATOM     13  C   UNL     1       6.275   4.296  15.257  0.00  0.00    +0.000 C 
ENDBRANCH   6  13
ENDBRANCH   2  11
ENDBRANCH   1   3
BRANCH   1  14
ATOM     14  O   UNL     1       2.142   2.173  17.744  0.00  0.00    +0.000 OA
BRANCH  14  15
ATOM     15  C   UNL     1       1.197   2.468  18.681  0.00  0.00    +0.000 C 
ATOM     16  O   UNL     1       0.173   1.819  18.859  0.00  0.00    +0.000 OA
BRANCH  15  17
ATOM     17  C   UNL     1       1.526   3.655  19.459  0.00  0.00    +0.000 A 
ATOM     18  C   UNL     1       1.518   3.689  20.841  0.00  0.00    +0.000 A 
ATOM     19  N   UNL     1       1.855   4.948  21.250  0.00  0.00    +0.000 N 
ATOM     20  C   UNL     1       2.076   5.756  20.161  0.00  0.00    +0.000 A 
ATOM     21  C   UNL     1       2.414   7.114  20.107  0.00  0.00    +0.000 A 
ATOM     22  C   UNL     1       2.564   7.698  18.848  0.00  0.00    +0.000 A 
ATOM     23  C   UNL     1       2.403   6.947  17.689  0.00  0.00    +0.000 A 
ATOM     24  C   UNL     1       2.080   5.588  17.761  0.00  0.00    +0.000 A 
ATOM     25  C   UNL     1       1.895   4.971  19.017  0.00  0.00    +0.000 A 
ATOM     26  H   UNL     1       1.923   5.252  22.212  0.00  0.00    +0.000 HD
ENDBRANCH  15  17
ENDBRANCH  14  15
ENDBRANCH   1  14
TORSDOF 6
ENDMDL
MODEL 4
REMARK VINA RESULT:      -6.8      5.664      7.131
REMARK  Name = 
REMARK  6 active torsions:
REMARK  status: ('A' for Active; 'I' for Inactive)
REMARK    1  A    between atoms: C_2  and  C_3
REMARK    2  A    between atoms: C_8  and  N_9
REMARK    3  A    between atoms: C_10  and  C_12
REMARK    4  A    between atoms: C_12  and  O_13
REMARK    5  A    between atoms: O_13  and  C_14
REMARK    6  A    between atoms: C_14  and  C_16
REMARK                            x       y       z     vdW  Elec       q    Type
REMARK                         _______ _______ _______ _____ _____    ______ ____
ROOT
ATOM      1  C   UNL     1       8.334   8.156  18.492  0.00  0.00    +0.000 C 
ENDROOT
BRANCH   1   3
ATOM      2  N   UNL     1       9.516  10.007  19.585  0.00  0.00    +0.000 N 
ATOM      3  C   UNL     1       8.710   9.635  18.513  0.00  0.00    +0.000 C 
ATOM      4  O   UNL     1       8.328  10.372  17.608  0.00  0.00    +0.000 OA
ATOM      5  H   UNL     1       9.599   9.317  20.327  0.00  0.00    +0.000 HD
BRANCH   2  11
ATOM      6  C   UNL     1       9.728  12.079  20.918  0.00  0.00    +0.000 A 
ATOM      7  C   UNL     1      10.295  13.356  21.099  0.00  0.00    +0.000 A 
ATOM      8  C   UNL     1      11.206  13.867  20.178  0.00  0.00    +0.000 A 
ATOM      9  C   UNL     1      11.570  13.100  19.082  0.00  0.00    +0.000 A 
ATOM     10  C   UNL     1      11.025  11.827  18.904  0.00  0.00    +0.000 A 
ATOM     11  C   UNL     1      10.082  11.297  19.798  0.00  0.00    +0.000 A 
BRANCH   6  13
ATOM     12  N   UNL     1       8.007  11.320  22.705  0.00  0.00    +0.000 NA
ATOM     13  C   UNL     1       8.768  11.651  21.892  0.00  0.00    +0.000 C 
ENDBRANCH   6  13
ENDBRANCH   2  11
ENDBRANCH   1   3
BRANCH   1  14
ATOM     14  O   UNL     1       7.190   7.914  17.676  0.00  0.00    +0.000 OA
BRANCH  14  15
ATOM     15  C   UNL     1       7.133   6.690  17.077  0.00  0.00    +0.000 C 
ATOM     16  O   UNL     1       7.728   6.396  16.048  0.00  0.00    +0.000 OA
BRANCH  15  17
ATOM     17  C   UNL     1       6.275   5.754  17.791  0.00  0.00    +0.000 A 
ATOM     18  C   UNL     1       6.729   4.572  18.346  0.00  0.00    +0.000 A 
ATOM     19  N   UNL     1       5.674   3.925  18.923  0.00  0.00    +0.000 N 
ATOM     20  C   UNL     1       4.521   4.652  18.749  0.00  0.00    +0.000 A 
ATOM     21  C   UNL     1       3.211   4.361  19.147  0.00  0.00    +0.000 A 
ATOM     22  C   UNL     1       2.212   5.281  18.822  0.00  0.00    +0.000 A 
ATOM     23  C   UNL     1       2.517   6.455  18.143  0.00  0.00    +0.000 A 
ATOM     24  C   UNL     1       3.834   6.737  17.767  0.00  0.00    +0.000 A 
ATOM     25  C   UNL     1       4.865   5.817  18.056  0.00  0.00    +0.000 A 
ATOM     26  H   UNL     1       5.723   3.034  19.399  0.00  0.00    +0.000 HD
ENDBRANCH  15  17
ENDBRANCH  14  15
ENDBRANCH   1  14
TORSDOF 6
ENDMDL
MODEL 5
REMARK VINA RESULT:      -6.8      6.518      8.550
REMARK  Name = 
REMARK  6 active torsions:
REMARK  status: ('A' for Active; 'I' for Inactive)
REMARK    1  A    between atoms: C_2  and  C_3
REMARK    2  A    between atoms: C_8  and  N_9
REMARK    3  A    between atoms: C_10  and  C_12
REMARK    4  A    between atoms: C_12  and  O_13
REMARK    5  A    between atoms: O_13  and  C_14
REMARK    6  A    between atoms: C_14  and  C_16
REMARK                            x       y       z     vdW  Elec       q    Type
REMARK                         _______ _______ _______ _____ _____    ______ ____
ROOT
ATOM      1  C   UNL     1       8.314   9.348  18.075  0.00  0.00    +0.000 C 
ENDROOT
BRANCH   1   3
ATOM      2  N   UNL     1       6.894   7.656  17.008  0.00  0.00    +0.000 N 
ATOM      3  C   UNL     1       7.838   7.900  18.001  0.00  0.00    +0.000 C 
ATOM      4  O   UNL     1       8.318   7.064  18.763  0.00  0.00    +0.000 OA
ATOM      5  H   UNL     1       6.485   8.485  16.583  0.00  0.00    +0.000 HD
BRANCH   2  11
ATOM      6  C   UNL     1       4.983   6.094  16.856  0.00  0.00    +0.000 A 
ATOM      7  C   UNL     1       4.474   4.825  16.518  0.00  0.00    +0.000 A 
ATOM      8  C   UNL     1       5.307   3.839  15.996  0.00  0.00    +0.000 A 
ATOM      9  C   UNL     1       6.650   4.121  15.792  0.00  0.00    +0.000 A 
ATOM     10  C   UNL     1       7.160   5.381  16.110  0.00  0.00    +0.000 A 
ATOM     11  C   UNL     1       6.350   6.385  16.665  0.00  0.00    +0.000 A 
BRANCH   6  13
ATOM     12  N   UNL     1       3.296   7.768  17.897  0.00  0.00    +0.000 NA
ATOM     13  C   UNL     1       4.062   7.033  17.426  0.00  0.00    +0.000 C 
ENDBRANCH   6  13
ENDBRANCH   2  11
ENDBRANCH   1   3
BRANCH   1  14
ATOM     14  O   UNL     1       9.350   9.516  19.040  0.00  0.00    +0.000 OA
BRANCH  14  15
ATOM     15  C   UNL     1       9.492  10.772  19.551  0.00  0.00    +0.000 C 
ATOM     16  O   UNL     1       8.981  11.154  20.597  0.00  0.00    +0.000 OA
BRANCH  15  17
ATOM     17  C   UNL     1      10.318  11.630  18.713  0.00  0.00    +0.000 A 
ATOM     18  C   UNL     1      11.513  11.224  18.147  0.00  0.00    +0.000 A 
ATOM     19  N   UNL     1      12.039  12.267  17.440  0.00  0.00    +0.000 N 
ATOM     20  C   UNL     1      11.220  13.366  17.538  0.00  0.00    +0.000 A 
ATOM     21  C   UNL     1      11.377  14.650  17.002  0.00  0.00    +0.000 A 
ATOM     22  C   UNL     1      10.385  15.595  17.274  0.00  0.00    +0.000 A 
ATOM     23  C   UNL     1       9.271  15.261  18.035  0.00  0.00    +0.000 A 
ATOM     24  C   UNL     1       9.123  13.969  18.551  0.00  0.00    +0.000 A 
ATOM     25  C   UNL     1      10.119  12.996  18.317  0.00  0.00    +0.000 A 
ATOM     26  H   UNL     1      12.910  12.246  16.927  0.00  0.00    +0.000 HD
ENDBRANCH  15  17
ENDBRANCH  14  15
ENDBRANCH   1  14
TORSDOF 6
ENDMDL
MODEL 6
REMARK VINA RESULT:      -6.8      3.849      5.926
REMARK  Name = 
REMARK  6 active torsions:
REMARK  status: ('A' for Active; 'I' for Inactive)
REMARK    1  A    between atoms: C_2  and  C_3
REMARK    2  A    between atoms: C_8  and  N_9
REMARK    3  A    between atoms: C_10  and  C_12
REMARK    4  A    between atoms: C_12  and  O_13
REMARK    5  A    between atoms: O_13  and  C_14
REMARK    6  A    between atoms: C_14  and  C_16
REMARK                            x       y       z     vdW  Elec       q    Type
REMARK                         _______ _______ _______ _____ _____    ______ ____
ROOT
ATOM      1  C   UNL     1       1.830   9.656  17.925  0.00  0.00    +0.000 C 
ENDROOT
BRANCH   1   3
ATOM      2  N   UNL     1      -0.308  10.859  17.944  0.00  0.00    +0.000 N 
ATOM      3  C   UNL     1       0.579  10.086  18.687  0.00  0.00    +0.000 C 
ATOM      4  O   UNL     1       0.418   9.715  19.847  0.00  0.00    +0.000 OA
ATOM      5  H   UNL     1       0.055  11.213  17.063  0.00  0.00    +0.000 HD
BRANCH   2  11
ATOM      6  C   UNL     1      -2.755  11.048  17.640  0.00  0.00    +0.000 A 
ATOM      7  C   UNL     1      -4.003  11.522  18.088  0.00  0.00    +0.000 A 
ATOM      8  C   UNL     1      -4.103  12.266  19.262  0.00  0.00    +0.000 A 
ATOM      9  C   UNL     1      -2.960  12.524  20.003  0.00  0.00    +0.000 A 
ATOM     10  C   UNL     1      -1.721  12.044  19.573  0.00  0.00    +0.000 A 
ATOM     11  C   UNL     1      -1.585  11.317  18.380  0.00  0.00    +0.000 A 
BRANCH   6  13
ATOM     12  N   UNL     1      -2.711   9.768  15.384  0.00  0.00    +0.000 NA
ATOM     13  C   UNL     1      -2.741  10.328  16.401  0.00  0.00    +0.000 C 
ENDBRANCH   6  13
ENDBRANCH   2  11
ENDBRANCH   1   3
BRANCH   1  14
ATOM     14  O   UNL     1       1.768   8.285  17.539  0.00  0.00    +0.000 OA
BRANCH  14  15
ATOM     15  C   UNL     1       2.786   7.494  17.983  0.00  0.00    +0.000 C 
ATOM     16  O   UNL     1       3.937   7.551  17.567  0.00  0.00    +0.000 OA
BRANCH  15  17
ATOM     17  C   UNL     1       2.362   6.554  19.012  0.00  0.00    +0.000 A 
ATOM     18  C   UNL     1       2.230   6.892  20.347  0.00  0.00    +0.000 A 
ATOM     19  N   UNL     1       1.834   5.784  21.040  0.00  0.00    +0.000 N 
ATOM     20  C   UNL     1       1.713   4.711  20.190  0.00  0.00    +0.000 A 
ATOM     21  C   UNL     1       1.362   3.385  20.468  0.00  0.00    +0.000 A 
ATOM     22  C   UNL     1       1.330   2.483  19.402  0.00  0.00    +0.000 A 
ATOM     23  C   UNL     1       1.619   2.899  18.107  0.00  0.00    +0.000 A 
ATOM     24  C   UNL     1       1.953   4.232  17.846  0.00  0.00    +0.000 A 
ATOM     25  C   UNL     1       2.020   5.164  18.903  0.00  0.00    +0.000 A 
ATOM     26  H   UNL     1       1.665   5.747  22.037  0.00  0.00    +0.000 HD
ENDBRANCH  15  17
ENDBRANCH  14  15
ENDBRANCH   1  14
TORSDOF 6
ENDMDL
MODEL 7
REMARK VINA RESULT:      -6.7      1.464      2.645
REMARK  Name = 
REMARK  6 active torsions:
REMARK  status: ('A' for Active; 'I' for Inactive)
REMARK    1  A    between atoms: C_2  and  C_3
REMARK    2  A    between atoms: C_8  and  N_9
REMARK    3  A    between atoms: C_10  and  C_12
REMARK    4  A    between atoms: C_12  and  O_13
REMARK    5  A    between atoms: O_13  and  C_14
REMARK    6  A    between atoms: C_14  and  C_16
REMARK                            x       y       z     vdW  Elec       q    Type
REMARK                         _______ _______ _______ _____ _____    ______ ____
ROOT
ATOM      1  C   UNL     1       2.775   4.025  20.839  0.00  0.00    +0.000 C 
ENDROOT
BRANCH   1   3
ATOM      2  N   UNL     1       2.380   6.437  20.637  0.00  0.00    +0.000 N 
ATOM      3  C   UNL     1       1.803   5.172  20.578  0.00  0.00    +0.000 C 
ATOM      4  O   UNL     1       0.630   4.925  20.310  0.00  0.00    +0.000 OA
ATOM      5  H   UNL     1       3.315   6.471  21.034  0.00  0.00    +0.000 HD
BRANCH   2  11
ATOM      6  C   UNL     1       1.915   8.333  19.119  0.00  0.00    +0.000 A 
ATOM      7  C   UNL     1       1.263   9.556  18.865  0.00  0.00    +0.000 A 
ATOM      8  C   UNL     1       0.427  10.129  19.820  0.00  0.00    +0.000 A 
ATOM      9  C   UNL     1       0.223   9.476  21.027  0.00  0.00    +0.000 A 
ATOM     10  C   UNL     1       0.854   8.257  21.280  0.00  0.00    +0.000 A 
ATOM     11  C   UNL     1       1.725   7.669  20.349  0.00  0.00    +0.000 A 
BRANCH   6  13
ATOM     12  N   UNL     1       3.520   7.458  17.279  0.00  0.00    +0.000 NA
ATOM     13  C   UNL     1       2.788   7.839  18.097  0.00  0.00    +0.000 C 
ENDBRANCH   6  13
ENDBRANCH   2  11
ENDBRANCH   1   3
BRANCH   1  14
ATOM     14  O   UNL     1       3.176   3.387  19.629  0.00  0.00    +0.000 OA
BRANCH  14  15
ATOM     15  C   UNL     1       4.507   3.114  19.511  0.00  0.00    +0.000 C 
ATOM     16  O   UNL     1       5.052   2.119  19.971  0.00  0.00    +0.000 OA
BRANCH  15  17
ATOM     17  C   UNL     1       5.230   4.145  18.777  0.00  0.00    +0.000 A 
ATOM     18  C   UNL     1       5.748   5.283  19.368  0.00  0.00    +0.000 A 
ATOM     19  N   UNL     1       6.346   6.042  18.404  0.00  0.00    +0.000 N 
ATOM     20  C   UNL     1       6.224   5.434  17.177  0.00  0.00    +0.000 A 
ATOM     21  C   UNL     1       6.659   5.864  15.918  0.00  0.00    +0.000 A 
ATOM     22  C   UNL     1       6.384   5.045  14.821  0.00  0.00    +0.000 A 
ATOM     23  C   UNL     1       5.718   3.836  14.982  0.00  0.00    +0.000 A 
ATOM     24  C   UNL     1       5.304   3.415  16.250  0.00  0.00    +0.000 A 
ATOM     25  C   UNL     1       5.542   4.229  17.378  0.00  0.00    +0.000 A 
ATOM     26  H   UNL     1       6.804   6.931  18.559  0.00  0.00    +0.000 HD
ENDBRANCH  15  17
ENDBRANCH  14  15
ENDBRANCH   1  14
TORSDOF 6
ENDMDL
MODEL 8
REMARK VINA RESULT:      -6.7      3.141      4.746
REMARK  Name = 
REMARK  6 active torsions:
REMARK  status: ('A' for Active; 'I' for Inactive)
REMARK    1  A    between atoms: C_2  and  C_3
REMARK    2  A    between atoms: C_8  and  N_9
REMARK    3  A    between atoms: C_10  and  C_12
REMARK    4  A    between atoms: C_12  and  O_13
REMARK    5  A    between atoms: O_13  and  C_14
REMARK    6  A    between atoms: C_14  and  C_16
REMARK                            x       y       z     vdW  Elec       q    Type
REMARK                         _______ _______ _______ _____ _____    ______ ____
ROOT
ATOM      1  C   UNL     1       2.543   7.996  17.426  0.00  0.00    +0.000 C 
ENDROOT
BRANCH   1   3
ATOM      2  N   UNL     1       1.313  10.028  18.038  0.00  0.00    +0.000 N 
ATOM      3  C   UNL     1       1.824   8.816  18.494  0.00  0.00    +0.000 C 
ATOM      4  O   UNL     1       1.713   8.367  19.631  0.00  0.00    +0.000 OA
ATOM      5  H   UNL     1       1.639  10.321  17.120  0.00  0.00    +0.000 HD
BRANCH   2  11
ATOM      6  C   UNL     1      -0.861  11.071  18.586  0.00  0.00    +0.000 A 
ATOM      7  C   UNL     1      -1.612  11.991  19.344  0.00  0.00    +0.000 A 
ATOM      8  C   UNL     1      -0.999  12.789  20.306  0.00  0.00    +0.000 A 
ATOM      9  C   UNL     1       0.364  12.660  20.530  0.00  0.00    +0.000 A 
ATOM     10  C   UNL     1       1.113  11.740  19.794  0.00  0.00    +0.000 A 
ATOM     11  C   UNL     1       0.528  10.943  18.797  0.00  0.00    +0.000 A 
BRANCH   6  13
ATOM     12  N   UNL     1      -2.142   9.689  16.803  0.00  0.00    +0.000 NA
ATOM     13  C   UNL     1      -1.567  10.322  17.590  0.00  0.00    +0.000 C 
ENDBRANCH   6  13
ENDBRANCH   2  11
ENDBRANCH   1   3
BRANCH   1  14
ATOM     14  O   UNL     1       3.840   7.589  17.856  0.00  0.00    +0.000 OA
BRANCH  14  15
ATOM     15  C   UNL     1       4.436   6.614  17.113  0.00  0.00    +0.000 C 
ATOM     16  O   UNL     1       4.877   6.778  15.982  0.00  0.00    +0.000 OA
BRANCH  15  17
ATOM     17  C   UNL     1       4.492   5.333  17.806  0.00  0.00    +0.000 A 
ATOM     18  C   UNL     1       5.660   4.784  18.302  0.00  0.00    +0.000 A 
ATOM     19  N   UNL     1       5.368   3.579  18.875  0.00  0.00    +0.000 N 
ATOM     20  C   UNL     1       4.026   3.312  18.757  0.00  0.00    +0.000 A 
ATOM     21  C   UNL     1       3.296   2.191  19.171  0.00  0.00    +0.000 A 
ATOM     22  C   UNL     1       1.926   2.172  18.906  0.00  0.00    +0.000 A 
ATOM     23  C   UNL     1       1.307   3.242  18.270  0.00  0.00    +0.000 A 
ATOM     24  C   UNL     1       2.048   4.361  17.876  0.00  0.00    +0.000 A 
ATOM     25  C   UNL     1       3.441   4.402  18.104  0.00  0.00    +0.000 A 
ATOM     26  H   UNL     1       6.039   2.962  19.313  0.00  0.00    +0.000 HD
ENDBRANCH  15  17
ENDBRANCH  14  15
ENDBRANCH   1  14
TORSDOF 6
ENDMDL
MODEL 9
REMARK VINA RESULT:      -6.7      3.750      7.882
REMARK  Name = 
REMARK  6 active torsions:
REMARK  status: ('A' for Active; 'I' for Inactive)
REMARK    1  A    between atoms: C_2  and  C_3
REMARK    2  A    between atoms: C_8  and  N_9
REMARK    3  A    between atoms: C_10  and  C_12
REMARK    4  A    between atoms: C_12  and  O_13
REMARK    5  A    between atoms: O_13  and  C_14
REMARK    6  A    between atoms: C_14  and  C_16
REMARK                            x       y       z     vdW  Elec       q    Type
REMARK                         _______ _______ _______ _____ _____    ______ ____
ROOT
ATOM      1  C   UNL     1       1.458   8.750  19.525  0.00  0.00    +0.000 C 
ENDROOT
BRANCH   1   3
ATOM      2  N   UNL     1       2.956   6.995  18.690  0.00  0.00    +0.000 N 
ATOM      3  C   UNL     1       2.250   8.150  18.366  0.00  0.00    +0.000 C 
ATOM      4  O   UNL     1       2.194   8.676  17.257  0.00  0.00    +0.000 OA
ATOM      5  H   UNL     1       3.029   6.794  19.683  0.00  0.00    +0.000 HD
BRANCH   2  11
ATOM      6  C   UNL     1       3.339   4.852  17.518  0.00  0.00    +0.000 A 
ATOM      7  C   UNL     1       4.100   4.074  16.624  0.00  0.00    +0.000 A 
ATOM      8  C   UNL     1       5.222   4.607  15.993  0.00  0.00    +0.000 A 
ATOM      9  C   UNL     1       5.578   5.924  16.237  0.00  0.00    +0.000 A 
ATOM     10  C   UNL     1       4.820   6.707  17.110  0.00  0.00    +0.000 A 
ATOM     11  C   UNL     1       3.702   6.189  17.782  0.00  0.00    +0.000 A 
BRANCH   6  13
ATOM     12  N   UNL     1       1.345   3.680  18.692  0.00  0.00    +0.000 NA
ATOM     13  C   UNL     1       2.227   4.209  18.152  0.00  0.00    +0.000 C 
ENDBRANCH   6  13
ENDBRANCH   2  11
ENDBRANCH   1   3
BRANCH   1  14
ATOM     14  O   UNL     1       0.629   9.827  19.097  0.00  0.00    +0.000 OA
BRANCH  14  15
ATOM     15  C   UNL     1      -0.344  10.214  19.970  0.00  0.00    +0.000 C 
ATOM     16  O   UNL     1      -0.308  10.013  21.178  0.00  0.00    +0.000 OA
BRANCH  15  17
ATOM     17  C   UNL     1      -1.452  10.896  19.314  0.00  0.00    +0.000 A 
ATOM     18  C   UNL     1      -2.126  11.968  19.869  0.00  0.00    +0.000 A 
ATOM     19  N   UNL     1      -3.112  12.358  19.009  0.00  0.00    +0.000 N 
ATOM     20  C   UNL     1      -3.113  11.555  17.894  0.00  0.00    +0.000 A 
ATOM     21  C   UNL     1      -3.958  11.573  16.778  0.00  0.00    +0.000 A 
ATOM     22  C   UNL     1      -3.743  10.617  15.783  0.00  0.00    +0.000 A 
ATOM     23  C   UNL     1      -2.710   9.694  15.892  0.00  0.00    +0.000 A 
ATOM     24  C   UNL     1      -1.865   9.700  17.007  0.00  0.00    +0.000 A 
ATOM     25  C   UNL     1      -2.070  10.634  18.045  0.00  0.00    +0.000 A 
ATOM     26  H   UNL     1      -3.759  13.119  19.167  0.00  0.00    +0.000 HD
ENDBRANCH  15  17
ENDBRANCH  14  15
ENDBRANCH   1  14
TORSDOF 6
ENDMDL
