MODEL 1
REMARK VINA RESULT:      -8.0      0.000      0.000
REMARK  Name = 
REMARK  9 active torsions:
REMARK  status: ('A' for Active; 'I' for Inactive)
REMARK    1  A    between atoms: C_1  and  S_2
REMARK    2  A    between atoms: S_2  and  C_5
REMARK    3  A    between atoms: C_7  and  C_8
REMARK    4  A    between atoms: C_11  and  C_12
REMARK    5  A    between atoms: C_12  and  C_13
REMARK    6  A    between atoms: C_13  and  C_14
REMARK    7  A    between atoms: C_13  and  N_16
REMARK    8  A    between atoms: C_17  and  C_19
REMARK    9  A    between atoms: C_31  and  C_32
REMARK                            x       y       z     vdW  Elec       q    Type
REMARK                         _______ _______ _______ _____ _____    ______ ____
ROOT
ATOM      1  C   UNL     1       1.895   7.984  19.249  0.00  0.00    +0.000 A 
ATOM      2  C   UNL     1       1.975   8.772  18.087  0.00  0.00    +0.000 A 
ATOM      3  C   UNL     1       1.493  10.090  18.052  0.00  0.00    +0.000 A 
ATOM      4  C   UNL     1       0.902  10.662  19.188  0.00  0.00    +0.000 A 
ATOM      5  C   UNL     1       0.774   9.876  20.333  0.00  0.00    +0.000 A 
ATOM      6  C   UNL     1       1.263   8.565  20.362  0.00  0.00    +0.000 A 
ENDROOT
BRANCH   1   9
ATOM      7  C   UNL     1       4.229   5.001  18.695  0.00  0.00    +0.000 A 
ATOM      8  C   UNL     1       3.593   6.249  18.538  0.00  0.00    +0.000 A 
ATOM      9  C   UNL     1       2.497   6.626  19.337  0.00  0.00    +0.000 A 
ATOM     10  C   UNL     1       2.039   5.678  20.269  0.00  0.00    +0.000 A 
ATOM     11  C   UNL     1       2.670   4.438  20.434  0.00  0.00    +0.000 A 
ATOM     12  C   UNL     1       3.773   4.088  19.649  0.00  0.00    +0.000 A 
BRANCH   7  14
ATOM     13  C   UNL     1       5.865   6.051  16.629  0.00  0.00    +0.000 C 
ATOM     14  S   UNL     1       5.577   4.596  17.603  0.00  0.00    +0.000 S 
ATOM     15  O   UNL     1       5.099   3.570  16.693  0.00  0.00    +0.000 OA
ATOM     16  O   UNL     1       6.730   4.346  18.443  0.00  0.00    +0.000 OA
ENDBRANCH   7  14
BRANCH  12  17
ATOM     17  C   UNL     1       4.398   2.825  19.901  0.00  0.00    +0.000 C 
ATOM     18  N   UNL     1       4.913   1.821  20.187  0.00  0.00    +0.000 NA
ENDBRANCH  12  17
ENDBRANCH   1   9
BRANCH   4  19
ATOM     19  C   UNL     1       0.428  12.101  19.183  0.00  0.00    +0.000 C 
BRANCH  19  20
ATOM     20  C   UNL     1       0.370  12.757  20.575  0.00  0.00    +0.000 C 
BRANCH  20  21
ATOM     21  N   UNL     1      -0.986  12.733  21.116  0.00  0.00    +0.000 N 
ATOM     22  C   UNL     1      -1.304  12.804  22.455  0.00  0.00    +0.000 C 
ATOM     23  O   UNL     1      -0.468  12.871  23.346  0.00  0.00    +0.000 OA
ATOM     24  H   UNL     1      -1.758  12.427  20.525  0.00  0.00    +0.000 HD
BRANCH  22  25
ATOM     25  C   UNL     1      -2.826  12.950  22.674  0.00  0.00    +0.000 C 
ATOM     26  C   UNL     1      -3.559  12.807  21.326  0.00  0.00    +0.000 C 
ATOM     27  C   UNL     1      -4.964  13.416  21.392  0.00  0.00    +0.000 C 
ATOM     28  O   UNL     1      -5.531  13.389  22.702  0.00  0.00    +0.000 OA
ATOM     29  C   UNL     1      -4.651  13.808  23.768  0.00  0.00    +0.000 C 
ATOM     30  C   UNL     1      -4.249  12.558  24.544  0.00  0.00    +0.000 C 
ATOM     31  N   UNL     1      -3.294  11.873  23.637  0.00  0.00    +0.000 NA
ATOM     32  C   UNL     1      -3.282  14.267  23.290  0.00  0.00    +0.000 C 
ATOM     33  H   UNL     1      -3.855  11.206  23.100  0.00  0.00    +0.000 HD
ENDBRANCH  22  25
ENDBRANCH  20  21
BRANCH  20  34
ATOM     34  C   UNL     1       0.821  14.167  20.513  0.00  0.00    +0.000 C 
ATOM     35  N   UNL     1       1.198  15.264  20.415  0.00  0.00    +0.000 NA
ENDBRANCH  20  34
ENDBRANCH  19  20
ENDBRANCH   4  19
TORSDOF 8
ENDMDL
MODEL 2
REMARK VINA RESULT:      -7.9      0.913      1.392
REMARK  Name = 
REMARK  9 active torsions:
REMARK  status: ('A' for Active; 'I' for Inactive)
REMARK    1  A    between atoms: C_1  and  S_2
REMARK    2  A    between atoms: S_2  and  C_5
REMARK    3  A    between atoms: C_7  and  C_8
REMARK    4  A    between atoms: C_11  and  C_12
REMARK    5  A    between atoms: C_12  and  C_13
REMARK    6  A    between atoms: C_13  and  C_14
REMARK    7  A    between atoms: C_13  and  N_16
REMARK    8  A    between atoms: C_17  and  C_19
REMARK    9  A    between atoms: C_31  and  C_32
REMARK                            x       y       z     vdW  Elec       q    Type
REMARK                         _______ _______ _______ _____ _____    ______ ____
ROOT
ATOM      1  C   UNL     1       1.894   7.959  19.367  0.00  0.00    +0.000 A 
ATOM      2  C   UNL     1       1.996   8.789  18.236  0.00  0.00    +0.000 A 
ATOM      3  C   UNL     1       1.523  10.110  18.242  0.00  0.00    +0.000 A 
ATOM      4  C   UNL     1       0.918  10.644  19.390  0.00  0.00    +0.000 A 
ATOM      5  C   UNL     1       0.768   9.817  20.503  0.00  0.00    +0.000 A 
ATOM      6  C   UNL     1       1.249   8.503  20.491  0.00  0.00    +0.000 A 
ENDROOT
BRANCH   1   9
ATOM      7  C   UNL     1       4.199   4.974  18.710  0.00  0.00    +0.000 A 
ATOM      8  C   UNL     1       3.570   6.231  18.591  0.00  0.00    +0.000 A 
ATOM      9  C   UNL     1       2.487   6.596  19.414  0.00  0.00    +0.000 A 
ATOM     10  C   UNL     1       2.034   5.628  20.328  0.00  0.00    +0.000 A 
ATOM     11  C   UNL     1       2.657   4.380  20.454  0.00  0.00    +0.000 A 
ATOM     12  C   UNL     1       3.748   4.041  19.647  0.00  0.00    +0.000 A 
BRANCH   7  14
ATOM     13  C   UNL     1       5.798   6.054  16.630  0.00  0.00    +0.000 C 
ATOM     14  S   UNL     1       5.530   4.587  17.591  0.00  0.00    +0.000 S 
ATOM     15  O   UNL     1       5.040   3.570  16.676  0.00  0.00    +0.000 OA
ATOM     16  O   UNL     1       6.697   4.330  18.409  0.00  0.00    +0.000 OA
ENDBRANCH   7  14
BRANCH  12  17
ATOM     17  C   UNL     1       4.367   2.768  19.860  0.00  0.00    +0.000 C 
ATOM     18  N   UNL     1       4.829   1.705  19.966  0.00  0.00    +0.000 NA
ENDBRANCH  12  17
ENDBRANCH   1   9
BRANCH   4  19
ATOM     19  C   UNL     1       0.452  12.085  19.431  0.00  0.00    +0.000 C 
BRANCH  19  20
ATOM     20  C   UNL     1       0.729  12.806  20.763  0.00  0.00    +0.000 C 
BRANCH  20  21
ATOM     21  N   UNL     1      -0.513  13.213  21.414  0.00  0.00    +0.000 N 
ATOM     22  C   UNL     1      -1.049  12.618  22.535  0.00  0.00    +0.000 C 
ATOM     23  O   UNL     1      -0.542  11.656  23.098  0.00  0.00    +0.000 OA
ATOM     24  H   UNL     1      -1.164  13.821  20.919  0.00  0.00    +0.000 HD
BRANCH  22  25
ATOM     25  C   UNL     1      -2.259  13.409  23.079  0.00  0.00    +0.000 C 
ATOM     26  C   UNL     1      -1.782  14.423  24.136  0.00  0.00    +0.000 C 
ATOM     27  C   UNL     1      -2.938  14.867  25.039  0.00  0.00    +0.000 C 
ATOM     28  O   UNL     1      -4.211  14.811  24.395  0.00  0.00    +0.000 OA
ATOM     29  C   UNL     1      -4.474  13.605  23.645  0.00  0.00    +0.000 C 
ATOM     30  C   UNL     1      -4.388  13.963  22.164  0.00  0.00    +0.000 C 
ATOM     31  N   UNL     1      -2.932  14.137  21.928  0.00  0.00    +0.000 NA
ATOM     32  C   UNL     1      -3.357  12.575  23.726  0.00  0.00    +0.000 C 
ATOM     33  H   UNL     1      -2.751  15.137  22.052  0.00  0.00    +0.000 HD
ENDBRANCH  22  25
ENDBRANCH  20  21
BRANCH  20  34
ATOM     34  C   UNL     1       1.559  14.015  20.546  0.00  0.00    +0.000 C 
ATOM     35  N   UNL     1       2.240  14.936  20.340  0.00  0.00    +0.000 NA
ENDBRANCH  20  34
ENDBRANCH  19  20
ENDBRANCH   4  19
TORSDOF 8
ENDMDL
MODEL 3
REMARK VINA RESULT:      -7.9      1.069      1.136
REMARK  Name = 
REMARK  9 active torsions:
REMARK  status: ('A' for Active; 'I' for Inactive)
REMARK    1  A    between atoms: C_1  and  S_2
REMARK    2  A    between atoms: S_2  and  C_5
REMARK    3  A    between atoms: C_7  and  C_8
REMARK    4  A    between atoms: C_11  and  C_12
REMARK    5  A    between atoms: C_12  and  C_13
REMARK    6  A    between atoms: C_13  and  C_14
REMARK    7  A    between atoms: C_13  and  N_16
REMARK    8  A    between atoms: C_17  and  C_19
REMARK    9  A    between atoms: C_31  and  C_32
REMARK                            x       y       z     vdW  Elec       q    Type
REMARK                         _______ _______ _______ _____ _____    ______ ____
ROOT
ATOM      1  C   UNL     1       1.702   7.924  19.726  0.00  0.00    +0.000 A 
ATOM      2  C   UNL     1       1.723   8.781  18.611  0.00  0.00    +0.000 A 
ATOM      3  C   UNL     1       1.219  10.089  18.672  0.00  0.00    +0.000 A 
ATOM      4  C   UNL     1       0.664  10.583  19.862  0.00  0.00    +0.000 A 
ATOM      5  C   UNL     1       0.594   9.728  20.962  0.00  0.00    +0.000 A 
ATOM      6  C   UNL     1       1.104   8.427  20.895  0.00  0.00    +0.000 A 
ENDROOT
BRANCH   1   9
ATOM      7  C   UNL     1       4.117   5.049  18.986  0.00  0.00    +0.000 A 
ATOM      8  C   UNL     1       3.461   6.295  18.921  0.00  0.00    +0.000 A 
ATOM      9  C   UNL     1       2.329   6.576  19.710  0.00  0.00    +0.000 A 
ATOM     10  C   UNL     1       1.858   5.536  20.533  0.00  0.00    +0.000 A 
ATOM     11  C   UNL     1       2.509   4.298  20.605  0.00  0.00    +0.000 A 
ATOM     12  C   UNL     1       3.646   4.042  19.834  0.00  0.00    +0.000 A 
BRANCH   7  14
ATOM     13  C   UNL     1       5.785   6.308  17.068  0.00  0.00    +0.000 C 
ATOM     14  S   UNL     1       5.512   4.772  17.912  0.00  0.00    +0.000 S 
ATOM     15  O   UNL     1       5.095   3.809  16.908  0.00  0.00    +0.000 OA
ATOM     16  O   UNL     1       6.644   4.488  18.769  0.00  0.00    +0.000 OA
ENDBRANCH   7  14
BRANCH  12  17
ATOM     17  C   UNL     1       4.289   2.773  19.991  0.00  0.00    +0.000 C 
ATOM     18  N   UNL     1       4.864   1.763  20.059  0.00  0.00    +0.000 NA
ENDBRANCH  12  17
ENDBRANCH   1   9
BRANCH   4  19
ATOM     19  C   UNL     1       0.166  12.010  19.961  0.00  0.00    +0.000 C 
BRANCH  19  20
ATOM     20  C   UNL     1      -0.348  12.411  21.356  0.00  0.00    +0.000 C 
BRANCH  20  21
ATOM     21  N   UNL     1      -1.771  12.733  21.324  0.00  0.00    +0.000 N 
ATOM     22  C   UNL     1      -2.679  12.401  22.305  0.00  0.00    +0.000 C 
ATOM     23  O   UNL     1      -2.386  11.768  23.312  0.00  0.00    +0.000 OA
ATOM     24  H   UNL     1      -2.201  13.025  20.447  0.00  0.00    +0.000 HD
BRANCH  22  25
ATOM     25  C   UNL     1      -4.055  13.057  22.058  0.00  0.00    +0.000 C 
ATOM     26  C   UNL     1      -4.483  12.827  20.596  0.00  0.00    +0.000 C 
ATOM     27  C   UNL     1      -5.553  13.837  20.166  0.00  0.00    +0.000 C 
ATOM     28  O   UNL     1      -6.359  14.300  21.250  0.00  0.00    +0.000 OA
ATOM     29  C   UNL     1      -5.639  14.671  22.445  0.00  0.00    +0.000 C 
ATOM     30  C   UNL     1      -5.890  13.582  23.484  0.00  0.00    +0.000 C 
ATOM     31  N   UNL     1      -5.074  12.440  23.000  0.00  0.00    +0.000 NA
ATOM     32  C   UNL     1      -4.128  14.557  22.313  0.00  0.00    +0.000 C 
ATOM     33  H   UNL     1      -5.709  11.870  22.433  0.00  0.00    +0.000 HD
ENDBRANCH  22  25
ENDBRANCH  20  21
BRANCH  20  34
ATOM     34  C   UNL     1       0.386  13.592  21.870  0.00  0.00    +0.000 C 
ATOM     35  N   UNL     1       0.919  14.549  22.261  0.00  0.00    +0.000 NA
ENDBRANCH  20  34
ENDBRANCH  19  20
ENDBRANCH   4  19
TORSDOF 8
ENDMDL
MODEL 4
REMARK VINA RESULT:      -7.9      1.351      1.791
REMARK  Name = 
REMARK  9 active torsions:
REMARK  status: ('A' for Active; 'I' for Inactive)
REMARK    1  A    between atoms: C_1  and  S_2
REMARK    2  A    between atoms: S_2  and  C_5
REMARK    3  A    between atoms: C_7  and  C_8
REMARK    4  A    between atoms: C_11  and  C_12
REMARK    5  A    between atoms: C_12  and  C_13
REMARK    6  A    between atoms: C_13  and  C_14
REMARK    7  A    between atoms: C_13  and  N_16
REMARK    8  A    between atoms: C_17  and  C_19
REMARK    9  A    between atoms: C_31  and  C_32
REMARK                            x       y       z     vdW  Elec       q    Type
REMARK                         _______ _______ _______ _____ _____    ______ ____
ROOT
ATOM      1  C   UNL     1       1.627   7.999  20.037  0.00  0.00    +0.000 A 
ATOM      2  C   UNL     1       1.056   8.485  21.228  0.00  0.00    +0.000 A 
ATOM      3  C   UNL     1       0.371   9.709  21.275  0.00  0.00    +0.000 A 
ATOM      4  C   UNL     1       0.244  10.498  20.122  0.00  0.00    +0.000 A 
ATOM      5  C   UNL     1       0.846  10.051  18.946  0.00  0.00    +0.000 A 
ATOM      6  C   UNL     1       1.522   8.826  18.905  0.00  0.00    +0.000 A 
ENDROOT
BRANCH   1   9
ATOM      7  C   UNL     1       4.073   5.188  19.161  0.00  0.00    +0.000 A 
ATOM      8  C   UNL     1       3.413   6.434  19.166  0.00  0.00    +0.000 A 
ATOM      9  C   UNL     1       2.260   6.657  19.944  0.00  0.00    +0.000 A 
ATOM     10  C   UNL     1       1.774   5.562  20.681  0.00  0.00    +0.000 A 
ATOM     11  C   UNL     1       2.428   4.323  20.683  0.00  0.00    +0.000 A 
ATOM     12  C   UNL     1       3.586   4.125  19.925  0.00  0.00    +0.000 A 
BRANCH   7  14
ATOM     13  C   UNL     1       5.728   6.557  17.308  0.00  0.00    +0.000 C 
ATOM     14  S   UNL     1       5.495   4.990  18.106  0.00  0.00    +0.000 S 
ATOM     15  O   UNL     1       5.130   4.041  17.068  0.00  0.00    +0.000 OA
ATOM     16  O   UNL     1       6.621   4.722  18.975  0.00  0.00    +0.000 OA
ENDBRANCH   7  14
BRANCH  12  17
ATOM     17  C   UNL     1       4.230   2.849  20.010  0.00  0.00    +0.000 C 
ATOM     18  N   UNL     1       4.730   1.798  20.001  0.00  0.00    +0.000 NA
ENDBRANCH  12  17
ENDBRANCH   1   9
BRANCH   4  19
ATOM     19  C   UNL     1      -0.539  11.795  20.144  0.00  0.00    +0.000 C 
BRANCH  19  20
ATOM     20  C   UNL     1      -1.103  12.176  21.525  0.00  0.00    +0.000 C 
BRANCH  20  21
ATOM     21  N   UNL     1      -2.502  12.582  21.432  0.00  0.00    +0.000 N 
ATOM     22  C   UNL     1      -3.434  12.443  22.438  0.00  0.00    +0.000 C 
ATOM     23  O   UNL     1      -3.186  11.932  23.523  0.00  0.00    +0.000 OA
ATOM     24  H   UNL     1      -2.908  12.782  20.519  0.00  0.00    +0.000 HD
BRANCH  22  25
ATOM     25  C   UNL     1      -4.762  13.147  22.089  0.00  0.00    +0.000 C 
ATOM     26  C   UNL     1      -4.964  13.145  20.561  0.00  0.00    +0.000 C 
ATOM     27  C   UNL     1      -5.966  14.222  20.132  0.00  0.00    +0.000 C 
ATOM     28  O   UNL     1      -6.930  14.529  21.140  0.00  0.00    +0.000 OA
ATOM     29  C   UNL     1      -6.400  14.708  22.471  0.00  0.00    +0.000 C 
ATOM     30  C   UNL     1      -6.795  13.479  23.286  0.00  0.00    +0.000 C 
ATOM     31  N   UNL     1      -5.906  12.411  22.764  0.00  0.00    +0.000 NA
ATOM     32  C   UNL     1      -4.886  14.593  22.551  0.00  0.00    +0.000 C 
ATOM     33  H   UNL     1      -6.443  11.941  22.030  0.00  0.00    +0.000 HD
ENDBRANCH  22  25
ENDBRANCH  20  21
BRANCH  20  34
ATOM     34  C   UNL     1      -0.331  13.293  22.119  0.00  0.00    +0.000 C 
ATOM     35  N   UNL     1       0.316  14.157  22.552  0.00  0.00    +0.000 NA
ENDBRANCH  20  34
ENDBRANCH  19  20
ENDBRANCH   4  19
TORSDOF 8
ENDMDL
MODEL 5
REMARK VINA RESULT:      -7.8      1.958      2.825
REMARK  Name = 
REMARK  9 active torsions:
REMARK  status: ('A' for Active; 'I' for Inactive)
REMARK    1  A    between atoms: C_1  and  S_2
REMARK    2  A    between atoms: S_2  and  C_5
REMARK    3  A    between atoms: C_7  and  C_8
REMARK    4  A    between atoms: C_11  and  C_12
REMARK    5  A    between atoms: C_12  and  C_13
REMARK    6  A    between atoms: C_13  and  C_14
REMARK    7  A    between atoms: C_13  and  N_16
REMARK    8  A    between atoms: C_17  and  C_19
REMARK    9  A    between atoms: C_31  and  C_32
REMARK                            x       y       z     vdW  Elec       q    Type
REMARK                         _______ _______ _______ _____ _____    ______ ____
ROOT
ATOM      1  C   UNL     1       1.677   8.571  18.961  0.00  0.00    +0.000 A 
ATOM      2  C   UNL     1       1.171   8.539  20.273  0.00  0.00    +0.000 A 
ATOM      3  C   UNL     1       0.256   9.497  20.737  0.00  0.00    +0.000 A 
ATOM      4  C   UNL     1      -0.176  10.533  19.898  0.00  0.00    +0.000 A 
ATOM      5  C   UNL     1       0.354  10.604  18.609  0.00  0.00    +0.000 A 
ATOM      6  C   UNL     1       1.260   9.641  18.151  0.00  0.00    +0.000 A 
ENDROOT
BRANCH   1   9
ATOM      7  C   UNL     1       3.075   5.126  18.051  0.00  0.00    +0.000 A 
ATOM      8  C   UNL     1       2.301   6.139  18.651  0.00  0.00    +0.000 A 
ATOM      9  C   UNL     1       2.560   7.504  18.419  0.00  0.00    +0.000 A 
ATOM     10  C   UNL     1       3.659   7.807  17.595  0.00  0.00    +0.000 A 
ATOM     11  C   UNL     1       4.429   6.805  16.991  0.00  0.00    +0.000 A 
ATOM     12  C   UNL     1       4.144   5.454  17.212  0.00  0.00    +0.000 A 
BRANCH   7  14
ATOM     13  C   UNL     1       1.378   3.488  19.626  0.00  0.00    +0.000 C 
ATOM     14  S   UNL     1       2.700   3.430  18.445  0.00  0.00    +0.000 S 
ATOM     15  O   UNL     1       3.856   2.884  19.136  0.00  0.00    +0.000 OA
ATOM     16  O   UNL     1       2.225   2.816  17.223  0.00  0.00    +0.000 OA
ENDBRANCH   7  14
BRANCH  12  17
ATOM     17  C   UNL     1       4.942   4.482  16.527  0.00  0.00    +0.000 C 
ATOM     18  N   UNL     1       5.659   3.733  15.998  0.00  0.00    +0.000 NA
ENDBRANCH  12  17
ENDBRANCH   1   9
BRANCH   4  19
ATOM     19  C   UNL     1      -1.204  11.543  20.365  0.00  0.00    +0.000 C 
BRANCH  19  20
ATOM     20  C   UNL     1      -0.881  12.201  21.720  0.00  0.00    +0.000 C 
BRANCH  20  21
ATOM     21  N   UNL     1      -2.005  12.999  22.203  0.00  0.00    +0.000 N 
ATOM     22  C   UNL     1      -2.923  12.583  23.142  0.00  0.00    +0.000 C 
ATOM     23  O   UNL     1      -2.906  11.473  23.659  0.00  0.00    +0.000 OA
ATOM     24  H   UNL     1      -2.291  13.828  21.685  0.00  0.00    +0.000 HD
BRANCH  22  25
ATOM     25  C   UNL     1      -3.861  13.731  23.572  0.00  0.00    +0.000 C 
ATOM     26  C   UNL     1      -5.324  13.250  23.524  0.00  0.00    +0.000 C 
ATOM     27  C   UNL     1      -6.295  14.434  23.455  0.00  0.00    +0.000 C 
ATOM     28  O   UNL     1      -5.785  15.619  24.067  0.00  0.00    +0.000 OA
ATOM     29  C   UNL     1      -4.420  15.951  23.734  0.00  0.00    +0.000 C 
ATOM     30  C   UNL     1      -3.566  15.644  24.960  0.00  0.00    +0.000 C 
ATOM     31  N   UNL     1      -3.503  14.161  24.984  0.00  0.00    +0.000 NA
ATOM     32  C   UNL     1      -3.783  15.000  22.733  0.00  0.00    +0.000 C 
ATOM     33  H   UNL     1      -4.267  13.863  25.598  0.00  0.00    +0.000 HD
ENDBRANCH  22  25
ENDBRANCH  20  21
BRANCH  20  34
ATOM     34  C   UNL     1       0.304  13.084  21.608  0.00  0.00    +0.000 C 
ATOM     35  N   UNL     1       1.263  13.734  21.502  0.00  0.00    +0.000 NA
ENDBRANCH  20  34
ENDBRANCH  19  20
ENDBRANCH   4  19
TORSDOF 8
ENDMDL
MODEL 6
REMARK VINA RESULT:      -7.8      0.739      1.470
REMARK  Name = 
REMARK  9 active torsions:
REMARK  status: ('A' for Active; 'I' for Inactive)
REMARK    1  A    between atoms: C_1  and  S_2
REMARK    2  A    between atoms: S_2  and  C_5
REMARK    3  A    between atoms: C_7  and  C_8
REMARK    4  A    between atoms: C_11  and  C_12
REMARK    5  A    between atoms: C_12  and  C_13
REMARK    6  A    between atoms: C_13  and  C_14
REMARK    7  A    between atoms: C_13  and  N_16
REMARK    8  A    between atoms: C_17  and  C_19
REMARK    9  A    between atoms: C_31  and  C_32
REMARK                            x       y       z     vdW  Elec       q    Type
REMARK                         _______ _______ _______ _____ _____    ______ ____
ROOT
ATOM      1  C   UNL     1       1.876   7.957  19.463  0.00  0.00    +0.000 A 
ATOM      2  C   UNL     1       1.209   8.519  20.567  0.00  0.00    +0.000 A 
ATOM      3  C   UNL     1       0.563   9.762  20.487  0.00  0.00    +0.000 A 
ATOM      4  C   UNL     1       0.572  10.494  19.291  0.00  0.00    +0.000 A 
ATOM      5  C   UNL     1       1.270   9.970  18.202  0.00  0.00    +0.000 A 
ATOM      6  C   UNL     1       1.906   8.727  18.287  0.00  0.00    +0.000 A 
ENDROOT
BRANCH   1   9
ATOM      7  C   UNL     1       4.195   4.987  18.791  0.00  0.00    +0.000 A 
ATOM      8  C   UNL     1       3.564   6.243  18.683  0.00  0.00    +0.000 A 
ATOM      9  C   UNL     1       2.471   6.594  19.497  0.00  0.00    +0.000 A 
ATOM     10  C   UNL     1       2.009   5.613  20.393  0.00  0.00    +0.000 A 
ATOM     11  C   UNL     1       2.634   4.364  20.509  0.00  0.00    +0.000 A 
ATOM     12  C   UNL     1       3.735   4.040  19.710  0.00  0.00    +0.000 A 
BRANCH   7  14
ATOM     13  C   UNL     1       5.806   6.094  16.735  0.00  0.00    +0.000 C 
ATOM     14  S   UNL     1       5.539   4.618  17.682  0.00  0.00    +0.000 S 
ATOM     15  O   UNL     1       5.065   3.605  16.755  0.00  0.00    +0.000 OA
ATOM     16  O   UNL     1       6.700   4.362  18.509  0.00  0.00    +0.000 OA
ENDBRANCH   7  14
BRANCH  12  17
ATOM     17  C   UNL     1       4.354   2.765  19.912  0.00  0.00    +0.000 C 
ATOM     18  N   UNL     1       4.814   1.700  20.012  0.00  0.00    +0.000 NA
ENDBRANCH  12  17
ENDBRANCH   1   9
BRANCH   4  19
ATOM     19  C   UNL     1      -0.167  11.811  19.172  0.00  0.00    +0.000 C 
BRANCH  19  20
ATOM     20  C   UNL     1      -0.052  12.720  20.410  0.00  0.00    +0.000 C 
BRANCH  20  21
ATOM     21  N   UNL     1      -1.349  12.901  21.056  0.00  0.00    +0.000 N 
ATOM     22  C   UNL     1      -1.603  12.685  22.392  0.00  0.00    +0.000 C 
ATOM     23  O   UNL     1      -0.758  12.288  23.185  0.00  0.00    +0.000 OA
ATOM     24  H   UNL     1      -2.188  12.978  20.484  0.00  0.00    +0.000 HD
BRANCH  22  25
ATOM     25  C   UNL     1      -3.019  13.156  22.789  0.00  0.00    +0.000 C 
ATOM     26  C   UNL     1      -3.436  12.484  24.111  0.00  0.00    +0.000 C 
ATOM     27  C   UNL     1      -4.957  12.514  24.292  0.00  0.00    +0.000 C 
ATOM     28  O   UNL     1      -5.582  13.620  23.640  0.00  0.00    +0.000 OA
ATOM     29  C   UNL     1      -5.140  13.872  22.288  0.00  0.00    +0.000 C 
ATOM     30  C   UNL     1      -4.272  15.127  22.321  0.00  0.00    +0.000 C 
ATOM     31  N   UNL     1      -3.011  14.666  22.954  0.00  0.00    +0.000 NA
ATOM     32  C   UNL     1      -4.120  12.867  21.777  0.00  0.00    +0.000 C 
ATOM     33  H   UNL     1      -3.116  14.865  23.953  0.00  0.00    +0.000 HD
ENDBRANCH  22  25
ENDBRANCH  20  21
BRANCH  20  34
ATOM     34  C   UNL     1       0.474  14.054  20.037  0.00  0.00    +0.000 C 
ATOM     35  N   UNL     1       0.859  15.123  19.787  0.00  0.00    +0.000 NA
ENDBRANCH  20  34
ENDBRANCH  19  20
ENDBRANCH   4  19
TORSDOF 8
ENDMDL
MODEL 7
REMARK VINA RESULT:      -7.7      2.693      5.120
REMARK  Name = 
REMARK  9 active torsions:
REMARK  status: ('A' for Active; 'I' for Inactive)
REMARK    1  A    between atoms: C_1  and  S_2
REMARK    2  A    between atoms: S_2  and  C_5
REMARK    3  A    between atoms: C_7  and  C_8
REMARK    4  A    between atoms: C_11  and  C_12
REMARK    5  A    between atoms: C_12  and  C_13
REMARK    6  A    between atoms: C_13  and  C_14
REMARK    7  A    between atoms: C_13  and  N_16
REMARK    8  A    between atoms: C_17  and  C_19
REMARK    9  A    between atoms: C_31  and  C_32
REMARK                            x       y       z     vdW  Elec       q    Type
REMARK                         _______ _______ _______ _____ _____    ______ ____
ROOT
ATOM      1  C   UNL     1       2.016   8.332  18.615  0.00  0.00    +0.000 A 
ATOM      2  C   UNL     1       1.537   8.351  19.938  0.00  0.00    +0.000 A 
ATOM      3  C   UNL     1       0.513   9.222  20.341  0.00  0.00    +0.000 A 
ATOM      4  C   UNL     1      -0.061  10.118  19.428  0.00  0.00    +0.000 A 
ATOM      5  C   UNL     1       0.438  10.143  18.126  0.00  0.00    +0.000 A 
ATOM      6  C   UNL     1       1.454   9.267  17.728  0.00  0.00    +0.000 A 
ENDROOT
BRANCH   1   9
ATOM      7  C   UNL     1       3.945   5.062  18.129  0.00  0.00    +0.000 A 
ATOM      8  C   UNL     1       3.063   6.030  18.651  0.00  0.00    +0.000 A 
ATOM      9  C   UNL     1       3.022   7.343  18.144  0.00  0.00    +0.000 A 
ATOM     10  C   UNL     1       3.937   7.655  17.122  0.00  0.00    +0.000 A 
ATOM     11  C   UNL     1       4.814   6.696  16.597  0.00  0.00    +0.000 A 
ATOM     12  C   UNL     1       4.825   5.389  17.094  0.00  0.00    +0.000 A 
BRANCH   7  14
ATOM     13  C   UNL     1       2.724   3.485  20.146  0.00  0.00    +0.000 C 
ATOM     14  S   UNL     1       3.957   3.442  18.870  0.00  0.00    +0.000 S 
ATOM     15  O   UNL     1       5.240   3.281  19.532  0.00  0.00    +0.000 OA
ATOM     16  O   UNL     1       3.547   2.512  17.838  0.00  0.00    +0.000 OA
ENDBRANCH   7  14
BRANCH  12  17
ATOM     17  C   UNL     1       5.712   4.449  16.480  0.00  0.00    +0.000 C 
ATOM     18  N   UNL     1       6.496   3.719  16.024  0.00  0.00    +0.000 NA
ENDBRANCH  12  17
ENDBRANCH   1   9
BRANCH   4  19
ATOM     19  C   UNL     1      -1.203  11.026  19.834  0.00  0.00    +0.000 C 
BRANCH  19  20
ATOM     20  C   UNL     1      -0.803  12.165  20.790  0.00  0.00    +0.000 C 
BRANCH  20  21
ATOM     21  N   UNL     1       0.466  12.769  20.393  0.00  0.00    +0.000 N 
ATOM     22  C   UNL     1       0.623  13.678  19.370  0.00  0.00    +0.000 C 
ATOM     23  O   UNL     1      -0.298  14.063  18.661  0.00  0.00    +0.000 OA
ATOM     24  H   UNL     1       1.340  12.359  20.718  0.00  0.00    +0.000 HD
BRANCH  22  25
ATOM     25  C   UNL     1       2.051  14.265  19.340  0.00  0.00    +0.000 C 
ATOM     26  C   UNL     1       2.876  13.677  20.502  0.00  0.00    +0.000 C 
ATOM     27  C   UNL     1       4.091  14.556  20.818  0.00  0.00    +0.000 C 
ATOM     28  O   UNL     1       4.570  15.286  19.688  0.00  0.00    +0.000 OA
ATOM     29  C   UNL     1       3.555  15.940  18.896  0.00  0.00    +0.000 C 
ATOM     30  C   UNL     1       3.413  15.151  17.598  0.00  0.00    +0.000 C 
ATOM     31  N   UNL     1       2.702  13.915  18.013  0.00  0.00    +0.000 NA
ATOM     32  C   UNL     1       2.147  15.781  19.449  0.00  0.00    +0.000 C 
ATOM     33  H   UNL     1       3.436  13.226  18.204  0.00  0.00    +0.000 HD
ENDBRANCH  22  25
ENDBRANCH  20  21
BRANCH  20  34
ATOM     34  C   UNL     1      -0.668  11.666  22.178  0.00  0.00    +0.000 C 
ATOM     35  N   UNL     1      -0.568  11.222  23.249  0.00  0.00    +0.000 NA
ENDBRANCH  20  34
ENDBRANCH  19  20
ENDBRANCH   4  19
TORSDOF 8
ENDMDL
MODEL 8
REMARK VINA RESULT:      -7.7      3.006      4.208
REMARK  Name = 
REMARK  9 active torsions:
REMARK  status: ('A' for Active; 'I' for Inactive)
REMARK    1  A    between atoms: C_1  and  S_2
REMARK    2  A    between atoms: S_2  and  C_5
REMARK    3  A    between atoms: C_7  and  C_8
REMARK    4  A    between atoms: C_11  and  C_12
REMARK    5  A    between atoms: C_12  and  C_13
REMARK    6  A    between atoms: C_13  and  C_14
REMARK    7  A    between atoms: C_13  and  N_16
REMARK    8  A    between atoms: C_17  and  C_19
REMARK    9  A    between atoms: C_31  and  C_32
REMARK                            x       y       z     vdW  Elec       q    Type
REMARK                         _______ _______ _______ _____ _____    ______ ____
ROOT
ATOM      1  C   UNL     1       1.981   8.309  18.803  0.00  0.00    +0.000 A 
ATOM      2  C   UNL     1       1.531   8.320  20.136  0.00  0.00    +0.000 A 
ATOM      3  C   UNL     1       0.560   9.231  20.581  0.00  0.00    +0.000 A 
ATOM      4  C   UNL     1       0.010  10.173  19.700  0.00  0.00    +0.000 A 
ATOM      5  C   UNL     1       0.482  10.203  18.387  0.00  0.00    +0.000 A 
ATOM      6  C   UNL     1       1.446   9.288  17.949  0.00  0.00    +0.000 A 
ENDROOT
BRANCH   1   9
ATOM      7  C   UNL     1       3.747   4.964  18.216  0.00  0.00    +0.000 A 
ATOM      8  C   UNL     1       2.924   5.962  18.776  0.00  0.00    +0.000 A 
ATOM      9  C   UNL     1       2.926   7.283  18.288  0.00  0.00    +0.000 A 
ATOM     10  C   UNL     1       3.824   7.568  17.244  0.00  0.00    +0.000 A 
ATOM     11  C   UNL     1       4.641   6.580  16.679  0.00  0.00    +0.000 A 
ATOM     12  C   UNL     1       4.609   5.267  17.159  0.00  0.00    +0.000 A 
BRANCH   7  14
ATOM     13  C   UNL     1       2.534   3.419  20.262  0.00  0.00    +0.000 C 
ATOM     14  S   UNL     1       3.708   3.334  18.935  0.00  0.00    +0.000 S 
ATOM     15  O   UNL     1       5.008   3.100  19.539  0.00  0.00    +0.000 OA
ATOM     16  O   UNL     1       3.209   2.441  17.909  0.00  0.00    +0.000 OA
ENDBRANCH   7  14
BRANCH  12  17
ATOM     17  C   UNL     1       5.435   4.297  16.506  0.00  0.00    +0.000 C 
ATOM     18  N   UNL     1       6.080   3.539  15.902  0.00  0.00    +0.000 NA
ENDBRANCH  12  17
ENDBRANCH   1   9
BRANCH   4  19
ATOM     19  C   UNL     1      -1.078  11.126  20.150  0.00  0.00    +0.000 C 
BRANCH  19  20
ATOM     20  C   UNL     1      -1.593  12.072  19.049  0.00  0.00    +0.000 C 
BRANCH  20  21
ATOM     21  N   UNL     1      -1.462  13.470  19.448  0.00  0.00    +0.000 N 
ATOM     22  C   UNL     1      -0.386  14.278  19.151  0.00  0.00    +0.000 C 
ATOM     23  O   UNL     1       0.598  13.894  18.533  0.00  0.00    +0.000 OA
ATOM     24  H   UNL     1      -2.073  13.846  20.172  0.00  0.00    +0.000 HD
BRANCH  22  25
ATOM     25  C   UNL     1      -0.649  15.748  19.548  0.00  0.00    +0.000 C 
ATOM     26  C   UNL     1      -0.395  16.664  18.335  0.00  0.00    +0.000 C 
ATOM     27  C   UNL     1      -0.159  18.113  18.775  0.00  0.00    +0.000 C 
ATOM     28  O   UNL     1      -0.815  18.446  19.999  0.00  0.00    +0.000 OA
ATOM     29  C   UNL     1      -0.680  17.474  21.059  0.00  0.00    +0.000 C 
ATOM     30  C   UNL     1      -2.025  16.769  21.203  0.00  0.00    +0.000 C 
ATOM     31  N   UNL     1      -2.089  15.886  20.010  0.00  0.00    +0.000 NA
ATOM     32  C   UNL     1       0.196  16.285  20.695  0.00  0.00    +0.000 C 
ATOM     33  H   UNL     1      -2.589  16.424  19.297  0.00  0.00    +0.000 HD
ENDBRANCH  22  25
ENDBRANCH  20  21
BRANCH  20  34
ATOM     34  C   UNL     1      -3.020  11.804  18.750  0.00  0.00    +0.000 C 
ATOM     35  N   UNL     1      -4.145  11.574  18.565  0.00  0.00    +0.000 NA
ENDBRANCH  20  34
ENDBRANCH  19  20
ENDBRANCH   4  19
TORSDOF 8
ENDMDL
MODEL 9
REMARK VINA RESULT:      -7.7      2.975      4.378
REMARK  Name = 
REMARK  9 active torsions:
REMARK  status: ('A' for Active; 'I' for Inactive)
REMARK    1  A    between atoms: C_1  and  S_2
REMARK    2  A    between atoms: S_2  and  C_5
REMARK    3  A    between atoms: C_7  and  C_8
REMARK    4  A    between atoms: C_11  and  C_12
REMARK    5  A    between atoms: C_12  and  C_13
REMARK    6  A    between atoms: C_13  and  C_14
REMARK    7  A    between atoms: C_13  and  N_16
REMARK    8  A    between atoms: C_17  and  C_19
REMARK    9  A    between atoms: C_31  and  C_32
REMARK                            x       y       z     vdW  Elec       q    Type
REMARK                         _______ _______ _______ _____ _____    ______ ____
ROOT
ATOM      1  C   UNL     1       2.046   8.261  18.718  0.00  0.00    +0.000 A 
ATOM      2  C   UNL     1       1.634   8.292  20.063  0.00  0.00    +0.000 A 
ATOM      3  C   UNL     1       0.669   9.203  20.520  0.00  0.00    +0.000 A 
ATOM      4  C   UNL     1       0.087  10.125  19.639  0.00  0.00    +0.000 A 
ATOM      5  C   UNL     1       0.521  10.136  18.313  0.00  0.00    +0.000 A 
ATOM      6  C   UNL     1       1.479   9.221  17.863  0.00  0.00    +0.000 A 
ENDROOT
BRANCH   1   9
ATOM      7  C   UNL     1       3.791   4.910  18.100  0.00  0.00    +0.000 A 
ATOM      8  C   UNL     1       2.974   5.908  18.670  0.00  0.00    +0.000 A 
ATOM      9  C   UNL     1       2.986   7.234  18.194  0.00  0.00    +0.000 A 
ATOM     10  C   UNL     1       3.886   7.523  17.153  0.00  0.00    +0.000 A 
ATOM     11  C   UNL     1       4.696   6.535  16.580  0.00  0.00    +0.000 A 
ATOM     12  C   UNL     1       4.655   5.218  17.047  0.00  0.00    +0.000 A 
BRANCH   7  14
ATOM     13  C   UNL     1       2.461   3.314  20.032  0.00  0.00    +0.000 C 
ATOM     14  S   UNL     1       3.741   3.274  18.804  0.00  0.00    +0.000 S 
ATOM     15  O   UNL     1       4.994   3.072  19.510  0.00  0.00    +0.000 OA
ATOM     16  O   UNL     1       3.353   2.376  17.736  0.00  0.00    +0.000 OA
ENDBRANCH   7  14
BRANCH  12  17
ATOM     17  C   UNL     1       5.476   4.249  16.385  0.00  0.00    +0.000 C 
ATOM     18  N   UNL     1       6.116   3.493  15.774  0.00  0.00    +0.000 NA
ENDBRANCH  12  17
ENDBRANCH   1   9
BRANCH   4  19
ATOM     19  C   UNL     1      -0.996  11.077  20.104  0.00  0.00    +0.000 C 
BRANCH  19  20
ATOM     20  C   UNL     1      -1.507  12.042  19.017  0.00  0.00    +0.000 C 
BRANCH  20  21
ATOM     21  N   UNL     1      -1.287  13.434  19.399  0.00  0.00    +0.000 N 
ATOM     22  C   UNL     1      -0.163  14.169  19.093  0.00  0.00    +0.000 C 
ATOM     23  O   UNL     1       0.795  13.716  18.480  0.00  0.00    +0.000 OA
ATOM     24  H   UNL     1      -1.872  13.856  20.118  0.00  0.00    +0.000 HD
BRANCH  22  25
ATOM     25  C   UNL     1      -0.332  15.656  19.472  0.00  0.00    +0.000 C 
ATOM     26  C   UNL     1      -1.611  15.835  20.311  0.00  0.00    +0.000 C 
ATOM     27  C   UNL     1      -2.086  17.292  20.294  0.00  0.00    +0.000 C 
ATOM     28  O   UNL     1      -1.026  18.230  20.108  0.00  0.00    +0.000 OA
ATOM     29  C   UNL     1      -0.083  17.901  19.065  0.00  0.00    +0.000 C 
ATOM     30  C   UNL     1       1.208  17.454  19.745  0.00  0.00    +0.000 C 
ATOM     31  N   UNL     1       0.880  16.104  20.271  0.00  0.00    +0.000 NA
ATOM     32  C   UNL     1      -0.426  16.630  18.304  0.00  0.00    +0.000 C 
ATOM     33  H   UNL     1       0.572  16.253  21.236  0.00  0.00    +0.000 HD
ENDBRANCH  22  25
ENDBRANCH  20  21
BRANCH  20  34
ATOM     34  C   UNL     1      -2.956  11.847  18.778  0.00  0.00    +0.000 C 
ATOM     35  N   UNL     1      -4.085  11.641  18.588  0.00  0.00    +0.000 NA
ENDBRANCH  20  34
ENDBRANCH  19  20
ENDBRANCH   4  19
TORSDOF 8
ENDMDL
