MODEL 1
REMARK VINA RESULT:      -7.9      0.000      0.000
REMARK  Name = 
REMARK  4 active torsions:
REMARK  status: ('A' for Active; 'I' for Inactive)
REMARK    1  A    between atoms: C_1  and  C_2
REMARK    2  A    between atoms: C_5  and  N_6
REMARK    3  A    between atoms: N_6  and  S_7
REMARK    4  A    between atoms: S_7  and  C_10
REMARK                            x       y       z     vdW  Elec       q    Type
REMARK                         _______ _______ _______ _____ _____    ______ ____
ROOT
ATOM      1  C   UNL     1      -1.288  14.405  24.139  0.00  0.00    +0.000 C 
ATOM      2  C   UNL     1      -1.933  13.872  22.867  0.00  0.00    +0.000 C 
ATOM      3  C   UNL     1      -1.379  12.477  22.504  0.00  0.00    +0.000 C 
ATOM      4  C   UNL     1      -1.107  12.417  21.000  0.00  0.00    +0.000 C 
ATOM      5  C   UNL     1      -0.673  11.057  20.438  0.00  0.00    +0.000 C 
ATOM      6  C   UNL     1      -0.711  11.162  18.903  0.00  0.00    +0.000 C 
ATOM      7  C   UNL     1      -1.872  10.368  18.312  0.00  0.00    +0.000 C 
ATOM      8  C   UNL     1      -3.007  11.319  17.978  0.00  0.00    +0.000 C 
ATOM      9  C   UNL     1      -4.210  10.585  17.413  0.00  0.00    +0.000 C 
ATOM     10  C   UNL     1      -5.346  11.548  17.060  0.00  0.00    +0.000 C 
ATOM     11  C   UNL     1      -6.313  11.795  18.222  0.00  0.00    +0.000 C 
ATOM     12  C   UNL     1      -5.943  13.007  19.080  0.00  0.00    +0.000 C 
ATOM     13  C   UNL     1      -6.887  13.147  20.274  0.00  0.00    +0.000 C 
ATOM     14  C   UNL     1      -6.544  14.337  21.181  0.00  0.00    +0.000 C 
ATOM     15  C   UNL     1      -5.607  13.988  22.342  0.00  0.00    +0.000 C 
ATOM     16  C   UNL     1      -4.140  14.168  22.010  0.00  0.00    +0.000 C 
ATOM     17  O   UNL     1      -3.713  14.609  20.959  0.00  0.00    +0.000 OA
ATOM     18  O   UNL     1      -3.360  13.779  23.069  0.00  0.00    +0.000 OA
ENDROOT
BRANCH   5  19
ATOM     19  N   UNL     1       0.680  10.670  20.909  0.00  0.00    +0.000 NA
ATOM     20  H   UNL     1       1.102  11.331  21.567  0.00  0.00    +0.000 HD
BRANCH  19  21
ATOM     21  S   UNL     1       0.839   9.121  21.616  0.00  0.00    +0.000 S 
ATOM     22  O   UNL     1       1.842   9.261  22.648  0.00  0.00    +0.000 OA
ATOM     23  O   UNL     1      -0.486   8.639  21.919  0.00  0.00    +0.000 OA
BRANCH  21  24
ATOM     24  C   UNL     1       1.554   8.086  20.348  0.00  0.00    +0.000 A 
ATOM     25  C   UNL     1       1.833   8.597  19.075  0.00  0.00    +0.000 A 
ATOM     26  C   UNL     1       2.421   7.759  18.119  0.00  0.00    +0.000 A 
ATOM     27  C   UNL     1       2.710   6.433  18.442  0.00  0.00    +0.000 A 
ATOM     28  F   UNL     1       3.299   5.645  17.531  0.00  0.00    +0.000 F 
ATOM     29  C   UNL     1       2.412   5.915  19.696  0.00  0.00    +0.000 A 
ATOM     30  C   UNL     1       1.833   6.743  20.655  0.00  0.00    +0.000 A 
ENDBRANCH  21  24
ENDBRANCH  19  21
ENDBRANCH   5  19
TORSDOF 3
ENDMDL
MODEL 2
REMARK VINA RESULT:      -7.7      0.925      1.327
REMARK  Name = 
REMARK  4 active torsions:
REMARK  status: ('A' for Active; 'I' for Inactive)
REMARK    1  A    between atoms: C_1  and  C_2
REMARK    2  A    between atoms: C_5  and  N_6
REMARK    3  A    between atoms: N_6  and  S_7
REMARK    4  A    between atoms: S_7  and  C_10
REMARK                            x       y       z     vdW  Elec       q    Type
REMARK                         _______ _______ _______ _____ _____    ______ ____
ROOT
ATOM      1  C   UNL     1      -2.826  13.448  24.825  0.00  0.00    +0.000 C 
ATOM      2  C   UNL     1      -3.152  13.094  23.380  0.00  0.00    +0.000 C 
ATOM      3  C   UNL     1      -2.266  11.932  22.878  0.00  0.00    +0.000 C 
ATOM      4  C   UNL     1      -1.773  12.248  21.465  0.00  0.00    +0.000 C 
ATOM      5  C   UNL     1      -0.983  11.141  20.754  0.00  0.00    +0.000 C 
ATOM      6  C   UNL     1      -0.820  11.565  19.284  0.00  0.00    +0.000 C 
ATOM      7  C   UNL     1      -1.687  10.722  18.354  0.00  0.00    +0.000 C 
ATOM      8  C   UNL     1      -2.938  11.503  17.995  0.00  0.00    +0.000 C 
ATOM      9  C   UNL     1      -3.862  10.704  17.094  0.00  0.00    +0.000 C 
ATOM     10  C   UNL     1      -5.114  11.500  16.718  0.00  0.00    +0.000 C 
ATOM     11  C   UNL     1      -6.269  11.313  17.707  0.00  0.00    +0.000 C 
ATOM     12  C   UNL     1      -6.294  12.359  18.825  0.00  0.00    +0.000 C 
ATOM     13  C   UNL     1      -7.409  12.067  19.828  0.00  0.00    +0.000 C 
ATOM     14  C   UNL     1      -7.462  13.076  20.984  0.00  0.00    +0.000 C 
ATOM     15  C   UNL     1      -6.650  12.659  22.216  0.00  0.00    +0.000 C 
ATOM     16  C   UNL     1      -5.223  13.167  22.198  0.00  0.00    +0.000 C 
ATOM     17  O   UNL     1      -4.753  13.893  21.343  0.00  0.00    +0.000 OA
ATOM     18  O   UNL     1      -4.539  12.705  23.295  0.00  0.00    +0.000 OA
ENDROOT
BRANCH   5  19
ATOM     19  N   UNL     1       0.339  10.911  21.389  0.00  0.00    +0.000 NA
ATOM     20  H   UNL     1       0.563  11.565  22.144  0.00  0.00    +0.000 HD
BRANCH  19  21
ATOM     21  S   UNL     1       0.638   9.344  22.006  0.00  0.00    +0.000 S 
ATOM     22  O   UNL     1       1.665   9.508  23.012  0.00  0.00    +0.000 OA
ATOM     23  O   UNL     1      -0.635   8.748  22.326  0.00  0.00    +0.000 OA
BRANCH  21  24
ATOM     24  C   UNL     1       1.382   8.433  20.662  0.00  0.00    +0.000 A 
ATOM     25  C   UNL     1       1.774   7.099  20.828  0.00  0.00    +0.000 A 
ATOM     26  C   UNL     1       2.327   6.413  19.739  0.00  0.00    +0.000 A 
ATOM     27  C   UNL     1       2.487   7.063  18.516  0.00  0.00    +0.000 A 
ATOM     28  F   UNL     1       2.990   6.391  17.472  0.00  0.00    +0.000 F 
ATOM     29  C   UNL     1       2.122   8.394  18.355  0.00  0.00    +0.000 A 
ATOM     30  C   UNL     1       1.565   9.083  19.430  0.00  0.00    +0.000 A 
ENDBRANCH  21  24
ENDBRANCH  19  21
ENDBRANCH   5  19
TORSDOF 3
ENDMDL
MODEL 3
REMARK VINA RESULT:      -7.1      1.045      1.568
REMARK  Name = 
REMARK  4 active torsions:
REMARK  status: ('A' for Active; 'I' for Inactive)
REMARK    1  A    between atoms: C_1  and  C_2
REMARK    2  A    between atoms: C_5  and  N_6
REMARK    3  A    between atoms: N_6  and  S_7
REMARK    4  A    between atoms: S_7  and  C_10
REMARK                            x       y       z     vdW  Elec       q    Type
REMARK                         _______ _______ _______ _____ _____    ______ ____
ROOT
ATOM      1  C   UNL     1      -0.426  14.878  22.745  0.00  0.00    +0.000 C 
ATOM      2  C   UNL     1      -1.539  14.330  21.863  0.00  0.00    +0.000 C 
ATOM      3  C   UNL     1      -1.227  12.889  21.402  0.00  0.00    +0.000 C 
ATOM      4  C   UNL     1      -1.572  12.748  19.918  0.00  0.00    +0.000 C 
ATOM      5  C   UNL     1      -1.447  11.341  19.319  0.00  0.00    +0.000 C 
ATOM      6  C   UNL     1      -2.082  11.381  17.918  0.00  0.00    +0.000 C 
ATOM      7  C   UNL     1      -3.412  10.635  17.879  0.00  0.00    +0.000 C 
ATOM      8  C   UNL     1      -4.549  11.637  17.955  0.00  0.00    +0.000 C 
ATOM      9  C   UNL     1      -5.905  10.954  17.953  0.00  0.00    +0.000 C 
ATOM     10  C   UNL     1      -7.050  11.968  18.012  0.00  0.00    +0.000 C 
ATOM     11  C   UNL     1      -7.471  12.323  19.441  0.00  0.00    +0.000 C 
ATOM     12  C   UNL     1      -6.746  13.547  20.008  0.00  0.00    +0.000 C 
ATOM     13  C   UNL     1      -7.139  13.795  21.463  0.00  0.00    +0.000 C 
ATOM     14  C   UNL     1      -6.420  15.001  22.086  0.00  0.00    +0.000 C 
ATOM     15  C   UNL     1      -5.115  14.646  22.809  0.00  0.00    +0.000 C 
ATOM     16  C   UNL     1      -3.892  14.722  21.919  0.00  0.00    +0.000 C 
ATOM     17  O   UNL     1      -3.896  15.090  20.760  0.00  0.00    +0.000 OA
ATOM     18  O   UNL     1      -2.774  14.333  22.612  0.00  0.00    +0.000 OA
ENDROOT
BRANCH   5  19
ATOM     19  N   UNL     1      -0.034  10.894  19.248  0.00  0.00    +0.000 NA
ATOM     20  H   UNL     1       0.648  11.656  19.210  0.00  0.00    +0.000 HD
BRANCH  19  21
ATOM     21  S   UNL     1       0.502   9.830  20.475  0.00  0.00    +0.000 S 
ATOM     22  O   UNL     1       1.395  10.608  21.306  0.00  0.00    +0.000 OA
ATOM     23  O   UNL     1      -0.658   9.177  21.028  0.00  0.00    +0.000 OA
BRANCH  21  24
ATOM     24  C   UNL     1       1.512   8.611  19.647  0.00  0.00    +0.000 A 
ATOM     25  C   UNL     1       1.853   7.410  20.280  0.00  0.00    +0.000 A 
ATOM     26  C   UNL     1       2.622   6.469  19.583  0.00  0.00    +0.000 A 
ATOM     27  C   UNL     1       3.043   6.741  18.282  0.00  0.00    +0.000 A 
ATOM     28  F   UNL     1       3.754   5.824  17.612  0.00  0.00    +0.000 F 
ATOM     29  C   UNL     1       2.727   7.942  17.660  0.00  0.00    +0.000 A 
ATOM     30  C   UNL     1       1.957   8.882  18.342  0.00  0.00    +0.000 A 
ENDBRANCH  21  24
ENDBRANCH  19  21
ENDBRANCH   5  19
TORSDOF 3
ENDMDL
MODEL 4
REMARK VINA RESULT:      -7.1      4.253      6.427
REMARK  Name = 
REMARK  4 active torsions:
REMARK  status: ('A' for Active; 'I' for Inactive)
REMARK    1  A    between atoms: C_1  and  C_2
REMARK    2  A    between atoms: C_5  and  N_6
REMARK    3  A    between atoms: N_6  and  S_7
REMARK    4  A    between atoms: S_7  and  C_10
REMARK                            x       y       z     vdW  Elec       q    Type
REMARK                         _______ _______ _______ _____ _____    ______ ____
ROOT
ATOM      1  C   UNL     1      -2.672  10.501  15.534  0.00  0.00    +0.000 C 
ATOM      2  C   UNL     1      -3.116  10.969  16.914  0.00  0.00    +0.000 C 
ATOM      3  C   UNL     1      -1.992  11.755  17.624  0.00  0.00    +0.000 C 
ATOM      4  C   UNL     1      -1.909  11.309  19.085  0.00  0.00    +0.000 C 
ATOM      5  C   UNL     1      -0.930  12.080  19.980  0.00  0.00    +0.000 C 
ATOM      6  C   UNL     1      -1.199  11.648  21.433  0.00  0.00    +0.000 C 
ATOM      7  C   UNL     1      -1.877  12.756  22.234  0.00  0.00    +0.000 C 
ATOM      8  C   UNL     1      -3.364  12.468  22.324  0.00  0.00    +0.000 C 
ATOM      9  C   UNL     1      -4.104  13.553  23.085  0.00  0.00    +0.000 C 
ATOM     10  C   UNL     1      -5.601  13.251  23.190  0.00  0.00    +0.000 C 
ATOM     11  C   UNL     1      -6.416  13.815  22.022  0.00  0.00    +0.000 C 
ATOM     12  C   UNL     1      -6.594  12.827  20.866  0.00  0.00    +0.000 C 
ATOM     13  C   UNL     1      -7.332  13.475  19.695  0.00  0.00    +0.000 C 
ATOM     14  C   UNL     1      -7.517  12.531  18.499  0.00  0.00    +0.000 C 
ATOM     15  C   UNL     1      -6.398  12.618  17.455  0.00  0.00    +0.000 C 
ATOM     16  C   UNL     1      -5.265  11.644  17.701  0.00  0.00    +0.000 C 
ATOM     17  O   UNL     1      -5.241  10.812  18.589  0.00  0.00    +0.000 OA
ATOM     18  O   UNL     1      -4.273  11.820  16.769  0.00  0.00    +0.000 OA
ENDROOT
BRANCH   5  19
ATOM     19  N   UNL     1       0.482  11.823  19.604  0.00  0.00    +0.000 NA
ATOM     20  H   UNL     1       0.619  11.584  18.619  0.00  0.00    +0.000 HD
BRANCH  19  21
ATOM     21  S   UNL     1       1.614  13.055  19.962  0.00  0.00    +0.000 S 
ATOM     22  O   UNL     1       1.979  12.861  21.349  0.00  0.00    +0.000 OA
ATOM     23  O   UNL     1       2.608  13.054  18.918  0.00  0.00    +0.000 OA
BRANCH  21  24
ATOM     24  C   UNL     1       0.697  14.586  19.886  0.00  0.00    +0.000 A 
ATOM     25  C   UNL     1       0.278  15.113  18.659  0.00  0.00    +0.000 A 
ATOM     26  C   UNL     1      -0.464  16.301  18.647  0.00  0.00    +0.000 A 
ATOM     27  C   UNL     1      -0.765  16.944  19.847  0.00  0.00    +0.000 A 
ATOM     28  F   UNL     1      -1.499  18.066  19.829  0.00  0.00    +0.000 F 
ATOM     29  C   UNL     1      -0.329  16.438  21.065  0.00  0.00    +0.000 A 
ATOM     30  C   UNL     1       0.403  15.253  21.088  0.00  0.00    +0.000 A 
ENDBRANCH  21  24
ENDBRANCH  19  21
ENDBRANCH   5  19
TORSDOF 3
ENDMDL
MODEL 5
REMARK VINA RESULT:      -6.8      1.729      4.085
REMARK  Name = 
REMARK  4 active torsions:
REMARK  status: ('A' for Active; 'I' for Inactive)
REMARK    1  A    between atoms: C_1  and  C_2
REMARK    2  A    between atoms: C_5  and  N_6
REMARK    3  A    between atoms: N_6  and  S_7
REMARK    4  A    between atoms: S_7  and  C_10
REMARK                            x       y       z     vdW  Elec       q    Type
REMARK                         _______ _______ _______ _____ _____    ______ ____
ROOT
ATOM      1  C   UNL     1      -2.920   9.735  15.916  0.00  0.00    +0.000 C 
ATOM      2  C   UNL     1      -3.345  10.629  17.073  0.00  0.00    +0.000 C 
ATOM      3  C   UNL     1      -2.127  11.346  17.699  0.00  0.00    +0.000 C 
ATOM      4  C   UNL     1      -2.242  11.298  19.223  0.00  0.00    +0.000 C 
ATOM      5  C   UNL     1      -1.182  12.077  20.012  0.00  0.00    +0.000 C 
ATOM      6  C   UNL     1      -1.636  12.109  21.483  0.00  0.00    +0.000 C 
ATOM      7  C   UNL     1      -2.109  13.498  21.898  0.00  0.00    +0.000 C 
ATOM      8  C   UNL     1      -3.626  13.535  21.875  0.00  0.00    +0.000 C 
ATOM      9  C   UNL     1      -4.163  14.905  22.249  0.00  0.00    +0.000 C 
ATOM     10  C   UNL     1      -5.694  14.935  22.243  0.00  0.00    +0.000 C 
ATOM     11  C   UNL     1      -6.286  15.312  20.881  0.00  0.00    +0.000 C 
ATOM     12  C   UNL     1      -6.596  14.105  19.992  0.00  0.00    +0.000 C 
ATOM     13  C   UNL     1      -7.095  14.547  18.617  0.00  0.00    +0.000 C 
ATOM     14  C   UNL     1      -7.399  13.371  17.677  0.00  0.00    +0.000 C 
ATOM     15  C   UNL     1      -6.220  12.960  16.788  0.00  0.00    +0.000 C 
ATOM     16  C   UNL     1      -5.344  11.889  17.403  0.00  0.00    +0.000 C 
ATOM     17  O   UNL     1      -5.562  11.336  18.465  0.00  0.00    +0.000 OA
ATOM     18  O   UNL     1      -4.278  11.616  16.584  0.00  0.00    +0.000 OA
ENDROOT
BRANCH   5  19
ATOM     19  N   UNL     1       0.163  11.464  19.885  0.00  0.00    +0.000 NA
ATOM     20  H   UNL     1       0.939  12.111  20.048  0.00  0.00    +0.000 HD
BRANCH  19  21
ATOM     21  S   UNL     1       0.478  10.085  20.848  0.00  0.00    +0.000 S 
ATOM     22  O   UNL     1       1.419  10.519  21.858  0.00  0.00    +0.000 OA
ATOM     23  O   UNL     1      -0.790   9.502  21.206  0.00  0.00    +0.000 OA
BRANCH  21  24
ATOM     24  C   UNL     1       1.359   8.949  19.787  0.00  0.00    +0.000 A 
ATOM     25  C   UNL     1       1.635   9.278  18.455  0.00  0.00    +0.000 A 
ATOM     26  C   UNL     1       2.353   8.370  17.665  0.00  0.00    +0.000 A 
ATOM     27  C   UNL     1       2.773   7.157  18.210  0.00  0.00    +0.000 A 
ATOM     28  F   UNL     1       3.484   6.306  17.457  0.00  0.00    +0.000 F 
ATOM     29  C   UNL     1       2.479   6.817  19.524  0.00  0.00    +0.000 A 
ATOM     30  C   UNL     1       1.771   7.716  20.319  0.00  0.00    +0.000 A 
ENDBRANCH  21  24
ENDBRANCH  19  21
ENDBRANCH   5  19
TORSDOF 3
ENDMDL
MODEL 6
REMARK VINA RESULT:      -6.7      3.320      5.871
REMARK  Name = 
REMARK  4 active torsions:
REMARK  status: ('A' for Active; 'I' for Inactive)
REMARK    1  A    between atoms: C_1  and  C_2
REMARK    2  A    between atoms: C_5  and  N_6
REMARK    3  A    between atoms: N_6  and  S_7
REMARK    4  A    between atoms: S_7  and  C_10
REMARK                            x       y       z     vdW  Elec       q    Type
REMARK                         _______ _______ _______ _____ _____    ______ ____
ROOT
ATOM      1  C   UNL     1       2.828  13.222  17.980  0.00  0.00    +0.000 C 
ATOM      2  C   UNL     1       2.054  13.755  19.177  0.00  0.00    +0.000 C 
ATOM      3  C   UNL     1       1.566  12.602  20.083  0.00  0.00    +0.000 C 
ATOM      4  C   UNL     1       0.121  12.870  20.507  0.00  0.00    +0.000 C 
ATOM      5  C   UNL     1      -0.487  11.890  21.519  0.00  0.00    +0.000 C 
ATOM      6  C   UNL     1      -1.823  12.489  21.993  0.00  0.00    +0.000 C 
ATOM      7  C   UNL     1      -1.737  12.994  23.430  0.00  0.00    +0.000 C 
ATOM      8  C   UNL     1      -1.556  14.500  23.420  0.00  0.00    +0.000 C 
ATOM      9  C   UNL     1      -1.432  15.064  24.824  0.00  0.00    +0.000 C 
ATOM     10  C   UNL     1      -1.268  16.585  24.811  0.00  0.00    +0.000 C 
ATOM     11  C   UNL     1       0.195  17.036  24.733  0.00  0.00    +0.000 C 
ATOM     12  C   UNL     1       0.691  17.262  23.302  0.00  0.00    +0.000 C 
ATOM     13  C   UNL     1       2.177  17.618  23.284  0.00  0.00    +0.000 C 
ATOM     14  C   UNL     1       2.730  17.833  21.867  0.00  0.00    +0.000 C 
ATOM     15  C   UNL     1       3.328  16.573  21.232  0.00  0.00    +0.000 C 
ATOM     16  C   UNL     1       2.328  15.770  20.426  0.00  0.00    +0.000 C 
ATOM     17  O   UNL     1       1.174  16.096  20.223  0.00  0.00    +0.000 OA
ATOM     18  O   UNL     1       2.914  14.628  19.940  0.00  0.00    +0.000 OA
ENDROOT
BRANCH   5  19
ATOM     19  N   UNL     1      -0.688  10.543  20.931  0.00  0.00    +0.000 NA
ATOM     20  H   UNL     1      -0.538  10.497  19.920  0.00  0.00    +0.000 HD
BRANCH  19  21
ATOM     21  S   UNL     1       0.216   9.260  21.610  0.00  0.00    +0.000 S 
ATOM     22  O   UNL     1       1.160   9.881  22.514  0.00  0.00    +0.000 OA
ATOM     23  O   UNL     1      -0.716   8.260  22.069  0.00  0.00    +0.000 OA
BRANCH  21  24
ATOM     24  C   UNL     1       1.174   8.582  20.263  0.00  0.00    +0.000 A 
ATOM     25  C   UNL     1       1.288   9.266  19.047  0.00  0.00    +0.000 A 
ATOM     26  C   UNL     1       2.072   8.712  18.026  0.00  0.00    +0.000 A 
ATOM     27  C   UNL     1       2.717   7.492  18.230  0.00  0.00    +0.000 A 
ATOM     28  F   UNL     1       3.489   6.983  17.259  0.00  0.00    +0.000 F 
ATOM     29  C   UNL     1       2.585   6.799  19.426  0.00  0.00    +0.000 A 
ATOM     30  C   UNL     1       1.813   7.344  20.449  0.00  0.00    +0.000 A 
ENDBRANCH  21  24
ENDBRANCH  19  21
ENDBRANCH   5  19
TORSDOF 3
ENDMDL
MODEL 7
REMARK VINA RESULT:      -6.6      1.638      4.056
REMARK  Name = 
REMARK  4 active torsions:
REMARK  status: ('A' for Active; 'I' for Inactive)
REMARK    1  A    between atoms: C_1  and  C_2
REMARK    2  A    between atoms: C_5  and  N_6
REMARK    3  A    between atoms: N_6  and  S_7
REMARK    4  A    between atoms: S_7  and  C_10
REMARK                            x       y       z     vdW  Elec       q    Type
REMARK                         _______ _______ _______ _____ _____    ______ ____
ROOT
ATOM      1  C   UNL     1      -2.172   9.723  16.408  0.00  0.00    +0.000 C 
ATOM      2  C   UNL     1      -2.799  10.472  17.576  0.00  0.00    +0.000 C 
ATOM      3  C   UNL     1      -1.725  11.210  18.406  0.00  0.00    +0.000 C 
ATOM      4  C   UNL     1      -2.012  11.010  19.895  0.00  0.00    +0.000 C 
ATOM      5  C   UNL     1      -1.118  11.784  20.872  0.00  0.00    +0.000 C 
ATOM      6  C   UNL     1      -1.741  11.644  22.273  0.00  0.00    +0.000 C 
ATOM      7  C   UNL     1      -2.371  12.951  22.744  0.00  0.00    +0.000 C 
ATOM      8  C   UNL     1      -3.873  12.883  22.537  0.00  0.00    +0.000 C 
ATOM      9  C   UNL     1      -4.560  14.170  22.958  0.00  0.00    +0.000 C 
ATOM     10  C   UNL     1      -6.076  14.091  22.766  0.00  0.00    +0.000 C 
ATOM     11  C   UNL     1      -6.535  14.553  21.379  0.00  0.00    +0.000 C 
ATOM     12  C   UNL     1      -6.640  13.416  20.358  0.00  0.00    +0.000 C 
ATOM     13  C   UNL     1      -7.011  13.950  18.975  0.00  0.00    +0.000 C 
ATOM     14  C   UNL     1      -7.107  12.850  17.908  0.00  0.00    +0.000 C 
ATOM     15  C   UNL     1      -5.802  12.610  17.139  0.00  0.00    +0.000 C 
ATOM     16  C   UNL     1      -4.920  11.550  17.764  0.00  0.00    +0.000 C 
ATOM     17  O   UNL     1      -5.213  10.885  18.739  0.00  0.00    +0.000 OA
ATOM     18  O   UNL     1      -3.746  11.432  17.062  0.00  0.00    +0.000 OA
ENDROOT
BRANCH   5  19
ATOM     19  N   UNL     1       0.278  11.282  20.860  0.00  0.00    +0.000 NA
ATOM     20  H   UNL     1       0.952  11.899  21.321  0.00  0.00    +0.000 HD
BRANCH  19  21
ATOM     21  S   UNL     1       0.543   9.718  21.499  0.00  0.00    +0.000 S 
ATOM     22  O   UNL     1       1.513   9.887  22.560  0.00  0.00    +0.000 OA
ATOM     23  O   UNL     1      -0.746   9.123  21.751  0.00  0.00    +0.000 OA
BRANCH  21  24
ATOM     24  C   UNL     1       1.360   8.801  20.203  0.00  0.00    +0.000 A 
ATOM     25  C   UNL     1       1.910   7.538  20.453  0.00  0.00    +0.000 A 
ATOM     26  C   UNL     1       2.517   6.840  19.400  0.00  0.00    +0.000 A 
ATOM     27  C   UNL     1       2.574   7.412  18.129  0.00  0.00    +0.000 A 
ATOM     28  F   UNL     1       3.130   6.726  17.121  0.00  0.00    +0.000 F 
ATOM     29  C   UNL     1       2.051   8.675  17.884  0.00  0.00    +0.000 A 
ATOM     30  C   UNL     1       1.440   9.374  18.922  0.00  0.00    +0.000 A 
ENDBRANCH  21  24
ENDBRANCH  19  21
ENDBRANCH   5  19
TORSDOF 3
ENDMDL
MODEL 8
REMARK VINA RESULT:      -6.5      3.868      6.259
REMARK  Name = 
REMARK  4 active torsions:
REMARK  status: ('A' for Active; 'I' for Inactive)
REMARK    1  A    between atoms: C_1  and  C_2
REMARK    2  A    between atoms: C_5  and  N_6
REMARK    3  A    between atoms: N_6  and  S_7
REMARK    4  A    between atoms: S_7  and  C_10
REMARK                            x       y       z     vdW  Elec       q    Type
REMARK                         _______ _______ _______ _____ _____    ______ ____
ROOT
ATOM      1  C   UNL     1       1.644   9.615  18.110  0.00  0.00    +0.000 C 
ATOM      2  C   UNL     1       0.341  10.268  18.549  0.00  0.00    +0.000 C 
ATOM      3  C   UNL     1       0.603  11.624  19.242  0.00  0.00    +0.000 C 
ATOM      4  C   UNL     1      -0.279  11.735  20.486  0.00  0.00    +0.000 C 
ATOM      5  C   UNL     1      -0.246  13.077  21.229  0.00  0.00    +0.000 C 
ATOM      6  C   UNL     1      -1.382  13.054  22.268  0.00  0.00    +0.000 C 
ATOM      7  C   UNL     1      -2.528  13.979  21.871  0.00  0.00    +0.000 C 
ATOM      8  C   UNL     1      -3.646  13.154  21.262  0.00  0.00    +0.000 C 
ATOM      9  C   UNL     1      -4.809  14.021  20.815  0.00  0.00    +0.000 C 
ATOM     10  C   UNL     1      -5.943  13.185  20.217  0.00  0.00    +0.000 C 
ATOM     11  C   UNL     1      -5.805  12.968  18.707  0.00  0.00    +0.000 C 
ATOM     12  C   UNL     1      -5.055  11.685  18.338  0.00  0.00    +0.000 C 
ATOM     13  C   UNL     1      -4.868  11.571  16.826  0.00  0.00    +0.000 C 
ATOM     14  C   UNL     1      -4.100  10.310  16.405  0.00  0.00    +0.000 C 
ATOM     15  C   UNL     1      -2.586  10.513  16.278  0.00  0.00    +0.000 C 
ATOM     16  C   UNL     1      -1.828  10.218  17.556  0.00  0.00    +0.000 C 
ATOM     17  O   UNL     1      -2.328   9.794  18.580  0.00  0.00    +0.000 OA
ATOM     18  O   UNL     1      -0.491  10.480  17.389  0.00  0.00    +0.000 OA
ENDROOT
BRANCH   5  19
ATOM     19  N   UNL     1       1.065  13.315  21.882  0.00  0.00    +0.000 NA
ATOM     20  H   UNL     1       1.821  12.718  21.538  0.00  0.00    +0.000 HD
BRANCH  19  21
ATOM     21  S   UNL     1       1.664  14.917  21.852  0.00  0.00    +0.000 S 
ATOM     22  O   UNL     1       0.507  15.771  22.005  0.00  0.00    +0.000 OA
ATOM     23  O   UNL     1       2.775  14.987  22.768  0.00  0.00    +0.000 OA
BRANCH  21  24
ATOM     24  C   UNL     1       2.269  15.172  20.190  0.00  0.00    +0.000 A 
ATOM     25  C   UNL     1       3.159  14.266  19.602  0.00  0.00    +0.000 A 
ATOM     26  C   UNL     1       3.586  14.489  18.286  0.00  0.00    +0.000 A 
ATOM     27  C   UNL     1       3.129  15.607  17.588  0.00  0.00    +0.000 A 
ATOM     28  F   UNL     1       3.519  15.797  16.320  0.00  0.00    +0.000 F 
ATOM     29  C   UNL     1       2.265  16.521  18.177  0.00  0.00    +0.000 A 
ATOM     30  C   UNL     1       1.830  16.304  19.483  0.00  0.00    +0.000 A 
ENDBRANCH  21  24
ENDBRANCH  19  21
ENDBRANCH   5  19
TORSDOF 3
ENDMDL
MODEL 9
REMARK VINA RESULT:      -6.5      3.910      6.743
REMARK  Name = 
REMARK  4 active torsions:
REMARK  status: ('A' for Active; 'I' for Inactive)
REMARK    1  A    between atoms: C_1  and  C_2
REMARK    2  A    between atoms: C_5  and  N_6
REMARK    3  A    between atoms: N_6  and  S_7
REMARK    4  A    between atoms: S_7  and  C_10
REMARK                            x       y       z     vdW  Elec       q    Type
REMARK                         _______ _______ _______ _____ _____    ______ ____
ROOT
ATOM      1  C   UNL     1       1.469   9.432  18.169  0.00  0.00    +0.000 C 
ATOM      2  C   UNL     1       0.139  10.089  18.509  0.00  0.00    +0.000 C 
ATOM      3  C   UNL     1       0.351  11.432  19.243  0.00  0.00    +0.000 C 
ATOM      4  C   UNL     1      -0.632  11.530  20.411  0.00  0.00    +0.000 C 
ATOM      5  C   UNL     1      -0.652  12.859  21.177  0.00  0.00    +0.000 C 
ATOM      6  C   UNL     1      -1.871  12.829  22.116  0.00  0.00    +0.000 C 
ATOM      7  C   UNL     1      -2.974  13.770  21.640  0.00  0.00    +0.000 C 
ATOM      8  C   UNL     1      -4.043  12.964  20.925  0.00  0.00    +0.000 C 
ATOM      9  C   UNL     1      -5.158  13.848  20.397  0.00  0.00    +0.000 C 
ATOM     10  C   UNL     1      -6.243  13.031  19.692  0.00  0.00    +0.000 C 
ATOM     11  C   UNL     1      -5.980  12.837  18.195  0.00  0.00    +0.000 C 
ATOM     12  C   UNL     1      -5.211  11.554  17.869  0.00  0.00    +0.000 C 
ATOM     13  C   UNL     1      -4.898  11.463  16.376  0.00  0.00    +0.000 C 
ATOM     14  C   UNL     1      -4.106  10.203  16.000  0.00  0.00    +0.000 C 
ATOM     15  C   UNL     1      -2.585  10.395  16.004  0.00  0.00    +0.000 C 
ATOM     16  C   UNL     1      -1.939  10.073  17.336  0.00  0.00    +0.000 C 
ATOM     17  O   UNL     1      -2.527   9.637  18.308  0.00  0.00    +0.000 OA
ATOM     18  O   UNL     1      -0.592  10.327  17.286  0.00  0.00    +0.000 OA
ENDROOT
BRANCH   5  19
ATOM     19  N   UNL     1       0.601  13.076  21.941  0.00  0.00    +0.000 NA
ATOM     20  H   UNL     1       1.204  12.251  22.004  0.00  0.00    +0.000 HD
BRANCH  19  21
ATOM     21  S   UNL     1       1.602  14.367  21.435  0.00  0.00    +0.000 S 
ATOM     22  O   UNL     1       1.969  15.075  22.642  0.00  0.00    +0.000 OA
ATOM     23  O   UNL     1       2.603  13.824  20.551  0.00  0.00    +0.000 OA
BRANCH  21  24
ATOM     24  C   UNL     1       0.540  15.462  20.505  0.00  0.00    +0.000 A 
ATOM     25  C   UNL     1      -0.325  16.348  21.156  0.00  0.00    +0.000 A 
ATOM     26  C   UNL     1      -1.119  17.210  20.388  0.00  0.00    +0.000 A 
ATOM     27  C   UNL     1      -1.045  17.167  18.996  0.00  0.00    +0.000 A 
ATOM     28  F   UNL     1      -1.788  18.015  18.270  0.00  0.00    +0.000 F 
ATOM     29  C   UNL     1      -0.206  16.272  18.346  0.00  0.00    +0.000 A 
ATOM     30  C   UNL     1       0.593  15.415  19.101  0.00  0.00    +0.000 A 
ENDBRANCH  21  24
ENDBRANCH  19  21
ENDBRANCH   5  19
TORSDOF 3
ENDMDL
