MODEL 1
REMARK VINA RESULT:      -8.4      0.000      0.000
REMARK  Name = 
REMARK  4 active torsions:
REMARK  status: ('A' for Active; 'I' for Inactive)
REMARK    1  A    between atoms: C_1  and  C_2
REMARK    2  A    between atoms: C_4  and  C_5
REMARK    3  A    between atoms: C_8  and  C_9
REMARK    4  A    between atoms: C_13  and  N_14
REMARK                            x       y       z     vdW  Elec       q    Type
REMARK                         _______ _______ _______ _____ _____    ______ ____
ROOT
ATOM      1  C   UNL     1       2.356   6.252  19.875  0.00  0.00    +0.000 A 
ATOM      2  N   UNL     1       2.156   5.160  20.635  0.00  0.00    +0.000 NA
ATOM      3  O   UNL     1       2.980   4.197  20.056  0.00  0.00    +0.000 OA
ATOM      4  C   UNL     1       3.597   4.802  19.006  0.00  0.00    +0.000 A 
ATOM      5  N   UNL     1       3.230   6.045  18.824  0.00  0.00    +0.000 NA
ENDROOT
BRANCH   1   9
ATOM      6  C   UNL     1       1.360  10.839  18.290  0.00  0.00    +0.000 C 
ATOM      7  C   UNL     1       1.254   9.785  19.357  0.00  0.00    +0.000 A 
ATOM      8  C   UNL     1       1.845   8.540  19.132  0.00  0.00    +0.000 A 
ATOM      9  C   UNL     1       1.735   7.553  20.104  0.00  0.00    +0.000 A 
ATOM     10  N   UNL     1       1.088   7.746  21.279  0.00  0.00    +0.000 NA
ATOM     11  C   UNL     1       0.536   8.944  21.513  0.00  0.00    +0.000 A 
ATOM     12  C   UNL     1      -0.095   9.147  22.732  0.00  0.00    +0.000 A 
ATOM     13  C   UNL     1      -0.702  10.362  23.056  0.00  0.00    +0.000 A 
ATOM     14  C   UNL     1      -0.681  11.405  22.141  0.00  0.00    +0.000 A 
ATOM     15  C   UNL     1      -0.046  11.229  20.912  0.00  0.00    +0.000 A 
ATOM     16  C   UNL     1       0.579  10.007  20.579  0.00  0.00    +0.000 A 
ENDBRANCH   1   9
BRANCH   4  17
ATOM     17  C   UNL     1       4.620   4.021  18.274  0.00  0.00    +0.000 C 
ATOM     18  C   UNL     1       4.344   3.998  16.767  0.00  0.00    +0.000 C 
ATOM     19  C   UNL     1       5.719   3.860  16.131  0.00  0.00    +0.000 C 
ATOM     20  C   UNL     1       6.128   4.859  15.026  0.00  0.00    +0.000 C 
ATOM     21  C   UNL     1       6.798   5.747  16.091  0.00  0.00    +0.000 C 
ATOM     22  C   UNL     1       6.704   4.560  17.093  0.00  0.00    +0.000 C 
ATOM     23  C   UNL     1       6.014   4.649  18.449  0.00  0.00    +0.000 C 
BRANCH  21  24
ATOM     24  N   UNL     1       5.907   6.847  16.456  0.00  0.00    +0.000 NA
ATOM     25  H   UNL     1       6.005   7.244  17.389  0.00  0.00    +0.000 HD
ATOM     26  H   UNL     1       4.916   6.643  16.334  0.00  0.00    +0.000 HD
ENDBRANCH  21  24
ENDBRANCH   4  17
TORSDOF 3
ENDMDL
MODEL 2
REMARK VINA RESULT:      -8.3      2.329      3.598
REMARK  Name = 
REMARK  4 active torsions:
REMARK  status: ('A' for Active; 'I' for Inactive)
REMARK    1  A    between atoms: C_1  and  C_2
REMARK    2  A    between atoms: C_4  and  C_5
REMARK    3  A    between atoms: C_8  and  C_9
REMARK    4  A    between atoms: C_13  and  N_14
REMARK                            x       y       z     vdW  Elec       q    Type
REMARK                         _______ _______ _______ _____ _____    ______ ____
ROOT
ATOM      1  C   UNL     1       1.958   8.502  18.660  0.00  0.00    +0.000 A 
ATOM      2  N   UNL     1       2.651   8.711  17.526  0.00  0.00    +0.000 NA
ATOM      3  O   UNL     1       3.287   7.492  17.297  0.00  0.00    +0.000 OA
ATOM      4  C   UNL     1       2.915   6.668  18.314  0.00  0.00    +0.000 A 
ATOM      5  N   UNL     1       2.133   7.240  19.195  0.00  0.00    +0.000 NA
ENDROOT
BRANCH   1   9
ATOM      6  C   UNL     1      -0.578  12.752  18.412  0.00  0.00    +0.000 C 
ATOM      7  C   UNL     1      -0.137  11.549  19.200  0.00  0.00    +0.000 A 
ATOM      8  C   UNL     1       0.691  10.609  18.585  0.00  0.00    +0.000 A 
ATOM      9  C   UNL     1       1.088   9.485  19.299  0.00  0.00    +0.000 A 
ATOM     10  N   UNL     1       0.718   9.261  20.583  0.00  0.00    +0.000 NA
ATOM     11  C   UNL     1      -0.059  10.168  21.189  0.00  0.00    +0.000 A 
ATOM     12  C   UNL     1      -0.406   9.951  22.515  0.00  0.00    +0.000 A 
ATOM     13  C   UNL     1      -1.217  10.842  23.222  0.00  0.00    +0.000 A 
ATOM     14  C   UNL     1      -1.698  11.980  22.591  0.00  0.00    +0.000 A 
ATOM     15  C   UNL     1      -1.356  12.226  21.262  0.00  0.00    +0.000 A 
ATOM     16  C   UNL     1      -0.529  11.336  20.542  0.00  0.00    +0.000 A 
ENDBRANCH   1   9
BRANCH   4  17
ATOM     17  C   UNL     1       3.372   5.261  18.254  0.00  0.00    +0.000 C 
ATOM     18  C   UNL     1       3.809   4.749  19.631  0.00  0.00    +0.000 C 
ATOM     19  C   UNL     1       3.531   3.254  19.585  0.00  0.00    +0.000 C 
ATOM     20  C   UNL     1       2.701   2.618  20.723  0.00  0.00    +0.000 C 
ATOM     21  C   UNL     1       1.426   2.799  19.879  0.00  0.00    +0.000 C 
ATOM     22  C   UNL     1       2.324   3.074  18.638  0.00  0.00    +0.000 C 
ATOM     23  C   UNL     1       2.233   4.337  17.790  0.00  0.00    +0.000 C 
BRANCH  21  24
ATOM     24  N   UNL     1       0.707   3.996  20.314  0.00  0.00    +0.000 NA
ATOM     25  H   UNL     1       1.225   4.872  20.344  0.00  0.00    +0.000 HD
ATOM     26  H   UNL     1       0.245   3.904  21.217  0.00  0.00    +0.000 HD
ENDBRANCH  21  24
ENDBRANCH   4  17
TORSDOF 3
ENDMDL
MODEL 3
REMARK VINA RESULT:      -8.2      1.593      2.076
REMARK  Name = 
REMARK  4 active torsions:
REMARK  status: ('A' for Active; 'I' for Inactive)
REMARK    1  A    between atoms: C_1  and  C_2
REMARK    2  A    between atoms: C_4  and  C_5
REMARK    3  A    between atoms: C_8  and  C_9
REMARK    4  A    between atoms: C_13  and  N_14
REMARK                            x       y       z     vdW  Elec       q    Type
REMARK                         _______ _______ _______ _____ _____    ______ ____
ROOT
ATOM      1  C   UNL     1       1.990   8.476  18.703  0.00  0.00    +0.000 A 
ATOM      2  N   UNL     1       2.604   8.667  17.521  0.00  0.00    +0.000 NA
ATOM      3  O   UNL     1       3.378   7.519  17.360  0.00  0.00    +0.000 OA
ATOM      4  C   UNL     1       3.154   6.748  18.458  0.00  0.00    +0.000 A 
ATOM      5  N   UNL     1       2.344   7.295  19.329  0.00  0.00    +0.000 NA
ENDROOT
BRANCH   1   9
ATOM      6  C   UNL     1      -1.138  12.288  18.220  0.00  0.00    +0.000 C 
ATOM      7  C   UNL     1      -0.481  11.252  19.090  0.00  0.00    +0.000 A 
ATOM      8  C   UNL     1       0.432  10.370  18.511  0.00  0.00    +0.000 A 
ATOM      9  C   UNL     1       1.030   9.397  19.304  0.00  0.00    +0.000 A 
ATOM     10  N   UNL     1       0.777   9.271  20.629  0.00  0.00    +0.000 NA
ATOM     11  C   UNL     1      -0.082  10.126  21.198  0.00  0.00    +0.000 A 
ATOM     12  C   UNL     1      -0.310  10.014  22.562  0.00  0.00    +0.000 A 
ATOM     13  C   UNL     1      -1.193  10.861  23.235  0.00  0.00    +0.000 A 
ATOM     14  C   UNL     1      -1.871  11.846  22.530  0.00  0.00    +0.000 A 
ATOM     15  C   UNL     1      -1.652  11.985  21.161  0.00  0.00    +0.000 A 
ATOM     16  C   UNL     1      -0.754  11.140  20.473  0.00  0.00    +0.000 A 
ENDBRANCH   1   9
BRANCH   4  17
ATOM     17  C   UNL     1       3.781   5.408  18.489  0.00  0.00    +0.000 C 
ATOM     18  C   UNL     1       3.646   4.688  17.143  0.00  0.00    +0.000 C 
ATOM     19  C   UNL     1       4.865   3.780  17.074  0.00  0.00    +0.000 C 
ATOM     20  C   UNL     1       5.762   3.837  15.818  0.00  0.00    +0.000 C 
ATOM     21  C   UNL     1       6.667   4.864  16.524  0.00  0.00    +0.000 C 
ATOM     22  C   UNL     1       5.976   4.499  17.870  0.00  0.00    +0.000 C 
ATOM     23  C   UNL     1       5.289   5.517  18.772  0.00  0.00    +0.000 C 
BRANCH  21  24
ATOM     24  N   UNL     1       6.328   6.215  16.080  0.00  0.00    +0.000 NA
ATOM     25  H   UNL     1       5.360   6.515  16.179  0.00  0.00    +0.000 HD
ATOM     26  H   UNL     1       6.595   6.422  15.119  0.00  0.00    +0.000 HD
ENDBRANCH  21  24
ENDBRANCH   4  17
TORSDOF 3
ENDMDL
MODEL 4
REMARK VINA RESULT:      -8.2      2.074      3.174
REMARK  Name = 
REMARK  4 active torsions:
REMARK  status: ('A' for Active; 'I' for Inactive)
REMARK    1  A    between atoms: C_1  and  C_2
REMARK    2  A    between atoms: C_4  and  C_5
REMARK    3  A    between atoms: C_8  and  C_9
REMARK    4  A    between atoms: C_13  and  N_14
REMARK                            x       y       z     vdW  Elec       q    Type
REMARK                         _______ _______ _______ _____ _____    ______ ____
ROOT
ATOM      1  C   UNL     1       2.028   8.485  18.686  0.00  0.00    +0.000 A 
ATOM      2  N   UNL     1       2.551   8.607  17.452  0.00  0.00    +0.000 NA
ATOM      3  O   UNL     1       3.395   7.504  17.338  0.00  0.00    +0.000 OA
ATOM      4  C   UNL     1       3.298   6.824  18.512  0.00  0.00    +0.000 A 
ATOM      5  N   UNL     1       2.507   7.394  19.386  0.00  0.00    +0.000 NA
ENDROOT
BRANCH   1   9
ATOM      6  C   UNL     1      -1.244  12.161  18.119  0.00  0.00    +0.000 C 
ATOM      7  C   UNL     1      -0.537  11.182  19.014  0.00  0.00    +0.000 A 
ATOM      8  C   UNL     1       0.400  10.313  18.452  0.00  0.00    +0.000 A 
ATOM      9  C   UNL     1       1.044   9.391  19.269  0.00  0.00    +0.000 A 
ATOM     10  N   UNL     1       0.815   9.302  20.601  0.00  0.00    +0.000 NA
ATOM     11  C   UNL     1      -0.067  10.146  21.153  0.00  0.00    +0.000 A 
ATOM     12  C   UNL     1      -0.272  10.074  22.524  0.00  0.00    +0.000 A 
ATOM     13  C   UNL     1      -1.176  10.911  23.181  0.00  0.00    +0.000 A 
ATOM     14  C   UNL     1      -1.900  11.845  22.453  0.00  0.00    +0.000 A 
ATOM     15  C   UNL     1      -1.705  11.943  21.076  0.00  0.00    +0.000 A 
ATOM     16  C   UNL     1      -0.786  11.108  20.405  0.00  0.00    +0.000 A 
ENDBRANCH   1   9
BRANCH   4  17
ATOM     17  C   UNL     1       4.022   5.537  18.617  0.00  0.00    +0.000 C 
ATOM     18  C   UNL     1       3.446   4.653  19.729  0.00  0.00    +0.000 C 
ATOM     19  C   UNL     1       3.720   3.231  19.262  0.00  0.00    +0.000 C 
ATOM     20  C   UNL     1       2.550   2.223  19.230  0.00  0.00    +0.000 C 
ATOM     21  C   UNL     1       2.301   2.574  17.752  0.00  0.00    +0.000 C 
ATOM     22  C   UNL     1       3.690   3.277  17.719  0.00  0.00    +0.000 C 
ATOM     23  C   UNL     1       3.893   4.732  17.313  0.00  0.00    +0.000 C 
BRANCH  21  24
ATOM     24  N   UNL     1       1.199   3.529  17.645  0.00  0.00    +0.000 NA
ATOM     25  H   UNL     1       0.911   4.014  18.493  0.00  0.00    +0.000 HD
ATOM     26  H   UNL     1       0.350   3.148  17.231  0.00  0.00    +0.000 HD
ENDBRANCH  21  24
ENDBRANCH   4  17
TORSDOF 3
ENDMDL
MODEL 5
REMARK VINA RESULT:      -8.2      1.984      8.304
REMARK  Name = 
REMARK  4 active torsions:
REMARK  status: ('A' for Active; 'I' for Inactive)
REMARK    1  A    between atoms: C_1  and  C_2
REMARK    2  A    between atoms: C_4  and  C_5
REMARK    3  A    between atoms: C_8  and  C_9
REMARK    4  A    between atoms: C_13  and  N_14
REMARK                            x       y       z     vdW  Elec       q    Type
REMARK                         _______ _______ _______ _____ _____    ______ ____
ROOT
ATOM      1  C   UNL     1       2.224   7.768  18.904  0.00  0.00    +0.000 A 
ATOM      2  N   UNL     1       1.852   7.744  20.197  0.00  0.00    +0.000 NA
ATOM      3  O   UNL     1       1.191   8.958  20.376  0.00  0.00    +0.000 OA
ATOM      4  C   UNL     1       1.228   9.594  19.174  0.00  0.00    +0.000 A 
ATOM      5  N   UNL     1       1.875   8.933  18.248  0.00  0.00    +0.000 NA
ENDROOT
BRANCH   1   9
ATOM      6  C   UNL     1       2.420   3.017  17.513  0.00  0.00    +0.000 C 
ATOM      7  C   UNL     1       3.043   4.385  17.545  0.00  0.00    +0.000 A 
ATOM      8  C   UNL     1       2.366   5.416  18.199  0.00  0.00    +0.000 A 
ATOM      9  C   UNL     1       2.925   6.688  18.218  0.00  0.00    +0.000 A 
ATOM     10  N   UNL     1       4.115   6.977  17.637  0.00  0.00    +0.000 NA
ATOM     11  C   UNL     1       4.782   5.990  17.026  0.00  0.00    +0.000 A 
ATOM     12  C   UNL     1       6.017   6.284  16.464  0.00  0.00    +0.000 A 
ATOM     13  C   UNL     1       6.776   5.316  15.803  0.00  0.00    +0.000 A 
ATOM     14  C   UNL     1       6.293   4.020  15.696  0.00  0.00    +0.000 A 
ATOM     15  C   UNL     1       5.060   3.696  16.260  0.00  0.00    +0.000 A 
ATOM     16  C   UNL     1       4.289   4.666  16.939  0.00  0.00    +0.000 A 
ENDBRANCH   1   9
BRANCH   4  17
ATOM     17  C   UNL     1       0.495  10.875  19.059  0.00  0.00    +0.000 C 
ATOM     18  C   UNL     1      -0.973  10.727  19.474  0.00  0.00    +0.000 C 
ATOM     19  C   UNL     1      -1.358  12.101  20.004  0.00  0.00    +0.000 C 
ATOM     20  C   UNL     1      -2.014  12.199  21.399  0.00  0.00    +0.000 C 
ATOM     21  C   UNL     1      -0.627  12.435  22.025  0.00  0.00    +0.000 C 
ATOM     22  C   UNL     1      -0.066  12.704  20.598  0.00  0.00    +0.000 C 
ATOM     23  C   UNL     1       1.103  11.938  19.990  0.00  0.00    +0.000 C 
BRANCH  21  24
ATOM     24  N   UNL     1      -0.117  11.187  22.590  0.00  0.00    +0.000 NA
ATOM     25  H   UNL     1      -0.453  10.915  23.513  0.00  0.00    +0.000 HD
ATOM     26  H   UNL     1       0.899  11.125  22.625  0.00  0.00    +0.000 HD
ENDBRANCH  21  24
ENDBRANCH   4  17
TORSDOF 3
ENDMDL
MODEL 6
REMARK VINA RESULT:      -8.1      0.730      2.094
REMARK  Name = 
REMARK  4 active torsions:
REMARK  status: ('A' for Active; 'I' for Inactive)
REMARK    1  A    between atoms: C_1  and  C_2
REMARK    2  A    between atoms: C_4  and  C_5
REMARK    3  A    between atoms: C_8  and  C_9
REMARK    4  A    between atoms: C_13  and  N_14
REMARK                            x       y       z     vdW  Elec       q    Type
REMARK                         _______ _______ _______ _____ _____    ______ ____
ROOT
ATOM      1  C   UNL     1       2.287   6.337  19.828  0.00  0.00    +0.000 A 
ATOM      2  N   UNL     1       1.894   5.189  20.409  0.00  0.00    +0.000 NA
ATOM      3  O   UNL     1       2.703   4.222  19.815  0.00  0.00    +0.000 OA
ATOM      4  C   UNL     1       3.506   4.881  18.936  0.00  0.00    +0.000 A 
ATOM      5  N   UNL     1       3.273   6.168  18.874  0.00  0.00    +0.000 NA
ENDROOT
BRANCH   1   9
ATOM      6  C   UNL     1       0.128   9.395  23.073  0.00  0.00    +0.000 C 
ATOM      7  C   UNL     1       0.696   9.151  21.703  0.00  0.00    +0.000 A 
ATOM      8  C   UNL     1       1.209   7.888  21.404  0.00  0.00    +0.000 A 
ATOM      9  C   UNL     1       1.754   7.658  20.146  0.00  0.00    +0.000 A 
ATOM     10  N   UNL     1       1.800   8.607  19.180  0.00  0.00    +0.000 NA
ATOM     11  C   UNL     1       1.291   9.816  19.450  0.00  0.00    +0.000 A 
ATOM     12  C   UNL     1       1.309  10.773  18.445  0.00  0.00    +0.000 A 
ATOM     13  C   UNL     1       0.804  12.060  18.643  0.00  0.00    +0.000 A 
ATOM     14  C   UNL     1       0.269  12.406  19.875  0.00  0.00    +0.000 A 
ATOM     15  C   UNL     1       0.231  11.460  20.899  0.00  0.00    +0.000 A 
ATOM     16  C   UNL     1       0.730  10.153  20.705  0.00  0.00    +0.000 A 
ENDBRANCH   1   9
BRANCH   4  17
ATOM     17  C   UNL     1       4.548   4.093  18.240  0.00  0.00    +0.000 C 
ATOM     18  C   UNL     1       4.357   4.120  16.719  0.00  0.00    +0.000 C 
ATOM     19  C   UNL     1       5.763   3.961  16.158  0.00  0.00    +0.000 C 
ATOM     20  C   UNL     1       6.260   4.979  15.109  0.00  0.00    +0.000 C 
ATOM     21  C   UNL     1       6.892   5.817  16.236  0.00  0.00    +0.000 C 
ATOM     22  C   UNL     1       6.709   4.605  17.195  0.00  0.00    +0.000 C 
ATOM     23  C   UNL     1       5.945   4.676  18.512  0.00  0.00    +0.000 C 
BRANCH  21  24
ATOM     24  N   UNL     1       6.011   6.931  16.582  0.00  0.00    +0.000 NA
ATOM     25  H   UNL     1       5.943   7.191  17.565  0.00  0.00    +0.000 HD
ATOM     26  H   UNL     1       5.054   6.831  16.246  0.00  0.00    +0.000 HD
ENDBRANCH  21  24
ENDBRANCH   4  17
TORSDOF 3
ENDMDL
MODEL 7
REMARK VINA RESULT:      -8.0      2.676      4.248
REMARK  Name = 
REMARK  4 active torsions:
REMARK  status: ('A' for Active; 'I' for Inactive)
REMARK    1  A    between atoms: C_1  and  C_2
REMARK    2  A    between atoms: C_4  and  C_5
REMARK    3  A    between atoms: C_8  and  C_9
REMARK    4  A    between atoms: C_13  and  N_14
REMARK                            x       y       z     vdW  Elec       q    Type
REMARK                         _______ _______ _______ _____ _____    ______ ____
ROOT
ATOM      1  C   UNL     1       1.471   8.475  19.965  0.00  0.00    +0.000 A 
ATOM      2  N   UNL     1       2.135   8.190  18.830  0.00  0.00    +0.000 NA
ATOM      3  O   UNL     1       2.530   6.865  19.000  0.00  0.00    +0.000 OA
ATOM      4  C   UNL     1       2.064   6.479  20.219  0.00  0.00    +0.000 A 
ATOM      5  N   UNL     1       1.441   7.430  20.869  0.00  0.00    +0.000 NA
ENDROOT
BRANCH   1   9
ATOM      6  C   UNL     1      -1.274  11.272  22.997  0.00  0.00    +0.000 C 
ATOM      7  C   UNL     1      -0.517  11.116  21.707  0.00  0.00    +0.000 A 
ATOM      8  C   UNL     1       0.105   9.897  21.436  0.00  0.00    +0.000 A 
ATOM      9  C   UNL     1       0.823   9.750  20.255  0.00  0.00    +0.000 A 
ATOM     10  N   UNL     1       0.938  10.740  19.337  0.00  0.00    +0.000 NA
ATOM     11  C   UNL     1       0.327  11.907  19.578  0.00  0.00    +0.000 A 
ATOM     12  C   UNL     1       0.419  12.905  18.618  0.00  0.00    +0.000 A 
ATOM     13  C   UNL     1      -0.183  14.153  18.791  0.00  0.00    +0.000 A 
ATOM     14  C   UNL     1      -0.895  14.417  19.952  0.00  0.00    +0.000 A 
ATOM     15  C   UNL     1      -1.010  13.428  20.928  0.00  0.00    +0.000 A 
ATOM     16  C   UNL     1      -0.414  12.160  20.758  0.00  0.00    +0.000 A 
ENDBRANCH   1   9
BRANCH   4  17
ATOM     17  C   UNL     1       2.257   5.064  20.606  0.00  0.00    +0.000 C 
ATOM     18  C   UNL     1       0.964   4.254  20.454  0.00  0.00    +0.000 C 
ATOM     19  C   UNL     1       1.437   2.838  20.156  0.00  0.00    +0.000 C 
ATOM     20  C   UNL     1       0.857   2.107  18.924  0.00  0.00    +0.000 C 
ATOM     21  C   UNL     1       2.052   2.596  18.085  0.00  0.00    +0.000 C 
ATOM     22  C   UNL     1       2.778   2.987  19.405  0.00  0.00    +0.000 C 
ATOM     23  C   UNL     1       3.301   4.388  19.701  0.00  0.00    +0.000 C 
BRANCH  21  24
ATOM     24  N   UNL     1       1.665   3.769  17.303  0.00  0.00    +0.000 NA
ATOM     25  H   UNL     1       2.382   4.467  17.112  0.00  0.00    +0.000 HD
ATOM     26  H   UNL     1       0.863   4.276  17.673  0.00  0.00    +0.000 HD
ENDBRANCH  21  24
ENDBRANCH   4  17
TORSDOF 3
ENDMDL
MODEL 8
REMARK VINA RESULT:      -8.0      6.017      8.082
REMARK  Name = 
REMARK  4 active torsions:
REMARK  status: ('A' for Active; 'I' for Inactive)
REMARK    1  A    between atoms: C_1  and  C_2
REMARK    2  A    between atoms: C_4  and  C_5
REMARK    3  A    between atoms: C_8  and  C_9
REMARK    4  A    between atoms: C_13  and  N_14
REMARK                            x       y       z     vdW  Elec       q    Type
REMARK                         _______ _______ _______ _____ _____    ______ ____
ROOT
ATOM      1  C   UNL     1       8.488   9.117  18.255  0.00  0.00    +0.000 A 
ATOM      2  N   UNL     1       7.645   9.149  17.207  0.00  0.00    +0.000 NA
ATOM      3  O   UNL     1       7.155   7.846  17.136  0.00  0.00    +0.000 OA
ATOM      4  C   UNL     1       7.750   7.157  18.147  0.00  0.00    +0.000 A 
ATOM      5  N   UNL     1       8.600   7.871  18.842  0.00  0.00    +0.000 NA
ENDROOT
BRANCH   1   9
ATOM      6  C   UNL     1       9.536  12.215  21.977  0.00  0.00    +0.000 C 
ATOM      7  C   UNL     1       9.743  11.785  20.551  0.00  0.00    +0.000 A 
ATOM      8  C   UNL     1       9.033  10.683  20.072  0.00  0.00    +0.000 A 
ATOM      9  C   UNL     1       9.233  10.266  18.761  0.00  0.00    +0.000 A 
ATOM     10  N   UNL     1      10.082  10.893  17.911  0.00  0.00    +0.000 NA
ATOM     11  C   UNL     1      10.752  11.964  18.355  0.00  0.00    +0.000 A 
ATOM     12  C   UNL     1      11.593  12.623  17.470  0.00  0.00    +0.000 A 
ATOM     13  C   UNL     1      12.333  13.745  17.851  0.00  0.00    +0.000 A 
ATOM     14  C   UNL     1      12.235  14.223  19.150  0.00  0.00    +0.000 A 
ATOM     15  C   UNL     1      11.389  13.585  20.056  0.00  0.00    +0.000 A 
ATOM     16  C   UNL     1      10.630  12.456  19.677  0.00  0.00    +0.000 A 
ENDBRANCH   1   9
BRANCH   4  17
ATOM     17  C   UNL     1       7.319   5.758  18.365  0.00  0.00    +0.000 C 
ATOM     18  C   UNL     1       5.826   5.671  18.701  0.00  0.00    +0.000 C 
ATOM     19  C   UNL     1       5.399   4.306  18.180  0.00  0.00    +0.000 C 
ATOM     20  C   UNL     1       4.170   4.221  17.247  0.00  0.00    +0.000 C 
ATOM     21  C   UNL     1       5.104   4.306  16.026  0.00  0.00    +0.000 C 
ATOM     22  C   UNL     1       6.308   4.011  16.967  0.00  0.00    +0.000 C 
ATOM     23  C   UNL     1       7.526   4.919  17.092  0.00  0.00    +0.000 C 
BRANCH  21  24
ATOM     24  N   UNL     1       5.129   5.674  15.512  0.00  0.00    +0.000 NA
ATOM     25  H   UNL     1       5.445   5.813  14.554  0.00  0.00    +0.000 HD
ATOM     26  H   UNL     1       5.657   6.330  16.086  0.00  0.00    +0.000 HD
ENDBRANCH  21  24
ENDBRANCH   4  17
TORSDOF 3
ENDMDL
MODEL 9
REMARK VINA RESULT:      -8.0      2.664      3.686
REMARK  Name = 
REMARK  4 active torsions:
REMARK  status: ('A' for Active; 'I' for Inactive)
REMARK    1  A    between atoms: C_1  and  C_2
REMARK    2  A    between atoms: C_4  and  C_5
REMARK    3  A    between atoms: C_8  and  C_9
REMARK    4  A    between atoms: C_13  and  N_14
REMARK                            x       y       z     vdW  Elec       q    Type
REMARK                         _______ _______ _______ _____ _____    ______ ____
ROOT
ATOM      1  C   UNL     1       1.331   8.463  19.974  0.00  0.00    +0.000 A 
ATOM      2  N   UNL     1       2.149   8.288  18.920  0.00  0.00    +0.000 NA
ATOM      3  O   UNL     1       2.634   6.992  19.088  0.00  0.00    +0.000 OA
ATOM      4  C   UNL     1       2.060   6.512  20.225  0.00  0.00    +0.000 A 
ATOM      5  N   UNL     1       1.284   7.377  20.827  0.00  0.00    +0.000 NA
ENDROOT
BRANCH   1   9
ATOM      6  C   UNL     1      -0.481  12.790  18.380  0.00  0.00    +0.000 C 
ATOM      7  C   UNL     1      -0.331  11.772  19.477  0.00  0.00    +0.000 A 
ATOM      8  C   UNL     1       0.417  10.621  19.227  0.00  0.00    +0.000 A 
ATOM      9  C   UNL     1       0.545   9.666  20.229  0.00  0.00    +0.000 A 
ATOM     10  N   UNL     1      -0.016   9.805  21.454  0.00  0.00    +0.000 NA
ATOM     11  C   UNL     1      -0.719  10.917  21.710  0.00  0.00    +0.000 A 
ATOM     12  C   UNL     1      -1.261  11.071  22.978  0.00  0.00    +0.000 A 
ATOM     13  C   UNL     1      -2.012  12.195  23.329  0.00  0.00    +0.000 A 
ATOM     14  C   UNL     1      -2.230  13.194  22.391  0.00  0.00    +0.000 A 
ATOM     15  C   UNL     1      -1.688  13.068  21.113  0.00  0.00    +0.000 A 
ATOM     16  C   UNL     1      -0.920  11.939  20.752  0.00  0.00    +0.000 A 
ENDBRANCH   1   9
BRANCH   4  17
ATOM     17  C   UNL     1       2.327   5.100  20.580  0.00  0.00    +0.000 C 
ATOM     18  C   UNL     1       1.055   4.248  20.507  0.00  0.00    +0.000 C 
ATOM     19  C   UNL     1       1.553   2.853  20.159  0.00  0.00    +0.000 C 
ATOM     20  C   UNL     1       0.913   2.115  18.962  0.00  0.00    +0.000 C 
ATOM     21  C   UNL     1       2.029   2.653  18.048  0.00  0.00    +0.000 C 
ATOM     22  C   UNL     1       2.832   3.055  19.319  0.00  0.00    +0.000 C 
ATOM     23  C   UNL     1       3.327   4.470  19.595  0.00  0.00    +0.000 C 
BRANCH  21  24
ATOM     24  N   UNL     1       1.548   3.819  17.309  0.00  0.00    +0.000 NA
ATOM     25  H   UNL     1       0.636   3.751  16.861  0.00  0.00    +0.000 HD
ATOM     26  H   UNL     1       2.192   4.161  16.597  0.00  0.00    +0.000 HD
ENDBRANCH  21  24
ENDBRANCH   4  17
TORSDOF 3
ENDMDL
