MODEL 1
REMARK VINA RESULT:      -8.3      0.000      0.000
REMARK  Name = 
REMARK  2 active torsions:
REMARK  status: ('A' for Active; 'I' for Inactive)
REMARK    1  A    between atoms: C_9  and  C_10
REMARK    2  A    between atoms: C_10  and  C_12
REMARK                            x       y       z     vdW  Elec       q    Type
REMARK                         _______ _______ _______ _____ _____    ______ ____
ROOT
ATOM      1  N   UNL     1       5.632   2.837  11.506  0.00  0.00    +0.000 N 
ATOM      2  C   UNL     1       6.142   3.520  12.586  0.00  0.00    +0.000 A 
ATOM      3  N   UNL     1       7.127   4.384  12.354  0.00  0.00    +0.000 NA
ATOM      4  C   UNL     1       7.574   5.081  13.407  0.00  0.00    +0.000 A 
ATOM      5  N   UNL     1       8.661   5.939  13.164  0.00  0.00    +0.000 N 
ATOM      6  C   UNL     1       7.077   4.942  14.697  0.00  0.00    +0.000 A 
ATOM      7  N   UNL     1       7.506   5.708  15.748  0.00  0.00    +0.000 NA
ATOM      8  C   UNL     1       6.892   5.485  16.925  0.00  0.00    +0.000 A 
ATOM      9  C   UNL     1       5.918   4.518  17.055  0.00  0.00    +0.000 A 
ATOM     10  N   UNL     1       5.508   3.751  16.012  0.00  0.00    +0.000 NA
ATOM     11  C   UNL     1       6.070   3.976  14.816  0.00  0.00    +0.000 A 
ATOM     12  N   UNL     1       5.621   3.269  13.784  0.00  0.00    +0.000 NA
ATOM     13  H   UNL     1       6.292   2.804  10.742  0.00  0.00    +0.000 HD
ATOM     14  H   UNL     1       5.185   1.975  11.786  0.00  0.00    +0.000 HD
ATOM     15  H   UNL     1       8.795   6.054  12.165  0.00  0.00    +0.000 HD
ATOM     16  H   UNL     1       8.578   6.802  13.691  0.00  0.00    +0.000 HD
ENDROOT
BRANCH   9  17
ATOM     17  C   UNL     1       5.256   4.343  18.363  0.00  0.00    +0.000 C 
ATOM     18  O   UNL     1       5.884   4.599  19.390  0.00  0.00    +0.000 OA
BRANCH  17  19
ATOM     19  C   UNL     1       3.862   3.849  18.463  0.00  0.00    +0.000 A 
ATOM     20  C   UNL     1       3.647   2.560  18.965  0.00  0.00    +0.000 A 
ATOM     21  C   UNL     1       2.351   2.049  19.042  0.00  0.00    +0.000 A 
ATOM     22  C   UNL     1       1.272   2.816  18.600  0.00  0.00    +0.000 A 
ATOM     23  C   UNL     1       1.486   4.091  18.079  0.00  0.00    +0.000 A 
ATOM     24  C   UNL     1       2.779   4.610  18.007  0.00  0.00    +0.000 A 
ENDBRANCH  17  19
ENDBRANCH   9  17
TORSDOF 2
ENDMDL
MODEL 2
REMARK VINA RESULT:      -8.3      0.085      1.085
REMARK  Name = 
REMARK  2 active torsions:
REMARK  status: ('A' for Active; 'I' for Inactive)
REMARK    1  A    between atoms: C_9  and  C_10
REMARK    2  A    between atoms: C_10  and  C_12
REMARK                            x       y       z     vdW  Elec       q    Type
REMARK                         _______ _______ _______ _____ _____    ______ ____
ROOT
ATOM      1  N   UNL     1       5.689   2.752  11.512  0.00  0.00    +0.000 N 
ATOM      2  C   UNL     1       6.182   3.460  12.584  0.00  0.00    +0.000 A 
ATOM      3  N   UNL     1       7.147   4.344  12.342  0.00  0.00    +0.000 NA
ATOM      4  C   UNL     1       7.576   5.063  13.387  0.00  0.00    +0.000 A 
ATOM      5  N   UNL     1       8.643   5.944  13.133  0.00  0.00    +0.000 N 
ATOM      6  C   UNL     1       7.081   4.928  14.678  0.00  0.00    +0.000 A 
ATOM      7  N   UNL     1       7.493   5.715  15.720  0.00  0.00    +0.000 NA
ATOM      8  C   UNL     1       6.883   5.492  16.900  0.00  0.00    +0.000 A 
ATOM      9  C   UNL     1       5.932   4.504  17.041  0.00  0.00    +0.000 A 
ATOM     10  N   UNL     1       5.541   3.715  16.006  0.00  0.00    +0.000 NA
ATOM     11  C   UNL     1       6.098   3.940  14.808  0.00  0.00    +0.000 A 
ATOM     12  N   UNL     1       5.666   3.210  13.784  0.00  0.00    +0.000 NA
ATOM     13  H   UNL     1       6.349   2.726  10.748  0.00  0.00    +0.000 HD
ATOM     14  H   UNL     1       5.262   1.883  11.801  0.00  0.00    +0.000 HD
ATOM     15  H   UNL     1       8.774   6.050  12.134  0.00  0.00    +0.000 HD
ATOM     16  H   UNL     1       8.540   6.811  13.650  0.00  0.00    +0.000 HD
ENDROOT
BRANCH   9  17
ATOM     17  C   UNL     1       5.273   4.329  18.351  0.00  0.00    +0.000 C 
ATOM     18  O   UNL     1       5.902   4.592  19.375  0.00  0.00    +0.000 OA
BRANCH  17  19
ATOM     19  C   UNL     1       3.883   3.826  18.454  0.00  0.00    +0.000 A 
ATOM     20  C   UNL     1       2.840   4.665  18.045  0.00  0.00    +0.000 A 
ATOM     21  C   UNL     1       1.516   4.239  18.159  0.00  0.00    +0.000 A 
ATOM     22  C   UNL     1       1.232   2.984  18.699  0.00  0.00    +0.000 A 
ATOM     23  C   UNL     1       2.269   2.156  19.128  0.00  0.00    +0.000 A 
ATOM     24  C   UNL     1       3.595   2.574  19.010  0.00  0.00    +0.000 A 
ENDBRANCH  17  19
ENDBRANCH   9  17
TORSDOF 2
ENDMDL
MODEL 3
REMARK VINA RESULT:      -7.8      3.110      4.327
REMARK  Name = 
REMARK  2 active torsions:
REMARK  status: ('A' for Active; 'I' for Inactive)
REMARK    1  A    between atoms: C_9  and  C_10
REMARK    2  A    between atoms: C_10  and  C_12
REMARK                            x       y       z     vdW  Elec       q    Type
REMARK                         _______ _______ _______ _____ _____    ______ ____
ROOT
ATOM      1  N   UNL     1       6.937   5.216  13.782  0.00  0.00    +0.000 N 
ATOM      2  C   UNL     1       6.693   5.077  15.129  0.00  0.00    +0.000 A 
ATOM      3  N   UNL     1       7.704   4.674  15.895  0.00  0.00    +0.000 NA
ATOM      4  C   UNL     1       7.465   4.598  17.211  0.00  0.00    +0.000 A 
ATOM      5  N   UNL     1       8.518   4.104  18.002  0.00  0.00    +0.000 N 
ATOM      6  C   UNL     1       6.243   4.903  17.797  0.00  0.00    +0.000 A 
ATOM      7  N   UNL     1       6.038   4.875  19.150  0.00  0.00    +0.000 NA
ATOM      8  C   UNL     1       4.810   5.244  19.565  0.00  0.00    +0.000 A 
ATOM      9  C   UNL     1       3.823   5.590  18.667  0.00  0.00    +0.000 A 
ATOM     10  N   UNL     1       4.029   5.598  17.324  0.00  0.00    +0.000 NA
ATOM     11  C   UNL     1       5.252   5.278  16.881  0.00  0.00    +0.000 A 
ATOM     12  N   UNL     1       5.468   5.350  15.571  0.00  0.00    +0.000 NA
ATOM     13  H   UNL     1       7.729   4.663  13.488  0.00  0.00    +0.000 HD
ATOM     14  H   UNL     1       6.087   5.155  13.239  0.00  0.00    +0.000 HD
ATOM     15  H   UNL     1       9.377   4.088  17.464  0.00  0.00    +0.000 HD
ATOM     16  H   UNL     1       8.574   4.590  18.891  0.00  0.00    +0.000 HD
ENDROOT
BRANCH   9  17
ATOM     17  C   UNL     1       2.507   6.018  19.183  0.00  0.00    +0.000 C 
ATOM     18  O   UNL     1       1.746   5.174  19.653  0.00  0.00    +0.000 OA
BRANCH  17  19
ATOM     19  C   UNL     1       2.082   7.437  19.127  0.00  0.00    +0.000 A 
ATOM     20  C   UNL     1       1.530   8.011  20.278  0.00  0.00    +0.000 A 
ATOM     21  C   UNL     1       1.087   9.334  20.254  0.00  0.00    +0.000 A 
ATOM     22  C   UNL     1       1.177  10.077  19.076  0.00  0.00    +0.000 A 
ATOM     23  C   UNL     1       1.704   9.499  17.922  0.00  0.00    +0.000 A 
ATOM     24  C   UNL     1       2.155   8.179  17.943  0.00  0.00    +0.000 A 
ENDBRANCH  17  19
ENDBRANCH   9  17
TORSDOF 2
ENDMDL
MODEL 4
REMARK VINA RESULT:      -7.7      3.143      6.342
REMARK  Name = 
REMARK  2 active torsions:
REMARK  status: ('A' for Active; 'I' for Inactive)
REMARK    1  A    between atoms: C_9  and  C_10
REMARK    2  A    between atoms: C_10  and  C_12
REMARK                            x       y       z     vdW  Elec       q    Type
REMARK                         _______ _______ _______ _____ _____    ______ ____
ROOT
ATOM      1  N   UNL     1       8.553   5.233  20.346  0.00  0.00    +0.000 N 
ATOM      2  C   UNL     1       7.609   5.173  19.348  0.00  0.00    +0.000 A 
ATOM      3  N   UNL     1       6.335   5.325  19.701  0.00  0.00    +0.000 NA
ATOM      4  C   UNL     1       5.434   5.320  18.709  0.00  0.00    +0.000 A 
ATOM      5  N   UNL     1       4.086   5.411  19.100  0.00  0.00    +0.000 N 
ATOM      6  C   UNL     1       5.757   5.160  17.368  0.00  0.00    +0.000 A 
ATOM      7  N   UNL     1       4.826   5.218  16.365  0.00  0.00    +0.000 NA
ATOM      8  C   UNL     1       5.304   5.092  15.113  0.00  0.00    +0.000 A 
ATOM      9  C   UNL     1       6.646   4.881  14.875  0.00  0.00    +0.000 A 
ATOM     10  N   UNL     1       7.562   4.808  15.876  0.00  0.00    +0.000 NA
ATOM     11  C   UNL     1       7.124   4.972  17.132  0.00  0.00    +0.000 A 
ATOM     12  N   UNL     1       8.031   4.964  18.103  0.00  0.00    +0.000 NA
ATOM     13  H   UNL     1       8.153   5.027  21.250  0.00  0.00    +0.000 HD
ATOM     14  H   UNL     1       9.406   4.756  20.085  0.00  0.00    +0.000 HD
ATOM     15  H   UNL     1       4.025   5.687  20.074  0.00  0.00    +0.000 HD
ATOM     16  H   UNL     1       3.550   5.982  18.455  0.00  0.00    +0.000 HD
ENDROOT
BRANCH   9  17
ATOM     17  C   UNL     1       7.116   4.784  13.479  0.00  0.00    +0.000 C 
ATOM     18  O   UNL     1       7.927   5.611  13.062  0.00  0.00    +0.000 OA
BRANCH  17  19
ATOM     19  C   UNL     1       6.617   3.727  12.568  0.00  0.00    +0.000 A 
ATOM     20  C   UNL     1       5.237   3.626  12.359  0.00  0.00    +0.000 A 
ATOM     21  C   UNL     1       4.727   2.622  11.535  0.00  0.00    +0.000 A 
ATOM     22  C   UNL     1       5.594   1.707  10.934  0.00  0.00    +0.000 A 
ATOM     23  C   UNL     1       6.967   1.792  11.160  0.00  0.00    +0.000 A 
ATOM     24  C   UNL     1       7.482   2.798  11.977  0.00  0.00    +0.000 A 
ENDBRANCH  17  19
ENDBRANCH   9  17
TORSDOF 2
ENDMDL
MODEL 5
REMARK VINA RESULT:      -7.7      3.127      6.298
REMARK  Name = 
REMARK  2 active torsions:
REMARK  status: ('A' for Active; 'I' for Inactive)
REMARK    1  A    between atoms: C_9  and  C_10
REMARK    2  A    between atoms: C_10  and  C_12
REMARK                            x       y       z     vdW  Elec       q    Type
REMARK                         _______ _______ _______ _____ _____    ______ ____
ROOT
ATOM      1  N   UNL     1       8.556   5.280  20.358  0.00  0.00    +0.000 N 
ATOM      2  C   UNL     1       7.597   5.190  19.376  0.00  0.00    +0.000 A 
ATOM      3  N   UNL     1       6.327   5.325  19.747  0.00  0.00    +0.000 NA
ATOM      4  C   UNL     1       5.410   5.290  18.770  0.00  0.00    +0.000 A 
ATOM      5  N   UNL     1       4.068   5.363  19.181  0.00  0.00    +0.000 N 
ATOM      6  C   UNL     1       5.715   5.114  17.426  0.00  0.00    +0.000 A 
ATOM      7  N   UNL     1       4.768   5.141  16.438  0.00  0.00    +0.000 NA
ATOM      8  C   UNL     1       5.229   5.004  15.180  0.00  0.00    +0.000 A 
ATOM      9  C   UNL     1       6.571   4.813  14.924  0.00  0.00    +0.000 A 
ATOM     10  N   UNL     1       7.503   4.771  15.911  0.00  0.00    +0.000 NA
ATOM     11  C   UNL     1       7.082   4.947  17.171  0.00  0.00    +0.000 A 
ATOM     12  N   UNL     1       8.004   4.969  18.128  0.00  0.00    +0.000 NA
ATOM     13  H   UNL     1       8.173   5.082  21.272  0.00  0.00    +0.000 HD
ATOM     14  H   UNL     1       9.413   4.815  20.091  0.00  0.00    +0.000 HD
ATOM     15  H   UNL     1       4.017   5.654  20.151  0.00  0.00    +0.000 HD
ATOM     16  H   UNL     1       3.512   5.916  18.536  0.00  0.00    +0.000 HD
ENDROOT
BRANCH   9  17
ATOM     17  C   UNL     1       7.021   4.703  13.522  0.00  0.00    +0.000 C 
ATOM     18  O   UNL     1       7.847   5.508  13.094  0.00  0.00    +0.000 OA
BRANCH  17  19
ATOM     19  C   UNL     1       6.483   3.657  12.619  0.00  0.00    +0.000 A 
ATOM     20  C   UNL     1       7.385   2.777  12.010  0.00  0.00    +0.000 A 
ATOM     21  C   UNL     1       6.920   1.801  11.128  0.00  0.00    +0.000 A 
ATOM     22  C   UNL     1       5.557   1.716  10.838  0.00  0.00    +0.000 A 
ATOM     23  C   UNL     1       4.660   2.608  11.426  0.00  0.00    +0.000 A 
ATOM     24  C   UNL     1       5.120   3.580  12.315  0.00  0.00    +0.000 A 
ENDBRANCH  17  19
ENDBRANCH   9  17
TORSDOF 2
ENDMDL
MODEL 6
REMARK VINA RESULT:      -7.7      3.055      6.414
REMARK  Name = 
REMARK  2 active torsions:
REMARK  status: ('A' for Active; 'I' for Inactive)
REMARK    1  A    between atoms: C_9  and  C_10
REMARK    2  A    between atoms: C_10  and  C_12
REMARK                            x       y       z     vdW  Elec       q    Type
REMARK                         _______ _______ _______ _____ _____    ______ ____
ROOT
ATOM      1  N   UNL     1       2.018   3.677  21.060  0.00  0.00    +0.000 N 
ATOM      2  C   UNL     1       2.575   4.508  20.115  0.00  0.00    +0.000 A 
ATOM      3  N   UNL     1       2.099   5.748  20.034  0.00  0.00    +0.000 NA
ATOM      4  C   UNL     1       2.690   6.560  19.147  0.00  0.00    +0.000 A 
ATOM      5  N   UNL     1       2.133   7.845  19.021  0.00  0.00    +0.000 N 
ATOM      6  C   UNL     1       3.742   6.176  18.326  0.00  0.00    +0.000 A 
ATOM      7  N   UNL     1       4.371   7.040  17.469  0.00  0.00    +0.000 NA
ATOM      8  C   UNL     1       5.406   6.527  16.775  0.00  0.00    +0.000 A 
ATOM      9  C   UNL     1       5.772   5.204  16.904  0.00  0.00    +0.000 A 
ATOM     10  N   UNL     1       5.132   4.349  17.744  0.00  0.00    +0.000 NA
ATOM     11  C   UNL     1       4.125   4.838  18.481  0.00  0.00    +0.000 A 
ATOM     12  N   UNL     1       3.544   4.016  19.348  0.00  0.00    +0.000 NA
ATOM     13  H   UNL     1       1.092   3.984  21.326  0.00  0.00    +0.000 HD
ATOM     14  H   UNL     1       2.146   2.703  20.825  0.00  0.00    +0.000 HD
ATOM     15  H   UNL     1       1.497   8.025  19.790  0.00  0.00    +0.000 HD
ATOM     16  H   UNL     1       2.851   8.548  18.881  0.00  0.00    +0.000 HD
ENDROOT
BRANCH   9  17
ATOM     17  C   UNL     1       6.936   4.708  16.143  0.00  0.00    +0.000 C 
ATOM     18  O   UNL     1       7.966   4.417  16.749  0.00  0.00    +0.000 OA
BRANCH  17  19
ATOM     19  C   UNL     1       6.893   4.575  14.668  0.00  0.00    +0.000 A 
ATOM     20  C   UNL     1       6.019   3.634  14.110  0.00  0.00    +0.000 A 
ATOM     21  C   UNL     1       5.975   3.456  12.727  0.00  0.00    +0.000 A 
ATOM     22  C   UNL     1       6.816   4.204  11.901  0.00  0.00    +0.000 A 
ATOM     23  C   UNL     1       7.703   5.126  12.456  0.00  0.00    +0.000 A 
ATOM     24  C   UNL     1       7.746   5.312  13.838  0.00  0.00    +0.000 A 
ENDBRANCH  17  19
ENDBRANCH   9  17
TORSDOF 2
ENDMDL
MODEL 7
REMARK VINA RESULT:      -7.7      1.560      2.115
REMARK  Name = 
REMARK  2 active torsions:
REMARK  status: ('A' for Active; 'I' for Inactive)
REMARK    1  A    between atoms: C_9  and  C_10
REMARK    2  A    between atoms: C_10  and  C_12
REMARK                            x       y       z     vdW  Elec       q    Type
REMARK                         _______ _______ _______ _____ _____    ______ ____
ROOT
ATOM      1  N   UNL     1       5.498   2.884  11.571  0.00  0.00    +0.000 N 
ATOM      2  C   UNL     1       6.056   3.576  12.621  0.00  0.00    +0.000 A 
ATOM      3  N   UNL     1       7.103   4.352  12.354  0.00  0.00    +0.000 NA
ATOM      4  C   UNL     1       7.599   5.062  13.376  0.00  0.00    +0.000 A 
ATOM      5  N   UNL     1       8.748   5.824  13.099  0.00  0.00    +0.000 N 
ATOM      6  C   UNL     1       7.092   5.019  14.669  0.00  0.00    +0.000 A 
ATOM      7  N   UNL     1       7.576   5.798  15.685  0.00  0.00    +0.000 NA
ATOM      8  C   UNL     1       6.945   5.676  16.869  0.00  0.00    +0.000 A 
ATOM      9  C   UNL     1       5.902   4.790  17.039  0.00  0.00    +0.000 A 
ATOM     10  N   UNL     1       5.437   4.009  16.029  0.00  0.00    +0.000 NA
ATOM     11  C   UNL     1       6.015   4.137  14.827  0.00  0.00    +0.000 A 
ATOM     12  N   UNL     1       5.517   3.418  13.827  0.00  0.00    +0.000 NA
ATOM     13  H   UNL     1       6.154   2.767  10.811  0.00  0.00    +0.000 HD
ATOM     14  H   UNL     1       4.987   2.071  11.887  0.00  0.00    +0.000 HD
ATOM     15  H   UNL     1       8.891   5.883  12.097  0.00  0.00    +0.000 HD
ATOM     16  H   UNL     1       8.729   6.715  13.585  0.00  0.00    +0.000 HD
ENDROOT
BRANCH   9  17
ATOM     17  C   UNL     1       5.227   4.726  18.351  0.00  0.00    +0.000 C 
ATOM     18  O   UNL     1       5.619   3.911  19.185  0.00  0.00    +0.000 OA
BRANCH  17  19
ATOM     19  C   UNL     1       4.080   5.607  18.672  0.00  0.00    +0.000 A 
ATOM     20  C   UNL     1       3.790   6.666  17.803  0.00  0.00    +0.000 A 
ATOM     21  C   UNL     1       2.738   7.536  18.091  0.00  0.00    +0.000 A 
ATOM     22  C   UNL     1       1.988   7.362  19.255  0.00  0.00    +0.000 A 
ATOM     23  C   UNL     1       2.290   6.323  20.133  0.00  0.00    +0.000 A 
ATOM     24  C   UNL     1       3.336   5.445  19.847  0.00  0.00    +0.000 A 
ENDBRANCH  17  19
ENDBRANCH   9  17
TORSDOF 2
ENDMDL
MODEL 8
REMARK VINA RESULT:      -7.7      3.073      4.355
REMARK  Name = 
REMARK  2 active torsions:
REMARK  status: ('A' for Active; 'I' for Inactive)
REMARK    1  A    between atoms: C_9  and  C_10
REMARK    2  A    between atoms: C_10  and  C_12
REMARK                            x       y       z     vdW  Elec       q    Type
REMARK                         _______ _______ _______ _____ _____    ______ ____
ROOT
ATOM      1  N   UNL     1       6.941   5.197  13.810  0.00  0.00    +0.000 N 
ATOM      2  C   UNL     1       6.692   5.055  15.156  0.00  0.00    +0.000 A 
ATOM      3  N   UNL     1       7.704   4.672  15.929  0.00  0.00    +0.000 NA
ATOM      4  C   UNL     1       7.458   4.592  17.243  0.00  0.00    +0.000 A 
ATOM      5  N   UNL     1       8.515   4.119  18.041  0.00  0.00    +0.000 N 
ATOM      6  C   UNL     1       6.227   4.875  17.821  0.00  0.00    +0.000 A 
ATOM      7  N   UNL     1       6.014   4.846  19.173  0.00  0.00    +0.000 NA
ATOM      8  C   UNL     1       4.777   5.192  19.580  0.00  0.00    +0.000 A 
ATOM      9  C   UNL     1       3.789   5.518  18.675  0.00  0.00    +0.000 A 
ATOM     10  N   UNL     1       4.004   5.529  17.333  0.00  0.00    +0.000 NA
ATOM     11  C   UNL     1       5.236   5.231  16.898  0.00  0.00    +0.000 A 
ATOM     12  N   UNL     1       5.459   5.305  15.590  0.00  0.00    +0.000 NA
ATOM     13  H   UNL     1       7.745   4.659  13.522  0.00  0.00    +0.000 HD
ATOM     14  H   UNL     1       6.096   5.119  13.262  0.00  0.00    +0.000 HD
ATOM     15  H   UNL     1       9.378   4.119  17.509  0.00  0.00    +0.000 HD
ATOM     16  H   UNL     1       8.556   4.607  18.931  0.00  0.00    +0.000 HD
ENDROOT
BRANCH   9  17
ATOM     17  C   UNL     1       2.463   5.923  19.182  0.00  0.00    +0.000 C 
ATOM     18  O   UNL     1       1.706   5.062  19.629  0.00  0.00    +0.000 OA
BRANCH  17  19
ATOM     19  C   UNL     1       2.021   7.337  19.144  0.00  0.00    +0.000 A 
ATOM     20  C   UNL     1       2.150   8.042  17.942  0.00  0.00    +0.000 A 
ATOM     21  C   UNL     1       1.776   9.385  17.877  0.00  0.00    +0.000 A 
ATOM     22  C   UNL     1       1.291  10.029  19.017  0.00  0.00    +0.000 A 
ATOM     23  C   UNL     1       1.184   9.334  20.221  0.00  0.00    +0.000 A 
ATOM     24  C   UNL     1       1.550   7.989  20.289  0.00  0.00    +0.000 A 
ENDBRANCH  17  19
ENDBRANCH   9  17
TORSDOF 2
ENDMDL
MODEL 9
REMARK VINA RESULT:      -7.7      2.699      6.193
REMARK  Name = 
REMARK  2 active torsions:
REMARK  status: ('A' for Active; 'I' for Inactive)
REMARK    1  A    between atoms: C_9  and  C_10
REMARK    2  A    between atoms: C_10  and  C_12
REMARK                            x       y       z     vdW  Elec       q    Type
REMARK                         _______ _______ _______ _____ _____    ______ ____
ROOT
ATOM      1  N   UNL     1       0.737   1.988  18.569  0.00  0.00    +0.000 N 
ATOM      2  C   UNL     1       1.667   3.002  18.593  0.00  0.00    +0.000 A 
ATOM      3  N   UNL     1       1.458   4.005  19.440  0.00  0.00    +0.000 NA
ATOM      4  C   UNL     1       2.401   4.955  19.489  0.00  0.00    +0.000 A 
ATOM      5  N   UNL     1       2.135   6.045  20.337  0.00  0.00    +0.000 N 
ATOM      6  C   UNL     1       3.552   4.946  18.712  0.00  0.00    +0.000 A 
ATOM      7  N   UNL     1       4.533   5.896  18.822  0.00  0.00    +0.000 NA
ATOM      8  C   UNL     1       5.610   5.721  18.032  0.00  0.00    +0.000 A 
ATOM      9  C   UNL     1       5.688   4.666  17.148  0.00  0.00    +0.000 A 
ATOM     10  N   UNL     1       4.703   3.736  17.033  0.00  0.00    +0.000 NA
ATOM     11  C   UNL     1       3.637   3.858  17.835  0.00  0.00    +0.000 A 
ATOM     12  N   UNL     1       2.706   2.912  17.766  0.00  0.00    +0.000 NA
ATOM     13  H   UNL     1      -0.156   2.295  18.927  0.00  0.00    +0.000 HD
ATOM     14  H   UNL     1       0.751   1.487  17.692  0.00  0.00    +0.000 HD
ATOM     15  H   UNL     1       1.357   5.828  20.948  0.00  0.00    +0.000 HD
ATOM     16  H   UNL     1       2.977   6.365  20.807  0.00  0.00    +0.000 HD
ENDROOT
BRANCH   9  17
ATOM     17  C   UNL     1       6.908   4.507  16.332  0.00  0.00    +0.000 C 
ATOM     18  O   UNL     1       7.998   4.423  16.897  0.00  0.00    +0.000 OA
BRANCH  17  19
ATOM     19  C   UNL     1       6.847   4.467  14.852  0.00  0.00    +0.000 A 
ATOM     20  C   UNL     1       5.930   3.599  14.247  0.00  0.00    +0.000 A 
ATOM     21  C   UNL     1       5.868   3.510  12.856  0.00  0.00    +0.000 A 
ATOM     22  C   UNL     1       6.733   4.272  12.069  0.00  0.00    +0.000 A 
ATOM     23  C   UNL     1       7.662   5.119  12.670  0.00  0.00    +0.000 A 
ATOM     24  C   UNL     1       7.724   5.218  14.061  0.00  0.00    +0.000 A 
ENDBRANCH  17  19
ENDBRANCH   9  17
TORSDOF 2
ENDMDL
