MODEL 1
REMARK VINA RESULT:      -7.8      0.000      0.000
REMARK  Name = 
REMARK  0 active torsions:
REMARK  status: ('A' for Active; 'I' for Inactive)
REMARK                            x       y       z     vdW  Elec       q    Type
REMARK                         _______ _______ _______ _____ _____    ______ ____
ROOT
ATOM      1  N   UNL     1       2.740   8.179  17.824  0.00  0.00    +0.000 N 
ATOM      2  C   UNL     1       2.582   7.233  18.802  0.00  0.00    +0.000 C 
ATOM      3  O   UNL     1       1.996   7.585  19.823  0.00  0.00    +0.000 OA
ATOM      4  N   UNL     1       3.000   5.947  18.454  0.00  0.00    +0.000 N 
ATOM      5  C   UNL     1       4.075   5.677  17.545  0.00  0.00    +0.000 A 
ATOM      6  C   UNL     1       5.127   6.586  17.343  0.00  0.00    +0.000 A 
ATOM      7  C   UNL     1       6.203   6.264  16.508  0.00  0.00    +0.000 A 
ATOM      8  C   UNL     1       6.235   5.039  15.848  0.00  0.00    +0.000 A 
ATOM      9  C   UNL     1       5.206   4.123  16.044  0.00  0.00    +0.000 A 
ATOM     10  C   UNL     1       4.157   4.432  16.913  0.00  0.00    +0.000 A 
ATOM     11  O   UNL     1       3.229   3.445  17.125  0.00  0.00    +0.000 OA
ATOM     12  C   UNL     1       2.523   3.554  18.299  0.00  0.00    +0.000 A 
ATOM     13  C   UNL     1       1.914   2.379  18.752  0.00  0.00    +0.000 A 
ATOM     14  C   UNL     1       1.200   2.387  19.945  0.00  0.00    +0.000 A 
ATOM     15  C   UNL     1       1.085   3.568  20.668  0.00  0.00    +0.000 A 
ATOM     16  C   UNL     1       1.667   4.748  20.190  0.00  0.00    +0.000 A 
ATOM     17  C   UNL     1       2.395   4.765  18.993  0.00  0.00    +0.000 A 
ATOM     18  H   UNL     1       2.241   9.035  18.030  0.00  0.00    +0.000 HD
ATOM     19  H   UNL     1       2.617   7.843  16.876  0.00  0.00    +0.000 HD
ENDROOT
TORSDOF 0
ENDMDL
MODEL 2
REMARK VINA RESULT:      -7.7      1.422      4.492
REMARK  Name = 
REMARK  0 active torsions:
REMARK  status: ('A' for Active; 'I' for Inactive)
REMARK                            x       y       z     vdW  Elec       q    Type
REMARK                         _______ _______ _______ _____ _____    ______ ____
ROOT
ATOM      1  N   UNL     1       2.118   7.549  20.262  0.00  0.00    +0.000 N 
ATOM      2  C   UNL     1       2.579   7.265  19.003  0.00  0.00    +0.000 C 
ATOM      3  O   UNL     1       2.526   8.173  18.177  0.00  0.00    +0.000 OA
ATOM      4  N   UNL     1       3.170   6.009  18.860  0.00  0.00    +0.000 N 
ATOM      5  C   UNL     1       2.783   4.855  19.617  0.00  0.00    +0.000 A 
ATOM      6  C   UNL     1       1.492   4.710  20.149  0.00  0.00    +0.000 A 
ATOM      7  C   UNL     1       1.118   3.540  20.818  0.00  0.00    +0.000 A 
ATOM      8  C   UNL     1       2.035   2.505  20.984  0.00  0.00    +0.000 A 
ATOM      9  C   UNL     1       3.316   2.627  20.455  0.00  0.00    +0.000 A 
ATOM     10  C   UNL     1       3.669   3.780  19.749  0.00  0.00    +0.000 A 
ATOM     11  O   UNL     1       4.916   3.789  19.181  0.00  0.00    +0.000 OA
ATOM     12  C   UNL     1       5.066   4.652  18.121  0.00  0.00    +0.000 A 
ATOM     13  C   UNL     1       6.136   4.379  17.263  0.00  0.00    +0.000 A 
ATOM     14  C   UNL     1       6.350   5.183  16.149  0.00  0.00    +0.000 A 
ATOM     15  C   UNL     1       5.506   6.260  15.908  0.00  0.00    +0.000 A 
ATOM     16  C   UNL     1       4.459   6.549  16.792  0.00  0.00    +0.000 A 
ATOM     17  C   UNL     1       4.220   5.751  17.919  0.00  0.00    +0.000 A 
ATOM     18  H   UNL     1       1.894   8.529  20.379  0.00  0.00    +0.000 HD
ATOM     19  H   UNL     1       2.663   7.154  21.019  0.00  0.00    +0.000 HD
ENDROOT
TORSDOF 0
ENDMDL
MODEL 3
REMARK VINA RESULT:      -7.4      1.093      4.406
REMARK  Name = 
REMARK  0 active torsions:
REMARK  status: ('A' for Active; 'I' for Inactive)
REMARK                            x       y       z     vdW  Elec       q    Type
REMARK                         _______ _______ _______ _____ _____    ______ ____
ROOT
ATOM      1  N   UNL     1       2.316   6.793  20.436  0.00  0.00    +0.000 N 
ATOM      2  C   UNL     1       2.670   6.877  19.116  0.00  0.00    +0.000 C 
ATOM      3  O   UNL     1       2.710   8.003  18.625  0.00  0.00    +0.000 OA
ATOM      4  N   UNL     1       3.067   5.673  18.532  0.00  0.00    +0.000 N 
ATOM      5  C   UNL     1       2.554   4.392  18.921  0.00  0.00    +0.000 A 
ATOM      6  C   UNL     1       1.283   4.241  19.497  0.00  0.00    +0.000 A 
ATOM      7  C   UNL     1       0.776   2.972  19.796  0.00  0.00    +0.000 A 
ATOM      8  C   UNL     1       1.541   1.836  19.544  0.00  0.00    +0.000 A 
ATOM      9  C   UNL     1       2.800   1.966  18.965  0.00  0.00    +0.000 A 
ATOM     10  C   UNL     1       3.281   3.233  18.627  0.00  0.00    +0.000 A 
ATOM     11  O   UNL     1       4.488   3.274  17.979  0.00  0.00    +0.000 OA
ATOM     12  C   UNL     1       4.709   4.409  17.235  0.00  0.00    +0.000 A 
ATOM     13  C   UNL     1       5.686   4.300  16.241  0.00  0.00    +0.000 A 
ATOM     14  C   UNL     1       5.960   5.389  15.420  0.00  0.00    +0.000 A 
ATOM     15  C   UNL     1       5.270   6.580  15.607  0.00  0.00    +0.000 A 
ATOM     16  C   UNL     1       4.319   6.692  16.629  0.00  0.00    +0.000 A 
ATOM     17  C   UNL     1       4.022   5.608  17.466  0.00  0.00    +0.000 A 
ATOM     18  H   UNL     1       2.241   7.702  20.875  0.00  0.00    +0.000 HD
ATOM     19  H   UNL     1       2.833   6.111  20.978  0.00  0.00    +0.000 HD
ENDROOT
TORSDOF 0
ENDMDL
MODEL 4
REMARK VINA RESULT:      -7.4      1.439      3.902
REMARK  Name = 
REMARK  0 active torsions:
REMARK  status: ('A' for Active; 'I' for Inactive)
REMARK                            x       y       z     vdW  Elec       q    Type
REMARK                         _______ _______ _______ _____ _____    ______ ____
ROOT
ATOM      1  N   UNL     1       5.060   6.757  17.180  0.00  0.00    +0.000 N 
ATOM      2  C   UNL     1       4.189   5.704  17.275  0.00  0.00    +0.000 C 
ATOM      3  O   UNL     1       4.459   4.703  16.616  0.00  0.00    +0.000 OA
ATOM      4  N   UNL     1       3.171   5.862  18.216  0.00  0.00    +0.000 N 
ATOM      5  C   UNL     1       2.598   7.129  18.566  0.00  0.00    +0.000 A 
ATOM      6  C   UNL     1       2.591   8.215  17.676  0.00  0.00    +0.000 A 
ATOM      7  C   UNL     1       1.958   9.417  18.014  0.00  0.00    +0.000 A 
ATOM      8  C   UNL     1       1.340   9.557  19.254  0.00  0.00    +0.000 A 
ATOM      9  C   UNL     1       1.329   8.488  20.145  0.00  0.00    +0.000 A 
ATOM     10  C   UNL     1       1.924   7.276  19.783  0.00  0.00    +0.000 A 
ATOM     11  O   UNL     1       1.794   6.243  20.674  0.00  0.00    +0.000 OA
ATOM     12  C   UNL     1       1.925   4.987  20.130  0.00  0.00    +0.000 A 
ATOM     13  C   UNL     1       1.377   3.942  20.879  0.00  0.00    +0.000 A 
ATOM     14  C   UNL     1       1.439   2.639  20.396  0.00  0.00    +0.000 A 
ATOM     15  C   UNL     1       2.059   2.388  19.178  0.00  0.00    +0.000 A 
ATOM     16  C   UNL     1       2.638   3.435  18.452  0.00  0.00    +0.000 A 
ATOM     17  C   UNL     1       2.585   4.757  18.915  0.00  0.00    +0.000 A 
ATOM     18  H   UNL     1       5.891   6.525  16.652  0.00  0.00    +0.000 HD
ATOM     19  H   UNL     1       5.241   7.246  18.048  0.00  0.00    +0.000 HD
ENDROOT
TORSDOF 0
ENDMDL
MODEL 5
REMARK VINA RESULT:      -7.1      1.648      5.094
REMARK  Name = 
REMARK  0 active torsions:
REMARK  status: ('A' for Active; 'I' for Inactive)
REMARK                            x       y       z     vdW  Elec       q    Type
REMARK                         _______ _______ _______ _____ _____    ______ ____
ROOT
ATOM      1  N   UNL     1       1.214   2.682  18.393  0.00  0.00    +0.000 N 
ATOM      2  C   UNL     1       2.548   2.793  18.103  0.00  0.00    +0.000 C 
ATOM      3  O   UNL     1       3.130   1.763  17.773  0.00  0.00    +0.000 OA
ATOM      4  N   UNL     1       3.045   4.097  18.098  0.00  0.00    +0.000 N 
ATOM      5  C   UNL     1       2.537   5.147  18.931  0.00  0.00    +0.000 A 
ATOM      6  C   UNL     1       1.908   4.887  20.159  0.00  0.00    +0.000 A 
ATOM      7  C   UNL     1       1.490   5.933  20.988  0.00  0.00    +0.000 A 
ATOM      8  C   UNL     1       1.675   7.256  20.593  0.00  0.00    +0.000 A 
ATOM      9  C   UNL     1       2.304   7.533  19.383  0.00  0.00    +0.000 A 
ATOM     10  C   UNL     1       2.760   6.483  18.581  0.00  0.00    +0.000 A 
ATOM     11  O   UNL     1       3.449   6.835  17.450  0.00  0.00    +0.000 OA
ATOM     12  C   UNL     1       4.290   5.866  16.957  0.00  0.00    +0.000 A 
ATOM     13  C   UNL     1       5.304   6.318  16.107  0.00  0.00    +0.000 A 
ATOM     14  C   UNL     1       6.219   5.413  15.581  0.00  0.00    +0.000 A 
ATOM     15  C   UNL     1       6.106   4.064  15.893  0.00  0.00    +0.000 A 
ATOM     16  C   UNL     1       5.066   3.614  16.715  0.00  0.00    +0.000 A 
ATOM     17  C   UNL     1       4.134   4.507  17.261  0.00  0.00    +0.000 A 
ATOM     18  H   UNL     1       0.849   1.762  18.182  0.00  0.00    +0.000 HD
ATOM     19  H   UNL     1       0.636   3.445  18.062  0.00  0.00    +0.000 HD
ENDROOT
TORSDOF 0
ENDMDL
MODEL 6
REMARK VINA RESULT:      -7.0      1.727      3.797
REMARK  Name = 
REMARK  0 active torsions:
REMARK  status: ('A' for Active; 'I' for Inactive)
REMARK                            x       y       z     vdW  Elec       q    Type
REMARK                         _______ _______ _______ _____ _____    ______ ____
ROOT
ATOM      1  N   UNL     1       5.540   6.970  16.625  0.00  0.00    +0.000 N 
ATOM      2  C   UNL     1       4.818   5.807  16.578  0.00  0.00    +0.000 C 
ATOM      3  O   UNL     1       5.165   4.973  15.746  0.00  0.00    +0.000 OA
ATOM      4  N   UNL     1       3.854   5.670  17.579  0.00  0.00    +0.000 N 
ATOM      5  C   UNL     1       3.152   6.773  18.166  0.00  0.00    +0.000 A 
ATOM      6  C   UNL     1       2.948   7.979  17.477  0.00  0.00    +0.000 A 
ATOM      7  C   UNL     1       2.193   9.012  18.045  0.00  0.00    +0.000 A 
ATOM      8  C   UNL     1       1.649   8.862  19.318  0.00  0.00    +0.000 A 
ATOM      9  C   UNL     1       1.833   7.670  20.012  0.00  0.00    +0.000 A 
ATOM     10  C   UNL     1       2.549   6.627  19.421  0.00  0.00    +0.000 A 
ATOM     11  O   UNL     1       2.612   5.453  20.127  0.00  0.00    +0.000 OA
ATOM     12  C   UNL     1       2.862   4.333  19.370  0.00  0.00    +0.000 A 
ATOM     13  C   UNL     1       2.503   3.114  19.954  0.00  0.00    +0.000 A 
ATOM     14  C   UNL     1       2.695   1.929  19.253  0.00  0.00    +0.000 A 
ATOM     15  C   UNL     1       3.257   1.967  17.983  0.00  0.00    +0.000 A 
ATOM     16  C   UNL     1       3.648   3.187  17.420  0.00  0.00    +0.000 A 
ATOM     17  C   UNL     1       3.462   4.396  18.105  0.00  0.00    +0.000 A 
ATOM     18  H   UNL     1       6.356   6.942  16.027  0.00  0.00    +0.000 HD
ATOM     19  H   UNL     1       5.717   7.330  17.555  0.00  0.00    +0.000 HD
ENDROOT
TORSDOF 0
ENDMDL
MODEL 7
REMARK VINA RESULT:      -7.0      2.723      3.837
REMARK  Name = 
REMARK  0 active torsions:
REMARK  status: ('A' for Active; 'I' for Inactive)
REMARK                            x       y       z     vdW  Elec       q    Type
REMARK                         _______ _______ _______ _____ _____    ______ ____
ROOT
ATOM      1  N   UNL     1       6.747   4.501  14.591  0.00  0.00    +0.000 N 
ATOM      2  C   UNL     1       5.507   4.381  15.162  0.00  0.00    +0.000 C 
ATOM      3  O   UNL     1       4.580   4.081  14.413  0.00  0.00    +0.000 OA
ATOM      4  N   UNL     1       5.484   4.492  16.553  0.00  0.00    +0.000 N 
ATOM      5  C   UNL     1       6.398   5.301  17.304  0.00  0.00    +0.000 A 
ATOM      6  C   UNL     1       7.022   6.431  16.751  0.00  0.00    +0.000 A 
ATOM      7  C   UNL     1       7.851   7.247  17.529  0.00  0.00    +0.000 A 
ATOM      8  C   UNL     1       8.087   6.933  18.865  0.00  0.00    +0.000 A 
ATOM      9  C   UNL     1       7.470   5.822  19.432  0.00  0.00    +0.000 A 
ATOM     10  C   UNL     1       6.608   5.038  18.662  0.00  0.00    +0.000 A 
ATOM     11  O   UNL     1       5.969   4.015  19.313  0.00  0.00    +0.000 OA
ATOM     12  C   UNL     1       4.804   3.587  18.721  0.00  0.00    +0.000 A 
ATOM     13  C   UNL     1       3.923   2.888  19.551  0.00  0.00    +0.000 A 
ATOM     14  C   UNL     1       2.707   2.439  19.046  0.00  0.00    +0.000 A 
ATOM     15  C   UNL     1       2.387   2.677  17.715  0.00  0.00    +0.000 A 
ATOM     16  C   UNL     1       3.291   3.346  16.881  0.00  0.00    +0.000 A 
ATOM     17  C   UNL     1       4.520   3.812  17.367  0.00  0.00    +0.000 A 
ATOM     18  H   UNL     1       6.756   4.209  13.622  0.00  0.00    +0.000 HD
ATOM     19  H   UNL     1       7.513   4.135  15.144  0.00  0.00    +0.000 HD
ENDROOT
TORSDOF 0
ENDMDL
MODEL 8
REMARK VINA RESULT:      -6.9      2.001      3.473
REMARK  Name = 
REMARK  0 active torsions:
REMARK  status: ('A' for Active; 'I' for Inactive)
REMARK                            x       y       z     vdW  Elec       q    Type
REMARK                         _______ _______ _______ _____ _____    ______ ____
ROOT
ATOM      1  N   UNL     1       5.252   2.690  19.466  0.00  0.00    +0.000 N 
ATOM      2  C   UNL     1       4.016   3.248  19.657  0.00  0.00    +0.000 C 
ATOM      3  O   UNL     1       3.288   2.707  20.486  0.00  0.00    +0.000 OA
ATOM      4  N   UNL     1       3.795   4.443  18.972  0.00  0.00    +0.000 N 
ATOM      5  C   UNL     1       4.390   4.759  17.707  0.00  0.00    +0.000 A 
ATOM      6  C   UNL     1       4.790   3.764  16.801  0.00  0.00    +0.000 A 
ATOM      7  C   UNL     1       5.298   4.100  15.542  0.00  0.00    +0.000 A 
ATOM      8  C   UNL     1       5.433   5.437  15.177  0.00  0.00    +0.000 A 
ATOM      9  C   UNL     1       5.034   6.437  16.058  0.00  0.00    +0.000 A 
ATOM     10  C   UNL     1       4.485   6.093  17.296  0.00  0.00    +0.000 A 
ATOM     11  O   UNL     1       4.032   7.129  18.072  0.00  0.00    +0.000 OA
ATOM     12  C   UNL     1       3.086   6.784  19.007  0.00  0.00    +0.000 A 
ATOM     13  C   UNL     1       2.301   7.834  19.491  0.00  0.00    +0.000 A 
ATOM     14  C   UNL     1       1.299   7.576  20.421  0.00  0.00    +0.000 A 
ATOM     15  C   UNL     1       1.099   6.277  20.872  0.00  0.00    +0.000 A 
ATOM     16  C   UNL     1       1.914   5.237  20.409  0.00  0.00    +0.000 A 
ATOM     17  C   UNL     1       2.927   5.470  19.469  0.00  0.00    +0.000 A 
ATOM     18  H   UNL     1       5.451   1.953  20.130  0.00  0.00    +0.000 HD
ATOM     19  H   UNL     1       6.009   3.352  19.339  0.00  0.00    +0.000 HD
ENDROOT
TORSDOF 0
ENDMDL
MODEL 9
REMARK VINA RESULT:      -6.9      2.621      2.982
REMARK  Name = 
REMARK  0 active torsions:
REMARK  status: ('A' for Active; 'I' for Inactive)
REMARK                            x       y       z     vdW  Elec       q    Type
REMARK                         _______ _______ _______ _____ _____    ______ ____
ROOT
ATOM      1  N   UNL     1       7.255   6.538  18.333  0.00  0.00    +0.000 N 
ATOM      2  C   UNL     1       6.728   5.384  18.850  0.00  0.00    +0.000 C 
ATOM      3  O   UNL     1       6.935   5.166  20.041  0.00  0.00    +0.000 OA
ATOM      4  N   UNL     1       5.908   4.666  17.977  0.00  0.00    +0.000 N 
ATOM      5  C   UNL     1       6.084   4.644  16.555  0.00  0.00    +0.000 A 
ATOM      6  C   UNL     1       7.334   4.864  15.955  0.00  0.00    +0.000 A 
ATOM      7  C   UNL     1       7.493   4.761  14.568  0.00  0.00    +0.000 A 
ATOM      8  C   UNL     1       6.402   4.458  13.759  0.00  0.00    +0.000 A 
ATOM      9  C   UNL     1       5.157   4.229  14.338  0.00  0.00    +0.000 A 
ATOM     10  C   UNL     1       5.015   4.288  15.726  0.00  0.00    +0.000 A 
ATOM     11  O   UNL     1       3.781   3.962  16.228  0.00  0.00    +0.000 OA
ATOM     12  C   UNL     1       3.778   3.547  17.539  0.00  0.00    +0.000 A 
ATOM     13  C   UNL     1       2.662   2.807  17.938  0.00  0.00    +0.000 A 
ATOM     14  C   UNL     1       2.583   2.323  19.239  0.00  0.00    +0.000 A 
ATOM     15  C   UNL     1       3.610   2.593  20.135  0.00  0.00    +0.000 A 
ATOM     16  C   UNL     1       4.708   3.366  19.738  0.00  0.00    +0.000 A 
ATOM     17  C   UNL     1       4.812   3.862  18.431  0.00  0.00    +0.000 A 
ATOM     18  H   UNL     1       7.663   7.129  19.046  0.00  0.00    +0.000 HD
ATOM     19  H   UNL     1       6.660   7.027  17.676  0.00  0.00    +0.000 HD
ENDROOT
TORSDOF 0
ENDMDL
