MODEL 1
REMARK VINA RESULT:      -7.6      0.000      0.000
REMARK  Name = 
REMARK  6 active torsions:
REMARK  status: ('A' for Active; 'I' for Inactive)
REMARK    1  A    between atoms: C_1  and  C_2
REMARK    2  A    between atoms: C_2  and  N_3
REMARK    3  A    between atoms: N_3  and  C_21
REMARK    4  A    between atoms: C_4  and  C_6
REMARK    5  A    between atoms: C_6  and  S_7
REMARK    6  A    between atoms: S_7  and  C_8
REMARK                            x       y       z     vdW  Elec       q    Type
REMARK                         _______ _______ _______ _____ _____    ______ ____
ROOT
ATOM      1  S   UNL     1       2.745   8.446  17.950  0.00  0.00    +0.000 S 
ENDROOT
BRANCH   1   2
ATOM      2  C   UNL     1       1.697   9.376  19.038  0.00  0.00    +0.000 C 
ATOM      3  N   UNL     1       1.326   8.815  20.154  0.00  0.00    +0.000 NA
ATOM      4  C   UNL     1       0.567   9.579  21.060  0.00  0.00    +0.000 A 
ATOM      5  C   UNL     1       0.017   8.965  22.190  0.00  0.00    +0.000 A 
ATOM      6  C   UNL     1      -0.761   9.689  23.099  0.00  0.00    +0.000 A 
ATOM      7  C   UNL     1      -0.987  11.051  22.900  0.00  0.00    +0.000 A 
ATOM      8  C   UNL     1      -0.432  11.681  21.792  0.00  0.00    +0.000 A 
ATOM      9  C   UNL     1       0.335  10.947  20.871  0.00  0.00    +0.000 A 
ATOM     10  C   UNL     1       0.832  11.600  19.626  0.00  0.00    +0.000 C 
ATOM     11  C   UNL     1       1.975  12.588  19.765  0.00  0.00    +0.000 C 
ATOM     12  C   UNL     1       2.382  12.546  18.326  0.00  0.00    +0.000 C 
ATOM     13  N   UNL     1       2.121  11.427  17.726  0.00  0.00    +0.000 NA
ATOM     14  N   UNL     1       1.386  10.675  18.641  0.00  0.00    +0.000 N 
ENDBRANCH   1   2
BRANCH   1  15
ATOM     15  C   UNL     1       2.062   6.771  18.103  0.00  0.00    +0.000 C 
BRANCH  15  17
ATOM     16  N   UNL     1       4.056   5.218  18.378  0.00  0.00    +0.000 N 
ATOM     17  C   UNL     1       2.939   5.854  18.985  0.00  0.00    +0.000 C 
ATOM     18  O   UNL     1       2.691   5.712  20.183  0.00  0.00    +0.000 OA
BRANCH  16  19
ATOM     19  C   UNL     1       4.467   5.525  16.978  0.00  0.00    +0.000 C 
ATOM     20  C   UNL     1       4.500   4.359  15.969  0.00  0.00    +0.000 C 
ATOM     21  C   UNL     1       5.868   3.694  16.009  0.00  0.00    +0.000 C 
ATOM     22  S   UNL     1       7.014   5.010  16.369  0.00  0.00    +0.000 S 
ATOM     23  O   UNL     1       7.590   5.461  15.117  0.00  0.00    +0.000 OA
ATOM     24  O   UNL     1       7.832   4.608  17.497  0.00  0.00    +0.000 OA
ATOM     25  C   UNL     1       5.827   6.224  16.908  0.00  0.00    +0.000 C 
ENDBRANCH  16  19
BRANCH  16  27
ATOM     26  C   UNL     1       4.614   2.919  19.523  0.00  0.00    +0.000 C 
ATOM     27  C   UNL     1       4.964   4.356  19.167  0.00  0.00    +0.000 C 
ENDBRANCH  16  27
ENDBRANCH  15  17
ENDBRANCH   1  15
TORSDOF 5
ENDMDL
MODEL 2
REMARK VINA RESULT:      -7.5      1.150      1.356
REMARK  Name = 
REMARK  6 active torsions:
REMARK  status: ('A' for Active; 'I' for Inactive)
REMARK    1  A    between atoms: C_1  and  C_2
REMARK    2  A    between atoms: C_2  and  N_3
REMARK    3  A    between atoms: N_3  and  C_21
REMARK    4  A    between atoms: C_4  and  C_6
REMARK    5  A    between atoms: C_6  and  S_7
REMARK    6  A    between atoms: S_7  and  C_8
REMARK                            x       y       z     vdW  Elec       q    Type
REMARK                         _______ _______ _______ _____ _____    ______ ____
ROOT
ATOM      1  S   UNL     1       2.157   8.130  18.262  0.00  0.00    +0.000 S 
ENDROOT
BRANCH   1   2
ATOM      2  C   UNL     1       1.270   9.328  19.222  0.00  0.00    +0.000 C 
ATOM      3  N   UNL     1       0.830   8.965  20.395  0.00  0.00    +0.000 NA
ATOM      4  C   UNL     1       0.202   9.936  21.196  0.00  0.00    +0.000 A 
ATOM      5  C   UNL     1      -0.422   9.550  22.387  0.00  0.00    +0.000 A 
ATOM      6  C   UNL     1      -1.075  10.484  23.197  0.00  0.00    +0.000 A 
ATOM      7  C   UNL     1      -1.098  11.831  22.836  0.00  0.00    +0.000 A 
ATOM      8  C   UNL     1      -0.466  12.235  21.665  0.00  0.00    +0.000 A 
ATOM      9  C   UNL     1       0.174  11.291  20.844  0.00  0.00    +0.000 A 
ATOM     10  C   UNL     1       0.751  11.710  19.535  0.00  0.00    +0.000 C 
ATOM     11  C   UNL     1       2.030  12.526  19.564  0.00  0.00    +0.000 C 
ATOM     12  C   UNL     1       2.412  12.253  18.144  0.00  0.00    +0.000 C 
ATOM     13  N   UNL     1       1.982  11.123  17.679  0.00  0.00    +0.000 NA
ATOM     14  N   UNL     1       1.152  10.603  18.671  0.00  0.00    +0.000 N 
ENDBRANCH   1   2
BRANCH   1  15
ATOM     15  C   UNL     1       2.875   7.068  19.547  0.00  0.00    +0.000 C 
BRANCH  15  17
ATOM     16  N   UNL     1       3.707   4.889  18.535  0.00  0.00    +0.000 N 
ATOM     17  C   UNL     1       2.680   5.564  19.248  0.00  0.00    +0.000 C 
ATOM     18  O   UNL     1       1.678   4.970  19.649  0.00  0.00    +0.000 OA
BRANCH  16  19
ATOM     19  C   UNL     1       4.999   5.555  18.203  0.00  0.00    +0.000 C 
ATOM     20  C   UNL     1       5.011   6.551  17.026  0.00  0.00    +0.000 C 
ATOM     21  C   UNL     1       5.299   5.802  15.733  0.00  0.00    +0.000 C 
ATOM     22  S   UNL     1       6.391   4.474  16.200  0.00  0.00    +0.000 S 
ATOM     23  O   UNL     1       7.752   4.890  15.923  0.00  0.00    +0.000 OA
ATOM     24  O   UNL     1       5.843   3.232  15.690  0.00  0.00    +0.000 OA
ATOM     25  C   UNL     1       6.129   4.551  17.959  0.00  0.00    +0.000 C 
ENDBRANCH  16  19
BRANCH  16  27
ATOM     26  C   UNL     1       2.590   2.876  17.266  0.00  0.00    +0.000 C 
ATOM     27  C   UNL     1       3.609   3.441  18.245  0.00  0.00    +0.000 C 
ENDBRANCH  16  27
ENDBRANCH  15  17
ENDBRANCH   1  15
TORSDOF 5
ENDMDL
MODEL 3
REMARK VINA RESULT:      -7.4      3.520      8.483
REMARK  Name = 
REMARK  6 active torsions:
REMARK  status: ('A' for Active; 'I' for Inactive)
REMARK    1  A    between atoms: C_1  and  C_2
REMARK    2  A    between atoms: C_2  and  N_3
REMARK    3  A    between atoms: N_3  and  C_21
REMARK    4  A    between atoms: C_4  and  C_6
REMARK    5  A    between atoms: C_6  and  S_7
REMARK    6  A    between atoms: S_7  and  C_8
REMARK                            x       y       z     vdW  Elec       q    Type
REMARK                         _______ _______ _______ _____ _____    ______ ____
ROOT
ATOM      1  S   UNL     1       2.411   8.492  17.917  0.00  0.00    +0.000 S 
ENDROOT
BRANCH   1   2
ATOM      2  C   UNL     1       2.905   6.930  18.598  0.00  0.00    +0.000 C 
ATOM      3  N   UNL     1       2.099   6.351  19.443  0.00  0.00    +0.000 NA
ATOM      4  C   UNL     1       2.445   5.073  19.919  0.00  0.00    +0.000 A 
ATOM      5  C   UNL     1       1.692   4.491  20.944  0.00  0.00    +0.000 A 
ATOM      6  C   UNL     1       2.021   3.232  21.457  0.00  0.00    +0.000 A 
ATOM      7  C   UNL     1       3.103   2.524  20.936  0.00  0.00    +0.000 A 
ATOM      8  C   UNL     1       3.851   3.079  19.904  0.00  0.00    +0.000 A 
ATOM      9  C   UNL     1       3.529   4.353  19.403  0.00  0.00    +0.000 A 
ATOM     10  C   UNL     1       4.401   4.993  18.378  0.00  0.00    +0.000 C 
ATOM     11  C   UNL     1       4.340   4.440  16.965  0.00  0.00    +0.000 C 
ATOM     12  C   UNL     1       4.938   5.644  16.309  0.00  0.00    +0.000 C 
ATOM     13  N   UNL     1       4.726   6.758  16.935  0.00  0.00    +0.000 NA
ATOM     14  N   UNL     1       4.108   6.402  18.133  0.00  0.00    +0.000 N 
ENDBRANCH   1   2
BRANCH   1  15
ATOM     15  C   UNL     1       1.351   9.161  19.230  0.00  0.00    +0.000 C 
BRANCH  15  17
ATOM     16  N   UNL     1      -0.279  11.092  19.507  0.00  0.00    +0.000 N 
ATOM     17  C   UNL     1       0.214  10.050  18.676  0.00  0.00    +0.000 C 
ATOM     18  O   UNL     1      -0.220   9.874  17.538  0.00  0.00    +0.000 OA
BRANCH  16  19
ATOM     19  C   UNL     1       0.360  11.425  20.812  0.00  0.00    +0.000 C 
ATOM     20  C   UNL     1      -0.093  10.632  22.055  0.00  0.00    +0.000 C 
ATOM     21  C   UNL     1      -1.285  11.331  22.692  0.00  0.00    +0.000 C 
ATOM     22  S   UNL     1      -1.014  13.069  22.402  0.00  0.00    +0.000 S 
ATOM     23  O   UNL     1      -0.412  13.636  23.592  0.00  0.00    +0.000 OA
ATOM     24  O   UNL     1      -2.212  13.623  21.801  0.00  0.00    +0.000 OA
ATOM     25  C   UNL     1       0.248  12.912  21.156  0.00  0.00    +0.000 C 
ENDBRANCH  16  19
BRANCH  16  27
ATOM     26  C   UNL     1      -2.807  11.606  19.002  0.00  0.00    +0.000 C 
ATOM     27  C   UNL     1      -1.340  12.008  19.031  0.00  0.00    +0.000 C 
ENDBRANCH  16  27
ENDBRANCH  15  17
ENDBRANCH   1  15
TORSDOF 5
ENDMDL
MODEL 4
REMARK VINA RESULT:      -7.3      3.241      8.659
REMARK  Name = 
REMARK  6 active torsions:
REMARK  status: ('A' for Active; 'I' for Inactive)
REMARK    1  A    between atoms: C_1  and  C_2
REMARK    2  A    between atoms: C_2  and  N_3
REMARK    3  A    between atoms: N_3  and  C_21
REMARK    4  A    between atoms: C_4  and  C_6
REMARK    5  A    between atoms: C_6  and  S_7
REMARK    6  A    between atoms: S_7  and  C_8
REMARK                            x       y       z     vdW  Elec       q    Type
REMARK                         _______ _______ _______ _____ _____    ______ ____
ROOT
ATOM      1  S   UNL     1       2.087   6.160  20.228  0.00  0.00    +0.000 S 
ENDROOT
BRANCH   1   2
ATOM      2  C   UNL     1       3.025   5.508  18.871  0.00  0.00    +0.000 C 
ATOM      3  N   UNL     1       4.227   5.974  18.681  0.00  0.00    +0.000 NA
ATOM      4  C   UNL     1       5.008   5.399  17.661  0.00  0.00    +0.000 A 
ATOM      5  C   UNL     1       6.236   5.977  17.323  0.00  0.00    +0.000 A 
ATOM      6  C   UNL     1       7.027   5.445  16.300  0.00  0.00    +0.000 A 
ATOM      7  C   UNL     1       6.608   4.310  15.607  0.00  0.00    +0.000 A 
ATOM      8  C   UNL     1       5.399   3.712  15.943  0.00  0.00    +0.000 A 
ATOM      9  C   UNL     1       4.597   4.259  16.960  0.00  0.00    +0.000 A 
ATOM     10  C   UNL     1       3.251   3.684  17.239  0.00  0.00    +0.000 C 
ATOM     11  C   UNL     1       3.198   2.340  17.943  0.00  0.00    +0.000 C 
ATOM     12  C   UNL     1       1.778   2.467  18.397  0.00  0.00    +0.000 C 
ATOM     13  N   UNL     1       1.380   3.686  18.582  0.00  0.00    +0.000 NA
ATOM     14  N   UNL     1       2.423   4.492  18.130  0.00  0.00    +0.000 N 
ENDBRANCH   1   2
BRANCH   1  15
ATOM     15  C   UNL     1       1.820   7.880  19.714  0.00  0.00    +0.000 C 
BRANCH  15  17
ATOM     16  N   UNL     1       0.880  10.084  20.566  0.00  0.00    +0.000 N 
ATOM     17  C   UNL     1       1.346   8.778  20.880  0.00  0.00    +0.000 C 
ATOM     18  O   UNL     1       1.343   8.354  22.035  0.00  0.00    +0.000 OA
BRANCH  16  19
ATOM     19  C   UNL     1       0.712  10.539  19.157  0.00  0.00    +0.000 C 
ATOM     20  C   UNL     1       1.007  12.020  18.842  0.00  0.00    +0.000 C 
ATOM     21  C   UNL     1      -0.259  12.840  19.043  0.00  0.00    +0.000 C 
ATOM     22  S   UNL     1      -1.595  11.753  18.587  0.00  0.00    +0.000 S 
ATOM     23  O   UNL     1      -1.968  12.047  17.217  0.00  0.00    +0.000 OA
ATOM     24  O   UNL     1      -2.562  11.740  19.667  0.00  0.00    +0.000 OA
ATOM     25  C   UNL     1      -0.680  10.226  18.602  0.00  0.00    +0.000 C 
ENDBRANCH  16  19
BRANCH  16  27
ATOM     26  C   UNL     1      -0.828  10.631  22.487  0.00  0.00    +0.000 C 
ATOM     27  C   UNL     1       0.374  10.986  21.624  0.00  0.00    +0.000 C 
ENDBRANCH  16  27
ENDBRANCH  15  17
ENDBRANCH   1  15
TORSDOF 5
ENDMDL
MODEL 5
REMARK VINA RESULT:      -7.2      3.710      8.611
REMARK  Name = 
REMARK  6 active torsions:
REMARK  status: ('A' for Active; 'I' for Inactive)
REMARK    1  A    between atoms: C_1  and  C_2
REMARK    2  A    between atoms: C_2  and  N_3
REMARK    3  A    between atoms: N_3  and  C_21
REMARK    4  A    between atoms: C_4  and  C_6
REMARK    5  A    between atoms: C_6  and  S_7
REMARK    6  A    between atoms: S_7  and  C_8
REMARK                            x       y       z     vdW  Elec       q    Type
REMARK                         _______ _______ _______ _____ _____    ______ ____
ROOT
ATOM      1  S   UNL     1       1.495   6.693  20.837  0.00  0.00    +0.000 S 
ENDROOT
BRANCH   1   2
ATOM      2  C   UNL     1       2.288   5.901  19.462  0.00  0.00    +0.000 C 
ATOM      3  N   UNL     1       3.207   6.567  18.822  0.00  0.00    +0.000 NA
ATOM      4  C   UNL     1       3.899   5.913  17.787  0.00  0.00    +0.000 A 
ATOM      5  C   UNL     1       4.776   6.640  16.975  0.00  0.00    +0.000 A 
ATOM      6  C   UNL     1       5.463   6.028  15.923  0.00  0.00    +0.000 A 
ATOM      7  C   UNL     1       5.298   4.665  15.676  0.00  0.00    +0.000 A 
ATOM      8  C   UNL     1       4.446   3.922  16.486  0.00  0.00    +0.000 A 
ATOM      9  C   UNL     1       3.742   4.545  17.531  0.00  0.00    +0.000 A 
ATOM     10  C   UNL     1       2.744   3.772  18.323  0.00  0.00    +0.000 C 
ATOM     11  C   UNL     1       3.276   2.750  19.312  0.00  0.00    +0.000 C 
ATOM     12  C   UNL     1       2.020   2.657  20.119  0.00  0.00    +0.000 C 
ATOM     13  N   UNL     1       1.297   3.732  20.114  0.00  0.00    +0.000 NA
ATOM     14  N   UNL     1       1.905   4.587  19.197  0.00  0.00    +0.000 N 
ENDBRANCH   1   2
BRANCH   1  15
ATOM     15  C   UNL     1       1.476   8.431  20.315  0.00  0.00    +0.000 C 
BRANCH  15  17
ATOM     16  N   UNL     1      -0.104  10.409  20.558  0.00  0.00    +0.000 N 
ATOM     17  C   UNL     1       0.528   9.296  21.178  0.00  0.00    +0.000 C 
ATOM     18  O   UNL     1       0.307   9.003  22.353  0.00  0.00    +0.000 OA
BRANCH  16  19
ATOM     19  C   UNL     1       0.017  10.665  19.095  0.00  0.00    +0.000 C 
ATOM     20  C   UNL     1       0.245  12.121  18.638  0.00  0.00    +0.000 C 
ATOM     21  C   UNL     1      -1.100  12.804  18.441  0.00  0.00    +0.000 C 
ATOM     22  S   UNL     1      -2.195  11.519  17.871  0.00  0.00    +0.000 S 
ATOM     23  O   UNL     1      -2.268  11.597  16.425  0.00  0.00    +0.000 OA
ATOM     24  O   UNL     1      -3.380  11.524  18.707  0.00  0.00    +0.000 OA
ATOM     25  C   UNL     1      -1.177  10.124  18.305  0.00  0.00    +0.000 C 
ENDBRANCH  16  19
BRANCH  16  27
ATOM     26  C   UNL     1      -0.589  12.371  22.239  0.00  0.00    +0.000 C 
ATOM     27  C   UNL     1      -1.054  11.260  21.309  0.00  0.00    +0.000 C 
ENDBRANCH  16  27
ENDBRANCH  15  17
ENDBRANCH   1  15
TORSDOF 5
ENDMDL
MODEL 6
REMARK VINA RESULT:      -7.2      2.716      3.362
REMARK  Name = 
REMARK  6 active torsions:
REMARK  status: ('A' for Active; 'I' for Inactive)
REMARK    1  A    between atoms: C_1  and  C_2
REMARK    2  A    between atoms: C_2  and  N_3
REMARK    3  A    between atoms: N_3  and  C_21
REMARK    4  A    between atoms: C_4  and  C_6
REMARK    5  A    between atoms: C_6  and  S_7
REMARK    6  A    between atoms: S_7  and  C_8
REMARK                            x       y       z     vdW  Elec       q    Type
REMARK                         _______ _______ _______ _____ _____    ______ ____
ROOT
ATOM      1  S   UNL     1       2.143  10.198  18.830  0.00  0.00    +0.000 S 
ENDROOT
BRANCH   1   2
ATOM      2  C   UNL     1       0.466  10.761  18.704  0.00  0.00    +0.000 C 
ATOM      3  N   UNL     1      -0.353  10.076  17.955  0.00  0.00    +0.000 NA
ATOM      4  C   UNL     1      -1.703  10.467  17.920  0.00  0.00    +0.000 A 
ATOM      5  C   UNL     1      -2.575   9.860  17.009  0.00  0.00    +0.000 A 
ATOM      6  C   UNL     1      -3.918  10.239  16.932  0.00  0.00    +0.000 A 
ATOM      7  C   UNL     1      -4.419  11.224  17.782  0.00  0.00    +0.000 A 
ATOM      8  C   UNL     1      -3.572  11.825  18.707  0.00  0.00    +0.000 A 
ATOM      9  C   UNL     1      -2.217  11.454  18.770  0.00  0.00    +0.000 A 
ATOM     10  C   UNL     1      -1.288  12.179  19.682  0.00  0.00    +0.000 C 
ATOM     11  C   UNL     1      -1.414  11.906  21.169  0.00  0.00    +0.000 C 
ATOM     12  C   UNL     1      -0.057  12.422  21.530  0.00  0.00    +0.000 C 
ATOM     13  N   UNL     1       0.825  12.321  20.587  0.00  0.00    +0.000 NA
ATOM     14  N   UNL     1       0.125  11.876  19.467  0.00  0.00    +0.000 N 
ENDBRANCH   1   2
BRANCH   1  15
ATOM     15  C   UNL     1       2.008   8.473  18.281  0.00  0.00    +0.000 C 
BRANCH  15  17
ATOM     16  N   UNL     1       2.516   6.163  19.214  0.00  0.00    +0.000 N 
ATOM     17  C   UNL     1       2.029   7.475  19.462  0.00  0.00    +0.000 C 
ATOM     18  O   UNL     1       1.666   7.825  20.585  0.00  0.00    +0.000 OA
BRANCH  16  19
ATOM     19  C   UNL     1       3.123   5.786  17.906  0.00  0.00    +0.000 C 
ATOM     20  C   UNL     1       2.942   4.332  17.423  0.00  0.00    +0.000 C 
ATOM     21  C   UNL     1       4.075   3.474  17.966  0.00  0.00    +0.000 C 
ATOM     22  S   UNL     1       5.489   4.557  18.026  0.00  0.00    +0.000 S 
ATOM     23  O   UNL     1       6.279   4.335  16.830  0.00  0.00    +0.000 OA
ATOM     24  O   UNL     1       6.062   4.486  19.356  0.00  0.00    +0.000 OA
ATOM     25  C   UNL     1       4.620   6.100  17.843  0.00  0.00    +0.000 C 
ENDBRANCH  16  19
BRANCH  16  27
ATOM     26  C   UNL     1       1.418   4.300  20.708  0.00  0.00    +0.000 C 
ATOM     27  C   UNL     1       2.603   5.164  20.302  0.00  0.00    +0.000 C 
ENDBRANCH  16  27
ENDBRANCH  15  17
ENDBRANCH   1  15
TORSDOF 5
ENDMDL
MODEL 7
REMARK VINA RESULT:      -7.2      2.410      2.837
REMARK  Name = 
REMARK  6 active torsions:
REMARK  status: ('A' for Active; 'I' for Inactive)
REMARK    1  A    between atoms: C_1  and  C_2
REMARK    2  A    between atoms: C_2  and  N_3
REMARK    3  A    between atoms: N_3  and  C_21
REMARK    4  A    between atoms: C_4  and  C_6
REMARK    5  A    between atoms: C_6  and  S_7
REMARK    6  A    between atoms: S_7  and  C_8
REMARK                            x       y       z     vdW  Elec       q    Type
REMARK                         _______ _______ _______ _____ _____    ______ ____
ROOT
ATOM      1  S   UNL     1       2.331   9.868  18.247  0.00  0.00    +0.000 S 
ENDROOT
BRANCH   1   2
ATOM      2  C   UNL     1       0.696  10.548  18.352  0.00  0.00    +0.000 C 
ATOM      3  N   UNL     1      -0.279   9.881  17.801  0.00  0.00    +0.000 NA
ATOM      4  C   UNL     1      -1.588  10.372  17.956  0.00  0.00    +0.000 A 
ATOM      5  C   UNL     1      -2.637   9.776  17.247  0.00  0.00    +0.000 A 
ATOM      6  C   UNL     1      -3.947  10.251  17.360  0.00  0.00    +0.000 A 
ATOM      7  C   UNL     1      -4.233  11.325  18.203  0.00  0.00    +0.000 A 
ATOM      8  C   UNL     1      -3.206  11.917  18.929  0.00  0.00    +0.000 A 
ATOM      9  C   UNL     1      -1.887  11.448  18.799  0.00  0.00    +0.000 A 
ATOM     10  C   UNL     1      -0.773  12.157  19.490  0.00  0.00    +0.000 C 
ATOM     11  C   UNL     1      -0.666  11.992  20.995  0.00  0.00    +0.000 C 
ATOM     12  C   UNL     1       0.763  12.425  21.090  0.00  0.00    +0.000 C 
ATOM     13  N   UNL     1       1.467  12.194  20.027  0.00  0.00    +0.000 NA
ATOM     14  N   UNL     1       0.562  11.734  19.072  0.00  0.00    +0.000 N 
ENDBRANCH   1   2
BRANCH   1  15
ATOM     15  C   UNL     1       1.994   8.132  17.837  0.00  0.00    +0.000 C 
BRANCH  15  17
ATOM     16  N   UNL     1       3.429   6.180  18.610  0.00  0.00    +0.000 N 
ATOM     17  C   UNL     1       2.459   7.162  18.948  0.00  0.00    +0.000 C 
ATOM     18  O   UNL     1       2.022   7.267  20.094  0.00  0.00    +0.000 OA
BRANCH  16  19
ATOM     19  C   UNL     1       4.093   6.160  17.275  0.00  0.00    +0.000 C 
ATOM     20  C   UNL     1       4.472   4.787  16.683  0.00  0.00    +0.000 C 
ATOM     21  C   UNL     1       5.865   4.399  17.156  0.00  0.00    +0.000 C 
ATOM     22  S   UNL     1       6.752   5.938  17.296  0.00  0.00    +0.000 S 
ATOM     23  O   UNL     1       7.529   6.123  16.086  0.00  0.00    +0.000 OA
ATOM     24  O   UNL     1       7.350   6.002  18.616  0.00  0.00    +0.000 OA
ATOM     25  C   UNL     1       5.350   7.033  17.234  0.00  0.00    +0.000 C 
ENDBRANCH  16  19
BRANCH  16  27
ATOM     26  C   UNL     1       3.219   3.961  20.003  0.00  0.00    +0.000 C 
ATOM     27  C   UNL     1       3.951   5.242  19.628  0.00  0.00    +0.000 C 
ENDBRANCH  16  27
ENDBRANCH  15  17
ENDBRANCH   1  15
TORSDOF 5
ENDMDL
MODEL 8
REMARK VINA RESULT:      -7.2      2.186      3.148
REMARK  Name = 
REMARK  6 active torsions:
REMARK  status: ('A' for Active; 'I' for Inactive)
REMARK    1  A    between atoms: C_1  and  C_2
REMARK    2  A    between atoms: C_2  and  N_3
REMARK    3  A    between atoms: N_3  and  C_21
REMARK    4  A    between atoms: C_4  and  C_6
REMARK    5  A    between atoms: C_6  and  S_7
REMARK    6  A    between atoms: S_7  and  C_8
REMARK                            x       y       z     vdW  Elec       q    Type
REMARK                         _______ _______ _______ _____ _____    ______ ____
ROOT
ATOM      1  S   UNL     1       2.124   9.355  17.768  0.00  0.00    +0.000 S 
ENDROOT
BRANCH   1   2
ATOM      2  C   UNL     1       1.247  10.272  19.007  0.00  0.00    +0.000 C 
ATOM      3  N   UNL     1       0.784   9.619  20.036  0.00  0.00    +0.000 NA
ATOM      4  C   UNL     1       0.164  10.354  21.062  0.00  0.00    +0.000 A 
ATOM      5  C   UNL     1      -0.485   9.677  22.101  0.00  0.00    +0.000 A 
ATOM      6  C   UNL     1      -1.130  10.375  23.126  0.00  0.00    +0.000 A 
ATOM      7  C   UNL     1      -1.123  11.770  23.138  0.00  0.00    +0.000 A 
ATOM      8  C   UNL     1      -0.467  12.458  22.124  0.00  0.00    +0.000 A 
ATOM      9  C   UNL     1       0.166  11.754  21.085  0.00  0.00    +0.000 A 
ATOM     10  C   UNL     1       0.769  12.495  19.941  0.00  0.00    +0.000 C 
ATOM     11  C   UNL     1       2.063  13.245  20.198  0.00  0.00    +0.000 C 
ATOM     12  C   UNL     1       2.460  13.353  18.760  0.00  0.00    +0.000 C 
ATOM     13  N   UNL     1       2.014  12.398  18.006  0.00  0.00    +0.000 NA
ATOM     14  N   UNL     1       1.161  11.650  18.816  0.00  0.00    +0.000 N 
ENDBRANCH   1   2
BRANCH   1  15
ATOM     15  C   UNL     1       2.483   7.799  18.631  0.00  0.00    +0.000 C 
BRANCH  15  17
ATOM     16  N   UNL     1       3.341   5.506  17.942  0.00  0.00    +0.000 N 
ATOM     17  C   UNL     1       3.494   6.917  17.861  0.00  0.00    +0.000 C 
ATOM     18  O   UNL     1       4.379   7.430  17.176  0.00  0.00    +0.000 OA
BRANCH  16  19
ATOM     19  C   UNL     1       2.171   4.881  18.621  0.00  0.00    +0.000 C 
ATOM     20  C   UNL     1       2.283   4.602  20.134  0.00  0.00    +0.000 C 
ATOM     21  C   UNL     1       2.887   3.223  20.349  0.00  0.00    +0.000 C 
ATOM     22  S   UNL     1       2.300   2.241  18.982  0.00  0.00    +0.000 S 
ATOM     23  O   UNL     1       1.145   1.489  19.430  0.00  0.00    +0.000 OA
ATOM     24  O   UNL     1       3.442   1.604  18.355  0.00  0.00    +0.000 OA
ATOM     25  C   UNL     1       1.733   3.576  17.951  0.00  0.00    +0.000 C 
ENDBRANCH  16  19
BRANCH  16  27
ATOM     26  C   UNL     1       5.659   4.295  17.679  0.00  0.00    +0.000 C 
ATOM     27  C   UNL     1       4.246   4.598  17.202  0.00  0.00    +0.000 C 
ENDBRANCH  16  27
ENDBRANCH  15  17
ENDBRANCH   1  15
TORSDOF 5
ENDMDL
MODEL 9
REMARK VINA RESULT:      -7.2      3.570      9.006
REMARK  Name = 
REMARK  6 active torsions:
REMARK  status: ('A' for Active; 'I' for Inactive)
REMARK    1  A    between atoms: C_1  and  C_2
REMARK    2  A    between atoms: C_2  and  N_3
REMARK    3  A    between atoms: N_3  and  C_21
REMARK    4  A    between atoms: C_4  and  C_6
REMARK    5  A    between atoms: C_6  and  S_7
REMARK    6  A    between atoms: S_7  and  C_8
REMARK                            x       y       z     vdW  Elec       q    Type
REMARK                         _______ _______ _______ _____ _____    ______ ____
ROOT
ATOM      1  S   UNL     1       1.428   7.576  20.624  0.00  0.00    +0.000 S 
ENDROOT
BRANCH   1   2
ATOM      2  C   UNL     1       2.203   6.486  19.459  0.00  0.00    +0.000 C 
ATOM      3  N   UNL     1       3.090   6.991  18.648  0.00  0.00    +0.000 NA
ATOM      4  C   UNL     1       3.770   6.117  17.781  0.00  0.00    +0.000 A 
ATOM      5  C   UNL     1       4.608   6.639  16.791  0.00  0.00    +0.000 A 
ATOM      6  C   UNL     1       5.283   5.800  15.898  0.00  0.00    +0.000 A 
ATOM      7  C   UNL     1       5.143   4.416  15.994  0.00  0.00    +0.000 A 
ATOM      8  C   UNL     1       4.328   3.879  16.985  0.00  0.00    +0.000 A 
ATOM      9  C   UNL     1       3.638   4.726  17.870  0.00  0.00    +0.000 A 
ATOM     10  C   UNL     1       2.679   4.152  18.855  0.00  0.00    +0.000 C 
ATOM     11  C   UNL     1       3.259   3.410  20.045  0.00  0.00    +0.000 C 
ATOM     12  C   UNL     1       2.027   3.495  20.889  0.00  0.00    +0.000 C 
ATOM     13  N   UNL     1       1.279   4.525  20.646  0.00  0.00    +0.000 NA
ATOM     14  N   UNL     1       1.844   5.142  19.531  0.00  0.00    +0.000 N 
ENDBRANCH   1   2
BRANCH   1  15
ATOM     15  C   UNL     1       1.758   9.206  19.898  0.00  0.00    +0.000 C 
BRANCH  15  17
ATOM     16  N   UNL     1      -0.256  10.753  20.046  0.00  0.00    +0.000 N 
ATOM     17  C   UNL     1       0.496   9.835  19.263  0.00  0.00    +0.000 C 
ATOM     18  O   UNL     1       0.180   9.571  18.103  0.00  0.00    +0.000 OA
BRANCH  16  19
ATOM     19  C   UNL     1       0.217  11.214  21.382  0.00  0.00    +0.000 C 
ATOM     20  C   UNL     1      -0.440  10.590  22.631  0.00  0.00    +0.000 C 
ATOM     21  C   UNL     1      -1.670  11.400  23.012  0.00  0.00    +0.000 C 
ATOM     22  S   UNL     1      -1.274  13.081  22.570  0.00  0.00    +0.000 S 
ATOM     23  O   UNL     1      -0.811  13.763  23.762  0.00  0.00    +0.000 OA
ATOM     24  O   UNL     1      -2.350  13.602  21.749  0.00  0.00    +0.000 OA
ATOM     25  C   UNL     1       0.135  12.734  21.539  0.00  0.00    +0.000 C 
ENDBRANCH  16  19
BRANCH  16  27
ATOM     26  C   UNL     1      -1.389  12.309  18.257  0.00  0.00    +0.000 C 
ATOM     27  C   UNL     1      -1.453  11.424  19.493  0.00  0.00    +0.000 C 
ENDBRANCH  16  27
ENDBRANCH  15  17
ENDBRANCH   1  15
TORSDOF 5
ENDMDL
