MODEL 1
REMARK VINA RESULT:      -8.4      0.000      0.000
REMARK  Name = 
REMARK  4 active torsions:
REMARK  status: ('A' for Active; 'I' for Inactive)
REMARK    1  A    between atoms: C_1  and  O_2
REMARK    2  A    between atoms: O_2  and  C_3
REMARK    3  A    between atoms: C_13  and  C_15
REMARK    4  A    between atoms: C_19  and  N_20
REMARK                            x       y       z     vdW  Elec       q    Type
REMARK                         _______ _______ _______ _____ _____    ______ ____
ROOT
ATOM      1  C   UNL     1       5.971   5.046  15.250  0.00  0.00    +0.000 A 
ATOM      2  C   UNL     1       5.959   3.944  16.098  0.00  0.00    +0.000 A 
ATOM      3  C   UNL     1       5.256   4.004  17.295  0.00  0.00    +0.000 A 
ATOM      4  C   UNL     1       4.547   5.159  17.640  0.00  0.00    +0.000 A 
ATOM      5  C   UNL     1       3.821   5.173  18.826  0.00  0.00    +0.000 A 
ATOM      6  C   UNL     1       3.055   6.309  19.105  0.00  0.00    +0.000 A 
ATOM      7  C   UNL     1       2.126   6.685  20.093  0.00  0.00    +0.000 A 
ATOM      8  N   UNL     1       1.759   5.908  21.120  0.00  0.00    +0.000 N 
ATOM      9  N   UNL     1       1.606   7.879  19.868  0.00  0.00    +0.000 NA
ATOM     10  N   UNL     1       2.221   8.319  18.722  0.00  0.00    +0.000 N 
ATOM     11  C   UNL     1       1.849   9.582  18.220  0.00  0.00    +0.000 C 
ATOM     12  O   UNL     1       2.633  10.197  17.501  0.00  0.00    +0.000 OA
ATOM     13  C   UNL     1       3.116   7.379  18.224  0.00  0.00    +0.000 A 
ATOM     14  N   UNL     1       3.837   7.417  17.077  0.00  0.00    +0.000 NA
ATOM     15  C   UNL     1       4.531   6.294  16.797  0.00  0.00    +0.000 A 
ATOM     16  C   UNL     1       5.264   6.205  15.614  0.00  0.00    +0.000 A 
ATOM     17  H   UNL     1       1.956   4.915  21.128  0.00  0.00    +0.000 HD
ATOM     18  H   UNL     1       0.925   6.166  21.636  0.00  0.00    +0.000 HD
ENDROOT
BRANCH  11  19
ATOM     19  C   UNL     1       0.525  10.196  18.540  0.00  0.00    +0.000 A 
ATOM     20  C   UNL     1       0.397  11.095  19.606  0.00  0.00    +0.000 A 
ATOM     21  C   UNL     1      -0.855  11.639  19.918  0.00  0.00    +0.000 A 
ATOM     22  C   UNL     1      -1.982  11.294  19.166  0.00  0.00    +0.000 A 
ATOM     23  C   UNL     1      -1.844  10.421  18.082  0.00  0.00    +0.000 A 
ATOM     24  C   UNL     1      -0.593   9.889  17.752  0.00  0.00    +0.000 A 
BRANCH  23  25
ATOM     25  N   UNL     1      -3.019  10.041  17.288  0.00  0.00    +0.000 N 
ATOM     26  O   UNL     1      -2.828   9.617  16.140  0.00  0.00    +0.000 OA
ATOM     27  O   UNL     1      -4.136  10.171  17.813  0.00  0.00    +0.000 OA
ENDBRANCH  23  25
ENDBRANCH  11  19
BRANCH   1  29
ATOM     28  C   UNL     1       6.490   3.970  13.195  0.00  0.00    +0.000 C 
ATOM     29  O   UNL     1       6.630   5.103  14.051  0.00  0.00    +0.000 OA
ENDBRANCH   1  29
TORSDOF 3
ENDMDL
MODEL 2
REMARK VINA RESULT:      -8.2      2.514      8.147
REMARK  Name = 
REMARK  4 active torsions:
REMARK  status: ('A' for Active; 'I' for Inactive)
REMARK    1  A    between atoms: C_1  and  O_2
REMARK    2  A    between atoms: O_2  and  C_3
REMARK    3  A    between atoms: C_13  and  C_15
REMARK    4  A    between atoms: C_19  and  N_20
REMARK                            x       y       z     vdW  Elec       q    Type
REMARK                         _______ _______ _______ _____ _____    ______ ____
ROOT
ATOM      1  C   UNL     1      -0.058  11.368  20.967  0.00  0.00    +0.000 A 
ATOM      2  C   UNL     1      -0.568  10.665  22.052  0.00  0.00    +0.000 A 
ATOM      3  C   UNL     1      -0.291   9.310  22.186  0.00  0.00    +0.000 A 
ATOM      4  C   UNL     1       0.512   8.657  21.245  0.00  0.00    +0.000 A 
ATOM      5  C   UNL     1       0.804   7.309  21.429  0.00  0.00    +0.000 A 
ATOM      6  C   UNL     1       1.676   6.704  20.520  0.00  0.00    +0.000 A 
ATOM      7  C   UNL     1       2.300   5.448  20.398  0.00  0.00    +0.000 A 
ATOM      8  N   UNL     1       2.131   4.435  21.259  0.00  0.00    +0.000 N 
ATOM      9  N   UNL     1       3.120   5.390  19.364  0.00  0.00    +0.000 NA
ATOM     10  N   UNL     1       3.021   6.623  18.768  0.00  0.00    +0.000 N 
ATOM     11  C   UNL     1       3.810   6.866  17.627  0.00  0.00    +0.000 C 
ATOM     12  O   UNL     1       3.459   7.730  16.827  0.00  0.00    +0.000 OA
ATOM     13  C   UNL     1       2.144   7.458  19.453  0.00  0.00    +0.000 A 
ATOM     14  N   UNL     1       1.857   8.761  19.220  0.00  0.00    +0.000 NA
ATOM     15  C   UNL     1       1.054   9.345  20.134  0.00  0.00    +0.000 A 
ATOM     16  C   UNL     1       0.738  10.698  20.022  0.00  0.00    +0.000 A 
ATOM     17  H   UNL     1       1.723   4.582  22.173  0.00  0.00    +0.000 HD
ATOM     18  H   UNL     1       2.792   3.666  21.222  0.00  0.00    +0.000 HD
ENDROOT
BRANCH  11  19
ATOM     19  C   UNL     1       5.065   6.100  17.360  0.00  0.00    +0.000 A 
ATOM     20  C   UNL     1       5.893   5.703  18.417  0.00  0.00    +0.000 A 
ATOM     21  C   UNL     1       7.084   5.014  18.154  0.00  0.00    +0.000 A 
ATOM     22  C   UNL     1       7.450   4.714  16.839  0.00  0.00    +0.000 A 
ATOM     23  C   UNL     1       6.604   5.084  15.788  0.00  0.00    +0.000 A 
ATOM     24  C   UNL     1       5.404   5.755  16.044  0.00  0.00    +0.000 A 
BRANCH  23  25
ATOM     25  N   UNL     1       6.979   4.785  14.400  0.00  0.00    +0.000 N 
ATOM     26  O   UNL     1       6.388   3.859  13.829  0.00  0.00    +0.000 OA
ATOM     27  O   UNL     1       7.870   5.476  13.883  0.00  0.00    +0.000 OA
ENDBRANCH  23  25
ENDBRANCH  11  19
BRANCH   1  29
ATOM     28  C   UNL     1      -0.599  13.062  19.391  0.00  0.00    +0.000 C 
ATOM     29  O   UNL     1      -0.267  12.701  20.730  0.00  0.00    +0.000 OA
ENDBRANCH   1  29
TORSDOF 3
ENDMDL
MODEL 3
REMARK VINA RESULT:      -8.1      1.772      2.158
REMARK  Name = 
REMARK  4 active torsions:
REMARK  status: ('A' for Active; 'I' for Inactive)
REMARK    1  A    between atoms: C_1  and  O_2
REMARK    2  A    between atoms: O_2  and  C_3
REMARK    3  A    between atoms: C_13  and  C_15
REMARK    4  A    between atoms: C_19  and  N_20
REMARK                            x       y       z     vdW  Elec       q    Type
REMARK                         _______ _______ _______ _____ _____    ______ ____
ROOT
ATOM      1  C   UNL     1       5.983   5.076  15.173  0.00  0.00    +0.000 A 
ATOM      2  C   UNL     1       5.986   3.959  16.000  0.00  0.00    +0.000 A 
ATOM      3  C   UNL     1       5.294   3.993  17.205  0.00  0.00    +0.000 A 
ATOM      4  C   UNL     1       4.581   5.136  17.577  0.00  0.00    +0.000 A 
ATOM      5  C   UNL     1       3.866   5.125  18.770  0.00  0.00    +0.000 A 
ATOM      6  C   UNL     1       3.096   6.250  19.077  0.00  0.00    +0.000 A 
ATOM      7  C   UNL     1       2.173   6.602  20.080  0.00  0.00    +0.000 A 
ATOM      8  N   UNL     1       1.822   5.804  21.097  0.00  0.00    +0.000 N 
ATOM      9  N   UNL     1       1.644   7.797  19.882  0.00  0.00    +0.000 NA
ATOM     10  N   UNL     1       2.246   8.261  18.738  0.00  0.00    +0.000 N 
ATOM     11  C   UNL     1       1.861   9.531  18.263  0.00  0.00    +0.000 C 
ATOM     12  O   UNL     1       2.634  10.164  17.548  0.00  0.00    +0.000 OA
ATOM     13  C   UNL     1       3.142   7.336  18.215  0.00  0.00    +0.000 A 
ATOM     14  N   UNL     1       3.852   7.400  17.063  0.00  0.00    +0.000 NA
ATOM     15  C   UNL     1       4.550   6.287  16.755  0.00  0.00    +0.000 A 
ATOM     16  C   UNL     1       5.273   6.224  15.564  0.00  0.00    +0.000 A 
ATOM     17  H   UNL     1       2.025   4.812  21.084  0.00  0.00    +0.000 HD
ATOM     18  H   UNL     1       0.990   6.047  21.625  0.00  0.00    +0.000 HD
ENDROOT
BRANCH  11  19
ATOM     19  C   UNL     1       0.536  10.131  18.606  0.00  0.00    +0.000 A 
ATOM     20  C   UNL     1      -0.590   9.862  17.820  0.00  0.00    +0.000 A 
ATOM     21  C   UNL     1      -1.820  10.456  18.131  0.00  0.00    +0.000 A 
ATOM     22  C   UNL     1      -1.932  11.315  19.228  0.00  0.00    +0.000 A 
ATOM     23  C   UNL     1      -0.811  11.555  20.030  0.00  0.00    +0.000 A 
ATOM     24  C   UNL     1       0.416  10.951  19.737  0.00  0.00    +0.000 A 
BRANCH  23  25
ATOM     25  N   UNL     1      -0.909  12.463  21.180  0.00  0.00    +0.000 N 
ATOM     26  O   UNL     1      -0.054  12.361  22.070  0.00  0.00    +0.000 OA
ATOM     27  O   UNL     1      -1.846  13.276  21.194  0.00  0.00    +0.000 OA
ENDBRANCH  23  25
ENDBRANCH  11  19
BRANCH   1  29
ATOM     28  C   UNL     1       6.595   3.994  13.147  0.00  0.00    +0.000 C 
ATOM     29  O   UNL     1       6.631   5.159  13.969  0.00  0.00    +0.000 OA
ENDBRANCH   1  29
TORSDOF 3
ENDMDL
MODEL 4
REMARK VINA RESULT:      -7.8      2.748      8.352
REMARK  Name = 
REMARK  4 active torsions:
REMARK  status: ('A' for Active; 'I' for Inactive)
REMARK    1  A    between atoms: C_1  and  O_2
REMARK    2  A    between atoms: O_2  and  C_3
REMARK    3  A    between atoms: C_13  and  C_15
REMARK    4  A    between atoms: C_19  and  N_20
REMARK                            x       y       z     vdW  Elec       q    Type
REMARK                         _______ _______ _______ _____ _____    ______ ____
ROOT
ATOM      1  C   UNL     1       0.014  11.413  21.541  0.00  0.00    +0.000 A 
ATOM      2  C   UNL     1      -0.398  10.600  22.590  0.00  0.00    +0.000 A 
ATOM      3  C   UNL     1      -0.123   9.239  22.555  0.00  0.00    +0.000 A 
ATOM      4  C   UNL     1       0.582   8.688  21.480  0.00  0.00    +0.000 A 
ATOM      5  C   UNL     1       0.877   7.329  21.494  0.00  0.00    +0.000 A 
ATOM      6  C   UNL     1       1.653   6.822  20.449  0.00  0.00    +0.000 A 
ATOM      7  C   UNL     1       2.251   5.586  20.138  0.00  0.00    +0.000 A 
ATOM      8  N   UNL     1       2.155   4.489  20.901  0.00  0.00    +0.000 N 
ATOM      9  N   UNL     1       2.970   5.636  19.031  0.00  0.00    +0.000 NA
ATOM     10  N   UNL     1       2.827   6.926  18.579  0.00  0.00    +0.000 N 
ATOM     11  C   UNL     1       3.508   7.287  17.399  0.00  0.00    +0.000 C 
ATOM     12  O   UNL     1       3.091   8.229  16.730  0.00  0.00    +0.000 OA
ATOM     13  C   UNL     1       2.026   7.684  19.426  0.00  0.00    +0.000 A 
ATOM     14  N   UNL     1       1.731   9.004  19.359  0.00  0.00    +0.000 NA
ATOM     15  C   UNL     1       1.023   9.489  20.400  0.00  0.00    +0.000 A 
ATOM     16  C   UNL     1       0.712  10.846  20.460  0.00  0.00    +0.000 A 
ATOM     17  H   UNL     1       1.836   4.539  21.860  0.00  0.00    +0.000 HD
ATOM     18  H   UNL     1       2.802   3.728  20.721  0.00  0.00    +0.000 HD
ENDROOT
BRANCH  11  19
ATOM     19  C   UNL     1       4.724   6.553  16.937  0.00  0.00    +0.000 A 
ATOM     20  C   UNL     1       4.920   6.287  15.576  0.00  0.00    +0.000 A 
ATOM     21  C   UNL     1       6.047   5.569  15.157  0.00  0.00    +0.000 A 
ATOM     22  C   UNL     1       6.985   5.119  16.090  0.00  0.00    +0.000 A 
ATOM     23  C   UNL     1       6.802   5.414  17.446  0.00  0.00    +0.000 A 
ATOM     24  C   UNL     1       5.689   6.147  17.870  0.00  0.00    +0.000 A 
BRANCH  23  25
ATOM     25  N   UNL     1       7.772   4.940  18.440  0.00  0.00    +0.000 N 
ATOM     26  O   UNL     1       8.585   4.075  18.086  0.00  0.00    +0.000 OA
ATOM     27  O   UNL     1       7.717   5.429  19.579  0.00  0.00    +0.000 OA
ENDBRANCH  23  25
ENDBRANCH  11  19
BRANCH   1  29
ATOM     28  C   UNL     1      -1.189  13.298  22.348  0.00  0.00    +0.000 C 
ATOM     29  O   UNL     1      -0.204  12.763  21.465  0.00  0.00    +0.000 OA
ENDBRANCH   1  29
TORSDOF 3
ENDMDL
MODEL 5
REMARK VINA RESULT:      -7.2      3.840      5.601
REMARK  Name = 
REMARK  4 active torsions:
REMARK  status: ('A' for Active; 'I' for Inactive)
REMARK    1  A    between atoms: C_1  and  O_2
REMARK    2  A    between atoms: O_2  and  C_3
REMARK    3  A    between atoms: C_13  and  C_15
REMARK    4  A    between atoms: C_19  and  N_20
REMARK                            x       y       z     vdW  Elec       q    Type
REMARK                         _______ _______ _______ _____ _____    ______ ____
ROOT
ATOM      1  C   UNL     1       3.613   6.364  19.186  0.00  0.00    +0.000 A 
ATOM      2  C   UNL     1       3.664   6.744  17.850  0.00  0.00    +0.000 A 
ATOM      3  C   UNL     1       2.812   7.737  17.384  0.00  0.00    +0.000 A 
ATOM      4  C   UNL     1       1.920   8.368  18.256  0.00  0.00    +0.000 A 
ATOM      5  C   UNL     1       1.108   9.388  17.769  0.00  0.00    +0.000 A 
ATOM      6  C   UNL     1       0.287  10.057  18.680  0.00  0.00    +0.000 A 
ATOM      7  C   UNL     1      -0.573  11.170  18.640  0.00  0.00    +0.000 A 
ATOM      8  N   UNL     1      -0.815  11.898  17.542  0.00  0.00    +0.000 N 
ATOM      9  N   UNL     1      -1.082  11.459  19.825  0.00  0.00    +0.000 NA
ATOM     10  N   UNL     1      -0.571  10.501  20.668  0.00  0.00    +0.000 N 
ATOM     11  C   UNL     1      -0.933  10.564  22.028  0.00  0.00    +0.000 C 
ATOM     12  O   UNL     1      -0.883   9.543  22.710  0.00  0.00    +0.000 OA
ATOM     13  C   UNL     1       0.276   9.624  19.999  0.00  0.00    +0.000 A 
ATOM     14  N   UNL     1       1.025   8.615  20.505  0.00  0.00    +0.000 NA
ATOM     15  C   UNL     1       1.849   8.013  19.624  0.00  0.00    +0.000 A 
ATOM     16  C   UNL     1       2.704   6.998  20.051  0.00  0.00    +0.000 A 
ATOM     17  H   UNL     1      -0.222  11.833  16.724  0.00  0.00    +0.000 HD
ATOM     18  H   UNL     1      -1.254  12.805  17.661  0.00  0.00    +0.000 HD
ENDROOT
BRANCH  11  19
ATOM     19  C   UNL     1      -1.377  11.840  22.666  0.00  0.00    +0.000 A 
ATOM     20  C   UNL     1      -0.529  12.953  22.695  0.00  0.00    +0.000 A 
ATOM     21  C   UNL     1      -0.943  14.134  23.324  0.00  0.00    +0.000 A 
ATOM     22  C   UNL     1      -2.204  14.211  23.922  0.00  0.00    +0.000 A 
ATOM     23  C   UNL     1      -3.061  13.106  23.863  0.00  0.00    +0.000 A 
ATOM     24  C   UNL     1      -2.662  11.930  23.220  0.00  0.00    +0.000 A 
BRANCH  23  25
ATOM     25  N   UNL     1      -4.385  13.167  24.495  0.00  0.00    +0.000 N 
ATOM     26  O   UNL     1      -4.698  12.251  25.268  0.00  0.00    +0.000 OA
ATOM     27  O   UNL     1      -5.114  14.130  24.214  0.00  0.00    +0.000 OA
ENDBRANCH  23  25
ENDBRANCH  11  19
BRANCH   1  29
ATOM     28  C   UNL     1       5.602   5.068  19.061  0.00  0.00    +0.000 C 
ATOM     29  O   UNL     1       4.399   5.397  19.754  0.00  0.00    +0.000 OA
ENDBRANCH   1  29
TORSDOF 3
ENDMDL
MODEL 6
REMARK VINA RESULT:      -7.2      3.741      9.435
REMARK  Name = 
REMARK  4 active torsions:
REMARK  status: ('A' for Active; 'I' for Inactive)
REMARK    1  A    between atoms: C_1  and  O_2
REMARK    2  A    between atoms: O_2  and  C_3
REMARK    3  A    between atoms: C_13  and  C_15
REMARK    4  A    between atoms: C_19  and  N_20
REMARK                            x       y       z     vdW  Elec       q    Type
REMARK                         _______ _______ _______ _____ _____    ______ ____
ROOT
ATOM      1  C   UNL     1      -3.260  13.164  23.427  0.00  0.00    +0.000 A 
ATOM      2  C   UNL     1      -4.017  13.634  22.361  0.00  0.00    +0.000 A 
ATOM      3  C   UNL     1      -3.687  13.260  21.064  0.00  0.00    +0.000 A 
ATOM      4  C   UNL     1      -2.611  12.398  20.830  0.00  0.00    +0.000 A 
ATOM      5  C   UNL     1      -2.331  12.010  19.524  0.00  0.00    +0.000 A 
ATOM      6  C   UNL     1      -1.303  11.083  19.328  0.00  0.00    +0.000 A 
ATOM      7  C   UNL     1      -0.781  10.366  18.235  0.00  0.00    +0.000 A 
ATOM      8  N   UNL     1      -1.234  10.471  16.978  0.00  0.00    +0.000 N 
ATOM      9  N   UNL     1       0.178   9.530  18.591  0.00  0.00    +0.000 NA
ATOM     10  N   UNL     1       0.317   9.713  19.945  0.00  0.00    +0.000 N 
ATOM     11  C   UNL     1       1.275   8.928  20.618  0.00  0.00    +0.000 C 
ATOM     12  O   UNL     1       1.742   9.331  21.680  0.00  0.00    +0.000 OA
ATOM     13  C   UNL     1      -0.579  10.658  20.433  0.00  0.00    +0.000 A 
ATOM     14  N   UNL     1      -0.798  11.038  21.714  0.00  0.00    +0.000 NA
ATOM     15  C   UNL     1      -1.825  11.894  21.893  0.00  0.00    +0.000 A 
ATOM     16  C   UNL     1      -2.173  12.307  23.178  0.00  0.00    +0.000 A 
ATOM     17  H   UNL     1      -2.127  10.901  16.773  0.00  0.00    +0.000 HD
ATOM     18  H   UNL     1      -0.960   9.754  16.314  0.00  0.00    +0.000 HD
ENDROOT
BRANCH  11  19
ATOM     19  C   UNL     1       1.740   7.617  20.074  0.00  0.00    +0.000 A 
ATOM     20  C   UNL     1       2.416   7.555  18.850  0.00  0.00    +0.000 A 
ATOM     21  C   UNL     1       2.819   6.317  18.333  0.00  0.00    +0.000 A 
ATOM     22  C   UNL     1       2.554   5.138  19.036  0.00  0.00    +0.000 A 
ATOM     23  C   UNL     1       1.906   5.207  20.274  0.00  0.00    +0.000 A 
ATOM     24  C   UNL     1       1.518   6.441  20.806  0.00  0.00    +0.000 A 
BRANCH  23  25
ATOM     25  N   UNL     1       1.611   3.978  21.020  0.00  0.00    +0.000 N 
ATOM     26  O   UNL     1       2.284   3.742  22.033  0.00  0.00    +0.000 OA
ATOM     27  O   UNL     1       0.707   3.245  20.590  0.00  0.00    +0.000 OA
ENDBRANCH  23  25
ENDBRANCH  11  19
BRANCH   1  29
ATOM     28  C   UNL     1      -3.124  14.782  25.163  0.00  0.00    +0.000 C 
ATOM     29  O   UNL     1      -3.488  13.467  24.743  0.00  0.00    +0.000 OA
ENDBRANCH   1  29
TORSDOF 3
ENDMDL
MODEL 7
REMARK VINA RESULT:      -7.2      4.288      6.346
REMARK  Name = 
REMARK  4 active torsions:
REMARK  status: ('A' for Active; 'I' for Inactive)
REMARK    1  A    between atoms: C_1  and  O_2
REMARK    2  A    between atoms: O_2  and  C_3
REMARK    3  A    between atoms: C_13  and  C_15
REMARK    4  A    between atoms: C_19  and  N_20
REMARK                            x       y       z     vdW  Elec       q    Type
REMARK                         _______ _______ _______ _____ _____    ______ ____
ROOT
ATOM      1  C   UNL     1       2.950   6.820  19.398  0.00  0.00    +0.000 A 
ATOM      2  C   UNL     1       3.002   7.195  18.061  0.00  0.00    +0.000 A 
ATOM      3  C   UNL     1       2.212   8.244  17.609  0.00  0.00    +0.000 A 
ATOM      4  C   UNL     1       1.382   8.935  18.496  0.00  0.00    +0.000 A 
ATOM      5  C   UNL     1       0.633  10.008  18.021  0.00  0.00    +0.000 A 
ATOM      6  C   UNL     1      -0.124  10.732  18.946  0.00  0.00    +0.000 A 
ATOM      7  C   UNL     1      -0.906  11.901  18.920  0.00  0.00    +0.000 A 
ATOM      8  N   UNL     1      -1.117  12.644  17.825  0.00  0.00    +0.000 N 
ATOM      9  N   UNL     1      -1.373  12.225  20.114  0.00  0.00    +0.000 NA
ATOM     10  N   UNL     1      -0.914  11.235  20.948  0.00  0.00    +0.000 N 
ATOM     11  C   UNL     1      -1.246  11.323  22.315  0.00  0.00    +0.000 C 
ATOM     12  O   UNL     1      -1.254  10.301  22.998  0.00  0.00    +0.000 OA
ATOM     13  C   UNL     1      -0.141  10.302  20.266  0.00  0.00    +0.000 A 
ATOM     14  N   UNL     1       0.546   9.244  20.760  0.00  0.00    +0.000 NA
ATOM     15  C   UNL     1       1.311   8.586  19.865  0.00  0.00    +0.000 A 
ATOM     16  C   UNL     1       2.102   7.515  20.278  0.00  0.00    +0.000 A 
ATOM     17  H   UNL     1      -0.545  12.538  16.997  0.00  0.00    +0.000 HD
ATOM     18  H   UNL     1      -1.491  13.579  17.950  0.00  0.00    +0.000 HD
ENDROOT
BRANCH  11  19
ATOM     19  C   UNL     1      -1.590  12.626  22.958  0.00  0.00    +0.000 A 
ATOM     20  C   UNL     1      -2.808  12.787  23.629  0.00  0.00    +0.000 A 
ATOM     21  C   UNL     1      -3.136  14.024  24.200  0.00  0.00    +0.000 A 
ATOM     22  C   UNL     1      -2.250  15.101  24.109  0.00  0.00    +0.000 A 
ATOM     23  C   UNL     1      -1.020  14.926  23.466  0.00  0.00    +0.000 A 
ATOM     24  C   UNL     1      -0.678  13.689  22.910  0.00  0.00    +0.000 A 
BRANCH  23  25
ATOM     25  N   UNL     1      -0.082  16.050  23.352  0.00  0.00    +0.000 N 
ATOM     26  O   UNL     1       1.118  15.787  23.194  0.00  0.00    +0.000 OA
ATOM     27  O   UNL     1      -0.547  17.198  23.426  0.00  0.00    +0.000 OA
ENDBRANCH  23  25
ENDBRANCH  11  19
BRANCH   1  29
ATOM     28  C   UNL     1       4.525   5.070  19.069  0.00  0.00    +0.000 C 
ATOM     29  O   UNL     1       3.678   5.802  19.954  0.00  0.00    +0.000 OA
ENDBRANCH   1  29
TORSDOF 3
ENDMDL
MODEL 8
REMARK VINA RESULT:      -7.2      2.549      8.224
REMARK  Name = 
REMARK  4 active torsions:
REMARK  status: ('A' for Active; 'I' for Inactive)
REMARK    1  A    between atoms: C_1  and  O_2
REMARK    2  A    between atoms: O_2  and  C_3
REMARK    3  A    between atoms: C_13  and  C_15
REMARK    4  A    between atoms: C_19  and  N_20
REMARK                            x       y       z     vdW  Elec       q    Type
REMARK                         _______ _______ _______ _____ _____    ______ ____
ROOT
ATOM      1  C   UNL     1      -0.076  11.914  20.228  0.00  0.00    +0.000 A 
ATOM      2  C   UNL     1      -0.525  11.347  21.415  0.00  0.00    +0.000 A 
ATOM      3  C   UNL     1      -0.225  10.021  21.701  0.00  0.00    +0.000 A 
ATOM      4  C   UNL     1       0.541   9.263  20.811  0.00  0.00    +0.000 A 
ATOM      5  C   UNL     1       0.859   7.950  21.145  0.00  0.00    +0.000 A 
ATOM      6  C   UNL     1       1.695   7.243  20.276  0.00  0.00    +0.000 A 
ATOM      7  C   UNL     1       2.329   5.986  20.281  0.00  0.00    +0.000 A 
ATOM      8  N   UNL     1       2.214   5.087  21.267  0.00  0.00    +0.000 N 
ATOM      9  N   UNL     1       3.100   5.806  19.223  0.00  0.00    +0.000 NA
ATOM     10  N   UNL     1       2.956   6.955  18.485  0.00  0.00    +0.000 N 
ATOM     11  C   UNL     1       3.688   7.060  17.285  0.00  0.00    +0.000 C 
ATOM     12  O   UNL     1       3.288   7.815  16.402  0.00  0.00    +0.000 OA
ATOM     13  C   UNL     1       2.102   7.862  19.103  0.00  0.00    +0.000 A 
ATOM     14  N   UNL     1       1.787   9.124  18.726  0.00  0.00    +0.000 NA
ATOM     15  C   UNL     1       1.021   9.811  19.598  0.00  0.00    +0.000 A 
ATOM     16  C   UNL     1       0.683  11.138  19.335  0.00  0.00    +0.000 A 
ATOM     17  H   UNL     1       1.848   5.342  22.175  0.00  0.00    +0.000 HD
ATOM     18  H   UNL     1       2.883   4.324  21.293  0.00  0.00    +0.000 HD
ENDROOT
BRANCH  11  19
ATOM     19  C   UNL     1       4.938   6.275  17.054  0.00  0.00    +0.000 A 
ATOM     20  C   UNL     1       5.232   5.764  15.785  0.00  0.00    +0.000 A 
ATOM     21  C   UNL     1       6.390   5.001  15.588  0.00  0.00    +0.000 A 
ATOM     22  C   UNL     1       7.261   4.750  16.652  0.00  0.00    +0.000 A 
ATOM     23  C   UNL     1       6.980   5.291  17.912  0.00  0.00    +0.000 A 
ATOM     24  C   UNL     1       5.835   6.069  18.112  0.00  0.00    +0.000 A 
BRANCH  23  25
ATOM     25  N   UNL     1       7.878   5.029  19.043  0.00  0.00    +0.000 N 
ATOM     26  O   UNL     1       8.896   4.356  18.828  0.00  0.00    +0.000 OA
ATOM     27  O   UNL     1       7.563   5.493  20.149  0.00  0.00    +0.000 OA
ENDBRANCH  23  25
ENDBRANCH  11  19
BRANCH   1  29
ATOM     28  C   UNL     1       0.384  13.657  18.679  0.00  0.00    +0.000 C 
ATOM     29  O   UNL     1      -0.313  13.206  19.839  0.00  0.00    +0.000 OA
ENDBRANCH   1  29
TORSDOF 3
ENDMDL
MODEL 9
REMARK VINA RESULT:      -7.1      4.224      6.377
REMARK  Name = 
REMARK  4 active torsions:
REMARK  status: ('A' for Active; 'I' for Inactive)
REMARK    1  A    between atoms: C_1  and  O_2
REMARK    2  A    between atoms: O_2  and  C_3
REMARK    3  A    between atoms: C_13  and  C_15
REMARK    4  A    between atoms: C_19  and  N_20
REMARK                            x       y       z     vdW  Elec       q    Type
REMARK                         _______ _______ _______ _____ _____    ______ ____
ROOT
ATOM      1  C   UNL     1       2.649   6.852  19.532  0.00  0.00    +0.000 A 
ATOM      2  C   UNL     1       2.726   7.141  18.175  0.00  0.00    +0.000 A 
ATOM      3  C   UNL     1       2.015   8.216  17.658  0.00  0.00    +0.000 A 
ATOM      4  C   UNL     1       1.240   9.020  18.499  0.00  0.00    +0.000 A 
ATOM      5  C   UNL     1       0.572  10.114  17.959  0.00  0.00    +0.000 A 
ATOM      6  C   UNL     1      -0.126  10.947  18.836  0.00  0.00    +0.000 A 
ATOM      7  C   UNL     1      -0.819  12.169  18.737  0.00  0.00    +0.000 A 
ATOM      8  N   UNL     1      -0.977  12.857  17.598  0.00  0.00    +0.000 N 
ATOM      9  N   UNL     1      -1.258  12.597  19.907  0.00  0.00    +0.000 NA
ATOM     10  N   UNL     1      -0.872  11.629  20.801  0.00  0.00    +0.000 N 
ATOM     11  C   UNL     1      -1.194  11.824  22.160  0.00  0.00    +0.000 C 
ATOM     12  O   UNL     1      -1.277  10.849  22.903  0.00  0.00    +0.000 OA
ATOM     13  C   UNL     1      -0.173  10.601  20.179  0.00  0.00    +0.000 A 
ATOM     14  N   UNL     1       0.435   9.527  20.739  0.00  0.00    +0.000 NA
ATOM     15  C   UNL     1       1.147   8.760  19.887  0.00  0.00    +0.000 A 
ATOM     16  C   UNL     1       1.857   7.661  20.366  0.00  0.00    +0.000 A 
ATOM     17  H   UNL     1      -0.416  12.658  16.779  0.00  0.00    +0.000 HD
ATOM     18  H   UNL     1      -1.279  13.823  17.666  0.00  0.00    +0.000 HD
ENDROOT
BRANCH  11  19
ATOM     19  C   UNL     1      -1.439  13.186  22.722  0.00  0.00    +0.000 A 
ATOM     20  C   UNL     1      -0.399  14.119  22.803  0.00  0.00    +0.000 A 
ATOM     21  C   UNL     1      -0.632  15.382  23.363  0.00  0.00    +0.000 A 
ATOM     22  C   UNL     1      -1.902  15.721  23.838  0.00  0.00    +0.000 A 
ATOM     23  C   UNL     1      -2.946  14.797  23.725  0.00  0.00    +0.000 A 
ATOM     24  C   UNL     1      -2.726  13.541  23.151  0.00  0.00    +0.000 A 
BRANCH  23  25
ATOM     25  N   UNL     1      -4.284  15.133  24.229  0.00  0.00    +0.000 N 
ATOM     26  O   UNL     1      -5.233  14.427  23.861  0.00  0.00    +0.000 OA
ATOM     27  O   UNL     1      -4.385  16.107  24.991  0.00  0.00    +0.000 OA
ENDBRANCH  23  25
ENDBRANCH  11  19
BRANCH   1  29
ATOM     28  C   UNL     1       4.340   5.187  19.406  0.00  0.00    +0.000 C 
ATOM     29  O   UNL     1       3.300   5.818  20.151  0.00  0.00    +0.000 OA
ENDBRANCH   1  29
TORSDOF 3
ENDMDL
