MODEL 1
REMARK VINA RESULT:      -8.4      0.000      0.000
REMARK  Name = 
REMARK  7 active torsions:
REMARK  status: ('A' for Active; 'I' for Inactive)
REMARK    1  A    between atoms: C_2  and  C_3
REMARK    2  A    between atoms: C_3  and  O_4
REMARK    3  A    between atoms: O_4  and  C_5
REMARK    4  A    between atoms: N_12  and  C_13
REMARK    5  A    between atoms: C_13  and  C_14
REMARK    6  A    between atoms: C_14  and  C_15
REMARK    7  A    between atoms: C_14  and  N_22
REMARK                            x       y       z     vdW  Elec       q    Type
REMARK                         _______ _______ _______ _____ _____    ______ ____
ROOT
ATOM      1  C   UNL     1       3.335   5.847  17.711  0.00  0.00    +0.000 C 
ENDROOT
BRANCH   1   4
ATOM      2  O   UNL     1       5.323   7.105  16.155  0.00  0.00    +0.000 OA
ATOM      3  C   UNL     1       5.600   6.051  16.724  0.00  0.00    +0.000 C 
ATOM      4  N   UNL     1       4.684   5.342  17.473  0.00  0.00    +0.000 N 
ATOM      5  H   UNL     1       5.007   4.570  18.040  0.00  0.00    +0.000 HD
BRANCH   3   6
ATOM      6  C   UNL     1       6.978   5.399  16.628  0.00  0.00    +0.000 C 
BRANCH   6   7
ATOM      7  O   UNL     1       7.598   5.693  15.380  0.00  0.00    +0.000 OA
BRANCH   7   8
ATOM      8  C   UNL     1       7.170   4.956  14.303  0.00  0.00    +0.000 A 
ATOM      9  C   UNL     1       7.662   5.059  13.000  0.00  0.00    +0.000 A 
ATOM     10  C   UNL     1       7.134   4.259  11.982  0.00  0.00    +0.000 A 
ATOM     11  C   UNL     1       6.115   3.361  12.269  0.00  0.00    +0.000 A 
ATOM     12  F   UNL     1       5.611   2.599  11.289  0.00  0.00    +0.000 F 
ATOM     13  C   UNL     1       5.617   3.241  13.560  0.00  0.00    +0.000 A 
ATOM     14  C   UNL     1       6.145   4.042  14.578  0.00  0.00    +0.000 A 
ENDBRANCH   7   8
ENDBRANCH   6   7
ENDBRANCH   3   6
ENDBRANCH   1   4
BRANCH   1  15
ATOM     15  C   UNL     1       3.005   6.235  19.200  0.00  0.00    +0.000 C 
BRANCH  15  16
ATOM     16  C   UNL     1       2.271   7.586  19.195  0.00  0.00    +0.000 A 
ATOM     17  C   UNL     1       1.597   8.056  20.336  0.00  0.00    +0.000 A 
ATOM     18  C   UNL     1       0.883   9.256  20.301  0.00  0.00    +0.000 A 
ATOM     19  C   UNL     1       0.856  10.010  19.131  0.00  0.00    +0.000 A 
ATOM     20 CL   UNL     1      -0.054  11.469  19.076  0.00  0.00    +0.000 Cl
ATOM     21  C   UNL     1       1.555   9.587  18.003  0.00  0.00    +0.000 A 
ATOM     22  C   UNL     1       2.259   8.379  18.033  0.00  0.00    +0.000 A 
ENDBRANCH  15  16
BRANCH  15  23
ATOM     23  N   UNL     1       2.220   5.169  19.913  0.00  0.00    +0.000 NA
ATOM     24  C   UNL     1       1.533   4.279  18.950  0.00  0.00    +0.000 C 
ATOM     25  C   UNL     1       0.698   3.202  19.649  0.00  0.00    +0.000 C 
ATOM     26  C   UNL     1       1.545   2.369  20.597  0.00  0.00    +0.000 C 
ATOM     27  C   UNL     1       2.307   3.282  21.545  0.00  0.00    +0.000 C 
ATOM     28  C   UNL     1       3.095   4.352  20.785  0.00  0.00    +0.000 C 
ENDBRANCH  15  23
ENDBRANCH   1  15
TORSDOF 7
ENDMDL
MODEL 2
REMARK VINA RESULT:      -8.3      0.356      1.358
REMARK  Name = 
REMARK  7 active torsions:
REMARK  status: ('A' for Active; 'I' for Inactive)
REMARK    1  A    between atoms: C_2  and  C_3
REMARK    2  A    between atoms: C_3  and  O_4
REMARK    3  A    between atoms: O_4  and  C_5
REMARK    4  A    between atoms: N_12  and  C_13
REMARK    5  A    between atoms: C_13  and  C_14
REMARK    6  A    between atoms: C_14  and  C_15
REMARK    7  A    between atoms: C_14  and  N_22
REMARK                            x       y       z     vdW  Elec       q    Type
REMARK                         _______ _______ _______ _____ _____    ______ ____
ROOT
ATOM      1  C   UNL     1       3.183   5.868  17.669  0.00  0.00    +0.000 C 
ENDROOT
BRANCH   1   4
ATOM      2  O   UNL     1       5.506   7.393  17.189  0.00  0.00    +0.000 OA
ATOM      3  C   UNL     1       5.601   6.167  17.208  0.00  0.00    +0.000 C 
ATOM      4  N   UNL     1       4.514   5.337  17.395  0.00  0.00    +0.000 N 
ATOM      5  H   UNL     1       4.673   4.351  17.555  0.00  0.00    +0.000 HD
BRANCH   3   6
ATOM      6  C   UNL     1       6.924   5.437  16.990  0.00  0.00    +0.000 C 
BRANCH   6   7
ATOM      7  O   UNL     1       7.475   5.746  15.713  0.00  0.00    +0.000 OA
BRANCH   7   8
ATOM      8  C   UNL     1       7.036   4.979  14.663  0.00  0.00    +0.000 A 
ATOM      9  C   UNL     1       6.023   4.018  14.726  0.00  0.00    +0.000 A 
ATOM     10  C   UNL     1       5.672   3.290  13.586  0.00  0.00    +0.000 A 
ATOM     11  C   UNL     1       6.336   3.520  12.388  0.00  0.00    +0.000 A 
ATOM     12  F   UNL     1       5.996   2.816  11.300  0.00  0.00    +0.000 F 
ATOM     13  C   UNL     1       7.341   4.474  12.305  0.00  0.00    +0.000 A 
ATOM     14  C   UNL     1       7.693   5.203  13.446  0.00  0.00    +0.000 A 
ENDBRANCH   7   8
ENDBRANCH   6   7
ENDBRANCH   3   6
ENDBRANCH   1   4
BRANCH   1  15
ATOM     15  C   UNL     1       2.889   6.228  19.172  0.00  0.00    +0.000 C 
BRANCH  15  16
ATOM     16  C   UNL     1       2.197   7.601  19.213  0.00  0.00    +0.000 A 
ATOM     17  C   UNL     1       2.189   8.449  18.092  0.00  0.00    +0.000 A 
ATOM     18  C   UNL     1       1.610   9.718  18.161  0.00  0.00    +0.000 A 
ATOM     19  C   UNL     1       1.012  10.143  19.345  0.00  0.00    +0.000 A 
ATOM     20 CL   UNL     1       0.334  11.721  19.442  0.00  0.00    +0.000 Cl
ATOM     21  C   UNL     1       0.968   9.301  20.453  0.00  0.00    +0.000 A 
ATOM     22  C   UNL     1       1.559   8.035  20.389  0.00  0.00    +0.000 A 
ENDBRANCH  15  16
BRANCH  15  23
ATOM     23  N   UNL     1       2.083   5.169  19.873  0.00  0.00    +0.000 NA
ATOM     24  C   UNL     1       1.576   4.163  18.912  0.00  0.00    +0.000 C 
ATOM     25  C   UNL     1       0.723   3.090  19.593  0.00  0.00    +0.000 C 
ATOM     26  C   UNL     1       1.489   2.391  20.704  0.00  0.00    +0.000 C 
ATOM     27  C   UNL     1       2.072   3.423  21.657  0.00  0.00    +0.000 C 
ATOM     28  C   UNL     1       2.887   4.483  20.910  0.00  0.00    +0.000 C 
ENDBRANCH  15  23
ENDBRANCH   1  15
TORSDOF 7
ENDMDL
MODEL 3
REMARK VINA RESULT:      -8.3      4.482      7.994
REMARK  Name = 
REMARK  7 active torsions:
REMARK  status: ('A' for Active; 'I' for Inactive)
REMARK    1  A    between atoms: C_2  and  C_3
REMARK    2  A    between atoms: C_3  and  O_4
REMARK    3  A    between atoms: O_4  and  C_5
REMARK    4  A    between atoms: N_12  and  C_13
REMARK    5  A    between atoms: C_13  and  C_14
REMARK    6  A    between atoms: C_14  and  C_15
REMARK    7  A    between atoms: C_14  and  N_22
REMARK                            x       y       z     vdW  Elec       q    Type
REMARK                         _______ _______ _______ _____ _____    ______ ____
ROOT
ATOM      1  C   UNL     1       3.017   6.901  19.288  0.00  0.00    +0.000 C 
ENDROOT
BRANCH   1   4
ATOM      2  O   UNL     1       1.176   7.956  21.145  0.00  0.00    +0.000 OA
ATOM      3  C   UNL     1       1.320   8.531  20.068  0.00  0.00    +0.000 C 
ATOM      4  N   UNL     1       2.166   8.068  19.081  0.00  0.00    +0.000 N 
ATOM      5  H   UNL     1       2.359   8.660  18.284  0.00  0.00    +0.000 HD
BRANCH   3   6
ATOM      6  C   UNL     1       0.548   9.796  19.697  0.00  0.00    +0.000 C 
BRANCH   6   7
ATOM      7  O   UNL     1       0.095   9.743  18.348  0.00  0.00    +0.000 OA
BRANCH   7   8
ATOM      8  C   UNL     1      -1.131  10.308  18.100  0.00  0.00    +0.000 A 
ATOM      9  C   UNL     1      -1.718  11.335  18.843  0.00  0.00    +0.000 A 
ATOM     10  C   UNL     1      -2.982  11.821  18.497  0.00  0.00    +0.000 A 
ATOM     11  C   UNL     1      -3.658  11.277  17.413  0.00  0.00    +0.000 A 
ATOM     12  F   UNL     1      -4.870  11.745  17.088  0.00  0.00    +0.000 F 
ATOM     13  C   UNL     1      -3.088  10.260  16.659  0.00  0.00    +0.000 A 
ATOM     14  C   UNL     1      -1.823   9.773  17.005  0.00  0.00    +0.000 A 
ENDBRANCH   7   8
ENDBRANCH   6   7
ENDBRANCH   3   6
ENDBRANCH   1   4
BRANCH   1  15
ATOM     15  C   UNL     1       2.663   5.637  18.421  0.00  0.00    +0.000 C 
BRANCH  15  16
ATOM     16  C   UNL     1       3.759   5.457  17.357  0.00  0.00    +0.000 A 
ATOM     17  C   UNL     1       4.138   4.181  16.907  0.00  0.00    +0.000 A 
ATOM     18  C   UNL     1       5.177   4.028  15.986  0.00  0.00    +0.000 A 
ATOM     19  C   UNL     1       5.832   5.153  15.489  0.00  0.00    +0.000 A 
ATOM     20 CL   UNL     1       7.136   4.962  14.384  0.00  0.00    +0.000 Cl
ATOM     21  C   UNL     1       5.441   6.429  15.886  0.00  0.00    +0.000 A 
ATOM     22  C   UNL     1       4.410   6.582  16.818  0.00  0.00    +0.000 A 
ENDBRANCH  15  16
BRANCH  15  23
ATOM     23  N   UNL     1       2.477   4.399  19.254  0.00  0.00    +0.000 NA
ATOM     24  C   UNL     1       2.556   4.713  20.699  0.00  0.00    +0.000 C 
ATOM     25  C   UNL     1       2.403   3.465  21.573  0.00  0.00    +0.000 C 
ATOM     26  C   UNL     1       1.102   2.737  21.281  0.00  0.00    +0.000 C 
ATOM     27  C   UNL     1       0.982   2.472  19.788  0.00  0.00    +0.000 C 
ATOM     28  C   UNL     1       1.174   3.753  18.972  0.00  0.00    +0.000 C 
ENDBRANCH  15  23
ENDBRANCH   1  15
TORSDOF 7
ENDMDL
MODEL 4
REMARK VINA RESULT:      -8.2      0.581      1.109
REMARK  Name = 
REMARK  7 active torsions:
REMARK  status: ('A' for Active; 'I' for Inactive)
REMARK    1  A    between atoms: C_2  and  C_3
REMARK    2  A    between atoms: C_3  and  O_4
REMARK    3  A    between atoms: O_4  and  C_5
REMARK    4  A    between atoms: N_12  and  C_13
REMARK    5  A    between atoms: C_13  and  C_14
REMARK    6  A    between atoms: C_14  and  C_15
REMARK    7  A    between atoms: C_14  and  N_22
REMARK                            x       y       z     vdW  Elec       q    Type
REMARK                         _______ _______ _______ _____ _____    ______ ____
ROOT
ATOM      1  C   UNL     1       3.452   6.117  17.839  0.00  0.00    +0.000 C 
ENDROOT
BRANCH   1   4
ATOM      2  O   UNL     1       5.065   7.122  15.755  0.00  0.00    +0.000 OA
ATOM      3  C   UNL     1       5.612   6.570  16.708  0.00  0.00    +0.000 C 
ATOM      4  N   UNL     1       4.905   6.012  17.754  0.00  0.00    +0.000 N 
ATOM      5  H   UNL     1       5.407   5.711  18.578  0.00  0.00    +0.000 HD
BRANCH   3   6
ATOM      6  C   UNL     1       7.127   6.411  16.813  0.00  0.00    +0.000 C 
BRANCH   6   7
ATOM      7  O   UNL     1       7.535   5.107  16.410  0.00  0.00    +0.000 OA
BRANCH   7   8
ATOM      8  C   UNL     1       7.133   4.708  15.159  0.00  0.00    +0.000 A 
ATOM      9  C   UNL     1       7.673   5.154  13.951  0.00  0.00    +0.000 A 
ATOM     10  C   UNL     1       7.169   4.680  12.736  0.00  0.00    +0.000 A 
ATOM     11  C   UNL     1       6.124   3.766  12.733  0.00  0.00    +0.000 A 
ATOM     12  F   UNL     1       5.644   3.318  11.565  0.00  0.00    +0.000 F 
ATOM     13  C   UNL     1       5.578   3.307  13.924  0.00  0.00    +0.000 A 
ATOM     14  C   UNL     1       6.083   3.782  15.139  0.00  0.00    +0.000 A 
ENDBRANCH   7   8
ENDBRANCH   6   7
ENDBRANCH   3   6
ENDBRANCH   1   4
BRANCH   1  15
ATOM     15  C   UNL     1       2.867   6.332  19.283  0.00  0.00    +0.000 C 
BRANCH  15  16
ATOM     16  C   UNL     1       2.119   7.675  19.307  0.00  0.00    +0.000 A 
ATOM     17  C   UNL     1       2.035   8.486  18.162  0.00  0.00    +0.000 A 
ATOM     18  C   UNL     1       1.405   9.731  18.213  0.00  0.00    +0.000 A 
ATOM     19  C   UNL     1       0.831  10.168  19.404  0.00  0.00    +0.000 A 
ATOM     20 CL   UNL     1       0.090  11.719  19.477  0.00  0.00    +0.000 Cl
ATOM     21  C   UNL     1       0.862   9.361  20.538  0.00  0.00    +0.000 A 
ATOM     22  C   UNL     1       1.504   8.120  20.492  0.00  0.00    +0.000 A 
ENDBRANCH  15  16
BRANCH  15  23
ATOM     23  N   UNL     1       1.994   5.192  19.728  0.00  0.00    +0.000 NA
ATOM     24  C   UNL     1       1.829   4.194  18.646  0.00  0.00    +0.000 C 
ATOM     25  C   UNL     1       0.916   3.036  19.059  0.00  0.00    +0.000 C 
ATOM     26  C   UNL     1       1.424   2.347  20.314  0.00  0.00    +0.000 C 
ATOM     27  C   UNL     1       1.661   3.376  21.408  0.00  0.00    +0.000 C 
ATOM     28  C   UNL     1       2.555   4.519  20.922  0.00  0.00    +0.000 C 
ENDBRANCH  15  23
ENDBRANCH   1  15
TORSDOF 7
ENDMDL
MODEL 5
REMARK VINA RESULT:      -8.2      0.674      1.167
REMARK  Name = 
REMARK  7 active torsions:
REMARK  status: ('A' for Active; 'I' for Inactive)
REMARK    1  A    between atoms: C_2  and  C_3
REMARK    2  A    between atoms: C_3  and  O_4
REMARK    3  A    between atoms: O_4  and  C_5
REMARK    4  A    between atoms: N_12  and  C_13
REMARK    5  A    between atoms: C_13  and  C_14
REMARK    6  A    between atoms: C_14  and  C_15
REMARK    7  A    between atoms: C_14  and  N_22
REMARK                            x       y       z     vdW  Elec       q    Type
REMARK                         _______ _______ _______ _____ _____    ______ ____
ROOT
ATOM      1  C   UNL     1       3.468   6.240  17.897  0.00  0.00    +0.000 C 
ENDROOT
BRANCH   1   4
ATOM      2  O   UNL     1       5.169   7.177  15.852  0.00  0.00    +0.000 OA
ATOM      3  C   UNL     1       5.672   6.621  16.827  0.00  0.00    +0.000 C 
ATOM      4  N   UNL     1       4.919   6.095  17.857  0.00  0.00    +0.000 N 
ATOM      5  H   UNL     1       5.388   5.789  18.699  0.00  0.00    +0.000 HD
BRANCH   3   6
ATOM      6  C   UNL     1       7.178   6.423  16.979  0.00  0.00    +0.000 C 
BRANCH   6   7
ATOM      7  O   UNL     1       7.565   5.108  16.591  0.00  0.00    +0.000 OA
BRANCH   7   8
ATOM      8  C   UNL     1       7.070   4.663  15.391  0.00  0.00    +0.000 A 
ATOM      9  C   UNL     1       6.022   3.753  15.230  0.00  0.00    +0.000 A 
ATOM     10  C   UNL     1       5.615   3.366  13.950  0.00  0.00    +0.000 A 
ATOM     11  C   UNL     1       6.259   3.885  12.835  0.00  0.00    +0.000 A 
ATOM     12  F   UNL     1       5.866   3.508  11.611  0.00  0.00    +0.000 F 
ATOM     13  C   UNL     1       7.299   4.794  12.975  0.00  0.00    +0.000 A 
ATOM     14  C   UNL     1       7.707   5.182  14.255  0.00  0.00    +0.000 A 
ENDBRANCH   7   8
ENDBRANCH   6   7
ENDBRANCH   3   6
ENDBRANCH   1   4
BRANCH   1  15
ATOM     15  C   UNL     1       2.834   6.368  19.332  0.00  0.00    +0.000 C 
BRANCH  15  16
ATOM     16  C   UNL     1       2.073   7.702  19.406  0.00  0.00    +0.000 A 
ATOM     17  C   UNL     1       1.479   8.139  20.602  0.00  0.00    +0.000 A 
ATOM     18  C   UNL     1       0.738   9.323  20.641  0.00  0.00    +0.000 A 
ATOM     19  C   UNL     1       0.605  10.094  19.489  0.00  0.00    +0.000 A 
ATOM     20 CL   UNL     1      -0.339  11.531  19.528  0.00  0.00    +0.000 Cl
ATOM     21  C   UNL     1       1.225   9.704  18.305  0.00  0.00    +0.000 A 
ATOM     22  C   UNL     1       1.955   8.512  18.262  0.00  0.00    +0.000 A 
ENDBRANCH  15  16
BRANCH  15  23
ATOM     23  N   UNL     1       1.958   5.198  19.683  0.00  0.00    +0.000 NA
ATOM     24  C   UNL     1       1.878   4.236  18.560  0.00  0.00    +0.000 C 
ATOM     25  C   UNL     1       0.965   3.049  18.876  0.00  0.00    +0.000 C 
ATOM     26  C   UNL     1       1.410   2.325  20.136  0.00  0.00    +0.000 C 
ATOM     27  C   UNL     1       1.560   3.319  21.277  0.00  0.00    +0.000 C 
ATOM     28  C   UNL     1       2.459   4.494  20.885  0.00  0.00    +0.000 C 
ENDBRANCH  15  23
ENDBRANCH   1  15
TORSDOF 7
ENDMDL
MODEL 6
REMARK VINA RESULT:      -8.2      4.658      8.619
REMARK  Name = 
REMARK  7 active torsions:
REMARK  status: ('A' for Active; 'I' for Inactive)
REMARK    1  A    between atoms: C_2  and  C_3
REMARK    2  A    between atoms: C_3  and  O_4
REMARK    3  A    between atoms: O_4  and  C_5
REMARK    4  A    between atoms: N_12  and  C_13
REMARK    5  A    between atoms: C_13  and  C_14
REMARK    6  A    between atoms: C_14  and  C_15
REMARK    7  A    between atoms: C_14  and  N_22
REMARK                            x       y       z     vdW  Elec       q    Type
REMARK                         _______ _______ _______ _____ _____    ______ ____
ROOT
ATOM      1  C   UNL     1       3.233   6.864  19.192  0.00  0.00    +0.000 C 
ENDROOT
BRANCH   1   4
ATOM      2  O   UNL     1       2.372   8.940  17.488  0.00  0.00    +0.000 OA
ATOM      3  C   UNL     1       1.793   8.782  18.561  0.00  0.00    +0.000 C 
ATOM      4  N   UNL     1       2.168   7.820  19.477  0.00  0.00    +0.000 N 
ATOM      5  H   UNL     1       1.564   7.635  20.267  0.00  0.00    +0.000 HD
BRANCH   3   6
ATOM      6  C   UNL     1       0.624   9.657  19.007  0.00  0.00    +0.000 C 
BRANCH   6   7
ATOM      7  O   UNL     1       1.015  10.542  20.052  0.00  0.00    +0.000 OA
BRANCH   7   8
ATOM      8  C   UNL     1       0.028  10.911  20.932  0.00  0.00    +0.000 A 
ATOM      9  C   UNL     1      -0.922  11.913  20.715  0.00  0.00    +0.000 A 
ATOM     10  C   UNL     1      -1.874  12.206  21.696  0.00  0.00    +0.000 A 
ATOM     11  C   UNL     1      -1.871  11.501  22.892  0.00  0.00    +0.000 A 
ATOM     12  F   UNL     1      -2.784  11.789  23.829  0.00  0.00    +0.000 F 
ATOM     13  C   UNL     1      -0.938  10.499  23.124  0.00  0.00    +0.000 A 
ATOM     14  C   UNL     1       0.014  10.206  22.142  0.00  0.00    +0.000 A 
ENDBRANCH   7   8
ENDBRANCH   6   7
ENDBRANCH   3   6
ENDBRANCH   1   4
BRANCH   1  15
ATOM     15  C   UNL     1       2.822   5.629  18.308  0.00  0.00    +0.000 C 
BRANCH  15  16
ATOM     16  C   UNL     1       3.915   5.408  17.248  0.00  0.00    +0.000 A 
ATOM     17  C   UNL     1       4.295   4.115  16.849  0.00  0.00    +0.000 A 
ATOM     18  C   UNL     1       5.331   3.927  15.932  0.00  0.00    +0.000 A 
ATOM     19  C   UNL     1       5.981   5.031  15.385  0.00  0.00    +0.000 A 
ATOM     20 CL   UNL     1       7.282   4.798  14.284  0.00  0.00    +0.000 Cl
ATOM     21  C   UNL     1       5.589   6.321  15.731  0.00  0.00    +0.000 A 
ATOM     22  C   UNL     1       4.561   6.511  16.660  0.00  0.00    +0.000 A 
ENDBRANCH  15  16
BRANCH  15  23
ATOM     23  N   UNL     1       2.570   4.393  19.125  0.00  0.00    +0.000 NA
ATOM     24  C   UNL     1       2.736   4.666  20.571  0.00  0.00    +0.000 C 
ATOM     25  C   UNL     1       2.519   3.416  21.427  0.00  0.00    +0.000 C 
ATOM     26  C   UNL     1       1.151   2.803  21.179  0.00  0.00    +0.000 C 
ATOM     27  C   UNL     1       0.946   2.582  19.689  0.00  0.00    +0.000 C 
ATOM     28  C   UNL     1       1.208   3.861  18.889  0.00  0.00    +0.000 C 
ENDBRANCH  15  23
ENDBRANCH   1  15
TORSDOF 7
ENDMDL
MODEL 7
REMARK VINA RESULT:      -8.1      4.710      8.098
REMARK  Name = 
REMARK  7 active torsions:
REMARK  status: ('A' for Active; 'I' for Inactive)
REMARK    1  A    between atoms: C_2  and  C_3
REMARK    2  A    between atoms: C_3  and  O_4
REMARK    3  A    between atoms: O_4  and  C_5
REMARK    4  A    between atoms: N_12  and  C_13
REMARK    5  A    between atoms: C_13  and  C_14
REMARK    6  A    between atoms: C_14  and  C_15
REMARK    7  A    between atoms: C_14  and  N_22
REMARK                            x       y       z     vdW  Elec       q    Type
REMARK                         _______ _______ _______ _____ _____    ______ ____
ROOT
ATOM      1  C   UNL     1       2.718   7.047  18.812  0.00  0.00    +0.000 C 
ENDROOT
BRANCH   1   4
ATOM      2  O   UNL     1       1.226   8.908  20.316  0.00  0.00    +0.000 OA
ATOM      3  C   UNL     1       1.170   8.963  19.089  0.00  0.00    +0.000 C 
ATOM      4  N   UNL     1       1.832   8.071  18.270  0.00  0.00    +0.000 N 
ATOM      5  H   UNL     1       1.873   8.257  17.277  0.00  0.00    +0.000 HD
BRANCH   3   6
ATOM      6  C   UNL     1       0.331  10.001  18.347  0.00  0.00    +0.000 C 
BRANCH   6   7
ATOM      7  O   UNL     1      -0.590   9.375  17.458  0.00  0.00    +0.000 OA
BRANCH   7   8
ATOM      8  C   UNL     1      -1.767  10.046  17.237  0.00  0.00    +0.000 A 
ATOM      9  C   UNL     1      -2.459  10.096  16.025  0.00  0.00    +0.000 A 
ATOM     10  C   UNL     1      -3.647  10.825  15.922  0.00  0.00    +0.000 A 
ATOM     11  C   UNL     1      -4.138  11.506  17.028  0.00  0.00    +0.000 A 
ATOM     12  F   UNL     1      -5.275  12.205  16.922  0.00  0.00    +0.000 F 
ATOM     13  C   UNL     1      -3.466  11.463  18.243  0.00  0.00    +0.000 A 
ATOM     14  C   UNL     1      -2.277  10.733  18.346  0.00  0.00    +0.000 A 
ENDBRANCH   7   8
ENDBRANCH   6   7
ENDBRANCH   3   6
ENDBRANCH   1   4
BRANCH   1  15
ATOM     15  C   UNL     1       2.603   5.625  18.149  0.00  0.00    +0.000 C 
BRANCH  15  16
ATOM     16  C   UNL     1       3.799   5.435  17.201  0.00  0.00    +0.000 A 
ATOM     17  C   UNL     1       4.203   4.156  16.782  0.00  0.00    +0.000 A 
ATOM     18  C   UNL     1       5.328   3.994  15.970  0.00  0.00    +0.000 A 
ATOM     19  C   UNL     1       6.045   5.111  15.549  0.00  0.00    +0.000 A 
ATOM     20 CL   UNL     1       7.452   4.908  14.581  0.00  0.00    +0.000 Cl
ATOM     21  C   UNL     1       5.635   6.390  15.915  0.00  0.00    +0.000 A 
ATOM     22  C   UNL     1       4.517   6.553  16.739  0.00  0.00    +0.000 A 
ENDBRANCH  15  16
BRANCH  15  23
ATOM     23  N   UNL     1       2.507   4.520  19.165  0.00  0.00    +0.000 NA
ATOM     24  C   UNL     1       2.268   5.063  20.521  0.00  0.00    +0.000 C 
ATOM     25  C   UNL     1       2.199   3.962  21.583  0.00  0.00    +0.000 C 
ATOM     26  C   UNL     1       1.131   2.934  21.251  0.00  0.00    +0.000 C 
ATOM     27  C   UNL     1       1.330   2.422  19.833  0.00  0.00    +0.000 C 
ATOM     28  C   UNL     1       1.420   3.573  18.827  0.00  0.00    +0.000 C 
ENDBRANCH  15  23
ENDBRANCH   1  15
TORSDOF 7
ENDMDL
MODEL 8
REMARK VINA RESULT:      -8.1      4.519      8.110
REMARK  Name = 
REMARK  7 active torsions:
REMARK  status: ('A' for Active; 'I' for Inactive)
REMARK    1  A    between atoms: C_2  and  C_3
REMARK    2  A    between atoms: C_3  and  O_4
REMARK    3  A    between atoms: O_4  and  C_5
REMARK    4  A    between atoms: N_12  and  C_13
REMARK    5  A    between atoms: C_13  and  C_14
REMARK    6  A    between atoms: C_14  and  C_15
REMARK    7  A    between atoms: C_14  and  N_22
REMARK                            x       y       z     vdW  Elec       q    Type
REMARK                         _______ _______ _______ _____ _____    ______ ____
ROOT
ATOM      1  C   UNL     1       3.049   6.697  19.268  0.00  0.00    +0.000 C 
ENDROOT
BRANCH   1   4
ATOM      2  O   UNL     1       2.579   8.846  17.502  0.00  0.00    +0.000 OA
ATOM      3  C   UNL     1       1.831   8.703  18.467  0.00  0.00    +0.000 C 
ATOM      4  N   UNL     1       2.004   7.707  19.407  0.00  0.00    +0.000 N 
ATOM      5  H   UNL     1       1.275   7.544  20.088  0.00  0.00    +0.000 HD
BRANCH   3   6
ATOM      6  C   UNL     1       0.654   9.636  18.745  0.00  0.00    +0.000 C 
BRANCH   6   7
ATOM      7  O   UNL     1      -0.238   9.681  17.635  0.00  0.00    +0.000 OA
BRANCH   7   8
ATOM      8  C   UNL     1      -1.429  10.330  17.844  0.00  0.00    +0.000 A 
ATOM      9  C   UNL     1      -1.675  11.280  18.839  0.00  0.00    +0.000 A 
ATOM     10  C   UNL     1      -2.939  11.864  18.959  0.00  0.00    +0.000 A 
ATOM     11  C   UNL     1      -3.955  11.496  18.087  0.00  0.00    +0.000 A 
ATOM     12  F   UNL     1      -5.165  12.058  18.209  0.00  0.00    +0.000 F 
ATOM     13  C   UNL     1      -3.728  10.558  17.089  0.00  0.00    +0.000 A 
ATOM     14  C   UNL     1      -2.463   9.972  16.969  0.00  0.00    +0.000 A 
ENDBRANCH   7   8
ENDBRANCH   6   7
ENDBRANCH   3   6
ENDBRANCH   1   4
BRANCH   1  15
ATOM     15  C   UNL     1       2.702   5.482  18.331  0.00  0.00    +0.000 C 
BRANCH  15  16
ATOM     16  C   UNL     1       3.847   5.312  17.317  0.00  0.00    +0.000 A 
ATOM     17  C   UNL     1       4.667   6.394  16.952  0.00  0.00    +0.000 A 
ATOM     18  C   UNL     1       5.663   6.240  15.986  0.00  0.00    +0.000 A 
ATOM     19  C   UNL     1       5.865   4.997  15.391  0.00  0.00    +0.000 A 
ATOM     20 CL   UNL     1       7.066   4.817  14.173  0.00  0.00    +0.000 Cl
ATOM     21  C   UNL     1       5.094   3.901  15.772  0.00  0.00    +0.000 A 
ATOM     22  C   UNL     1       4.088   4.057  16.729  0.00  0.00    +0.000 A 
ENDBRANCH  15  16
BRANCH  15  23
ATOM     23  N   UNL     1       2.436   4.218  19.099  0.00  0.00    +0.000 NA
ATOM     24  C   UNL     1       3.497   3.971  20.103  0.00  0.00    +0.000 C 
ATOM     25  C   UNL     1       3.270   2.671  20.879  0.00  0.00    +0.000 C 
ATOM     26  C   UNL     1       1.912   2.659  21.561  0.00  0.00    +0.000 C 
ATOM     27  C   UNL     1       0.824   2.980  20.548  0.00  0.00    +0.000 C 
ATOM     28  C   UNL     1       1.126   4.273  19.787  0.00  0.00    +0.000 C 
ENDBRANCH  15  23
ENDBRANCH   1  15
TORSDOF 7
ENDMDL
MODEL 9
REMARK VINA RESULT:      -8.0      1.281      1.865
REMARK  Name = 
REMARK  7 active torsions:
REMARK  status: ('A' for Active; 'I' for Inactive)
REMARK    1  A    between atoms: C_2  and  C_3
REMARK    2  A    between atoms: C_3  and  O_4
REMARK    3  A    between atoms: O_4  and  C_5
REMARK    4  A    between atoms: N_12  and  C_13
REMARK    5  A    between atoms: C_13  and  C_14
REMARK    6  A    between atoms: C_14  and  C_15
REMARK    7  A    between atoms: C_14  and  N_22
REMARK                            x       y       z     vdW  Elec       q    Type
REMARK                         _______ _______ _______ _____ _____    ______ ____
ROOT
ATOM      1  C   UNL     1       5.178   5.797  19.456  0.00  0.00    +0.000 C 
ENDROOT
BRANCH   1   4
ATOM      2  O   UNL     1       7.091   6.853  17.673  0.00  0.00    +0.000 OA
ATOM      3  C   UNL     1       6.764   5.674  17.554  0.00  0.00    +0.000 C 
ATOM      4  N   UNL     1       5.808   5.080  18.353  0.00  0.00    +0.000 N 
ATOM      5  H   UNL     1       5.692   4.076  18.312  0.00  0.00    +0.000 HD
BRANCH   3   6
ATOM      6  C   UNL     1       7.356   4.756  16.487  0.00  0.00    +0.000 C 
BRANCH   6   7
ATOM      7  O   UNL     1       7.446   5.423  15.231  0.00  0.00    +0.000 OA
BRANCH   7   8
ATOM      8  C   UNL     1       6.906   4.762  14.156  0.00  0.00    +0.000 A 
ATOM      9  C   UNL     1       7.499   4.636  12.897  0.00  0.00    +0.000 A 
ATOM     10  C   UNL     1       6.842   3.946  11.874  0.00  0.00    +0.000 A 
ATOM     11  C   UNL     1       5.593   3.387  12.111  0.00  0.00    +0.000 A 
ATOM     12  F   UNL     1       4.967   2.728  11.126  0.00  0.00    +0.000 F 
ATOM     13  C   UNL     1       4.991   3.496  13.357  0.00  0.00    +0.000 A 
ATOM     14  C   UNL     1       5.648   4.187  14.381  0.00  0.00    +0.000 A 
ENDBRANCH   7   8
ENDBRANCH   6   7
ENDBRANCH   3   6
ENDBRANCH   1   4
BRANCH   1  15
ATOM     15  C   UNL     1       3.647   5.505  19.673  0.00  0.00    +0.000 C 
BRANCH  15  16
ATOM     16  C   UNL     1       2.857   6.775  19.314  0.00  0.00    +0.000 A 
ATOM     17  C   UNL     1       2.939   7.349  18.034  0.00  0.00    +0.000 A 
ATOM     18  C   UNL     1       2.265   8.536  17.739  0.00  0.00    +0.000 A 
ATOM     19  C   UNL     1       1.483   9.148  18.716  0.00  0.00    +0.000 A 
ATOM     20 CL   UNL     1       0.684  10.631  18.365  0.00  0.00    +0.000 Cl
ATOM     21  C   UNL     1       1.351   8.572  19.976  0.00  0.00    +0.000 A 
ATOM     22  C   UNL     1       2.036   7.391  20.276  0.00  0.00    +0.000 A 
ENDBRANCH  15  16
BRANCH  15  23
ATOM     23  N   UNL     1       3.172   4.307  18.899  0.00  0.00    +0.000 NA
ATOM     24  C   UNL     1       3.799   3.064  19.402  0.00  0.00    +0.000 C 
ATOM     25  C   UNL     1       3.360   1.830  18.610  0.00  0.00    +0.000 C 
ATOM     26  C   UNL     1       1.848   1.676  18.614  0.00  0.00    +0.000 C 
ATOM     27  C   UNL     1       1.195   2.973  18.163  0.00  0.00    +0.000 C 
ATOM     28  C   UNL     1       1.700   4.169  18.974  0.00  0.00    +0.000 C 
ENDBRANCH  15  23
ENDBRANCH   1  15
TORSDOF 7
ENDMDL
