MODEL 1
REMARK VINA RESULT:      -6.4      0.000      0.000
REMARK  Name = 
REMARK  11 active torsions:
REMARK  status: ('A' for Active; 'I' for Inactive)
REMARK    1  A    between atoms: C_1  and  C_2
REMARK    2  A    between atoms: C_2  and  C_3
REMARK    3  A    between atoms: N_5  and  C_6
REMARK    4  A    between atoms: N_5  and  C_12
REMARK    5  A    between atoms: C_12  and  C_13
REMARK    6  A    between atoms: C_13  and  O_15
REMARK    7  A    between atoms: O_15  and  C_16
REMARK    8  A    between atoms: N_19  and  C_20
REMARK    9  A    between atoms: C_20  and  C_21
REMARK   10  A    between atoms: C_21  and  C_22
REMARK   11  A    between atoms: C_22  and  O_24
REMARK                            x       y       z     vdW  Elec       q    Type
REMARK                         _______ _______ _______ _____ _____    ______ ____
ROOT
ATOM      1  C   UNL     1       6.104   5.576  17.183  0.00  0.00    +0.000 C 
ATOM      2  C   UNL     1       6.242   6.487  15.932  0.00  0.00    +0.000 C 
ATOM      3  C   UNL     1       5.599   5.889  14.687  0.00  0.00    +0.000 C 
ATOM      4  N   UNL     1       6.135   4.555  14.361  0.00  0.00    +0.000 NA
ATOM      5  C   UNL     1       6.097   3.655  15.528  0.00  0.00    +0.000 C 
ATOM      6  C   UNL     1       6.796   4.254  16.754  0.00  0.00    +0.000 C 
ENDROOT
BRANCH   1   9
ATOM      7  C   UNL     1       3.757   6.335  17.888  0.00  0.00    +0.000 C 
ATOM      8  O   UNL     1       4.003   7.520  17.641  0.00  0.00    +0.000 OA
ATOM      9  N   UNL     1       4.676   5.297  17.655  0.00  0.00    +0.000 N 
BRANCH   9  10
ATOM     10  C   UNL     1       4.360   3.977  18.124  0.00  0.00    +0.000 A 
ATOM     11  C   UNL     1       3.515   3.157  17.358  0.00  0.00    +0.000 A 
ATOM     12  C   UNL     1       3.054   1.938  17.855  0.00  0.00    +0.000 A 
ATOM     13  C   UNL     1       3.453   1.509  19.117  0.00  0.00    +0.000 A 
ATOM     14  C   UNL     1       4.334   2.287  19.867  0.00  0.00    +0.000 A 
ATOM     15  C   UNL     1       4.794   3.515  19.371  0.00  0.00    +0.000 A 
ENDBRANCH   9  10
BRANCH   7  17
ATOM     16  C   UNL     1       2.228   6.241  19.923  0.00  0.00    +0.000 C 
ATOM     17  C   UNL     1       2.378   5.963  18.436  0.00  0.00    +0.000 C 
ENDBRANCH   7  17
ENDBRANCH   1   9
BRANCH   1  18
ATOM     18  C   UNL     1       6.882   6.333  18.291  0.00  0.00    +0.000 C 
ATOM     19  O   UNL     1       7.178   5.869  19.386  0.00  0.00    +0.000 OA
BRANCH  18  20
ATOM     20  O   UNL     1       7.125   7.631  17.935  0.00  0.00    +0.000 OA
ATOM     21  C   UNL     1       8.387   8.142  18.372  0.00  0.00    +0.000 C 
ENDBRANCH  18  20
ENDBRANCH   1  18
BRANCH   4  22
ATOM     22  C   UNL     1       5.371   3.936  13.249  0.00  0.00    +0.000 C 
BRANCH  22  23
ATOM     23  C   UNL     1       6.261   3.247  12.213  0.00  0.00    +0.000 C 
BRANCH  23  24
ATOM     24  C   UNL     1       5.484   2.220  11.429  0.00  0.00    +0.000 C 
ATOM     25  O   UNL     1       5.896   1.121  11.094  0.00  0.00    +0.000 OA
BRANCH  24  26
ATOM     26  O   UNL     1       4.232   2.644  11.134  0.00  0.00    +0.000 OA
ATOM     27  H   UNL     1       3.640   1.932  10.824  0.00  0.00    +0.000 HD
ENDBRANCH  24  26
ENDBRANCH  23  24
ENDBRANCH  22  23
ENDBRANCH   4  22
TORSDOF 9
ENDMDL
MODEL 2
REMARK VINA RESULT:      -6.4      2.802      6.793
REMARK  Name = 
REMARK  11 active torsions:
REMARK  status: ('A' for Active; 'I' for Inactive)
REMARK    1  A    between atoms: C_1  and  C_2
REMARK    2  A    between atoms: C_2  and  C_3
REMARK    3  A    between atoms: N_5  and  C_6
REMARK    4  A    between atoms: N_5  and  C_12
REMARK    5  A    between atoms: C_12  and  C_13
REMARK    6  A    between atoms: C_13  and  O_15
REMARK    7  A    between atoms: O_15  and  C_16
REMARK    8  A    between atoms: N_19  and  C_20
REMARK    9  A    between atoms: C_20  and  C_21
REMARK   10  A    between atoms: C_21  and  C_22
REMARK   11  A    between atoms: C_22  and  O_24
REMARK                            x       y       z     vdW  Elec       q    Type
REMARK                         _______ _______ _______ _____ _____    ______ ____
ROOT
ATOM      1  C   UNL     1       3.647   4.564  18.925  0.00  0.00    +0.000 C 
ATOM      2  C   UNL     1       2.184   4.515  18.403  0.00  0.00    +0.000 C 
ATOM      3  C   UNL     1       1.776   5.777  17.655  0.00  0.00    +0.000 C 
ATOM      4  N   UNL     1       1.945   6.994  18.469  0.00  0.00    +0.000 NA
ATOM      5  C   UNL     1       3.296   7.072  19.054  0.00  0.00    +0.000 C 
ATOM      6  C   UNL     1       3.666   5.813  19.847  0.00  0.00    +0.000 C 
ENDROOT
BRANCH   1   9
ATOM      7  C   UNL     1       4.832   3.760  16.797  0.00  0.00    +0.000 C 
ATOM      8  O   UNL     1       4.001   2.867  16.602  0.00  0.00    +0.000 OA
ATOM      9  N   UNL     1       4.736   4.678  17.858  0.00  0.00    +0.000 N 
BRANCH   9  10
ATOM     10  C   UNL     1       5.834   5.574  18.097  0.00  0.00    +0.000 A 
ATOM     11  C   UNL     1       5.972   6.722  17.301  0.00  0.00    +0.000 A 
ATOM     12  C   UNL     1       7.108   7.526  17.392  0.00  0.00    +0.000 A 
ATOM     13  C   UNL     1       8.111   7.206  18.301  0.00  0.00    +0.000 A 
ATOM     14  C   UNL     1       7.964   6.099  19.136  0.00  0.00    +0.000 A 
ATOM     15  C   UNL     1       6.825   5.287  19.042  0.00  0.00    +0.000 A 
ENDBRANCH   9  10
BRANCH   7  17
ATOM     16  C   UNL     1       5.576   4.330  14.428  0.00  0.00    +0.000 C 
ATOM     17  C   UNL     1       6.004   3.907  15.824  0.00  0.00    +0.000 C 
ENDBRANCH   7  17
ENDBRANCH   1   9
BRANCH   1  18
ATOM     18  C   UNL     1       3.816   3.235  19.706  0.00  0.00    +0.000 C 
ATOM     19  O   UNL     1       4.882   2.657  19.889  0.00  0.00    +0.000 OA
BRANCH  18  20
ATOM     20  O   UNL     1       2.609   2.724  20.094  0.00  0.00    +0.000 OA
ATOM     21  C   UNL     1       2.398   2.706  21.509  0.00  0.00    +0.000 C 
ENDBRANCH  18  20
ENDBRANCH   1  18
BRANCH   4  22
ATOM     22  C   UNL     1       1.700   8.211  17.656  0.00  0.00    +0.000 C 
BRANCH  22  23
ATOM     23  C   UNL     1       1.815   9.509  18.459  0.00  0.00    +0.000 C 
BRANCH  23  24
ATOM     24  C   UNL     1       0.639   9.677  19.387  0.00  0.00    +0.000 C 
ATOM     25  O   UNL     1      -0.386  10.289  19.132  0.00  0.00    +0.000 OA
BRANCH  24  26
ATOM     26  O   UNL     1       0.829   9.047  20.571  0.00  0.00    +0.000 OA
ATOM     27  H   UNL     1       0.833   9.649  21.339  0.00  0.00    +0.000 HD
ENDBRANCH  24  26
ENDBRANCH  23  24
ENDBRANCH  22  23
ENDBRANCH   4  22
TORSDOF 9
ENDMDL
MODEL 3
REMARK VINA RESULT:      -6.3      0.284      1.166
REMARK  Name = 
REMARK  11 active torsions:
REMARK  status: ('A' for Active; 'I' for Inactive)
REMARK    1  A    between atoms: C_1  and  C_2
REMARK    2  A    between atoms: C_2  and  C_3
REMARK    3  A    between atoms: N_5  and  C_6
REMARK    4  A    between atoms: N_5  and  C_12
REMARK    5  A    between atoms: C_12  and  C_13
REMARK    6  A    between atoms: C_13  and  O_15
REMARK    7  A    between atoms: O_15  and  C_16
REMARK    8  A    between atoms: N_19  and  C_20
REMARK    9  A    between atoms: C_20  and  C_21
REMARK   10  A    between atoms: C_21  and  C_22
REMARK   11  A    between atoms: C_22  and  O_24
REMARK                            x       y       z     vdW  Elec       q    Type
REMARK                         _______ _______ _______ _____ _____    ______ ____
ROOT
ATOM      1  C   UNL     1       6.066   5.403  17.359  0.00  0.00    +0.000 C 
ATOM      2  C   UNL     1       6.362   6.339  16.154  0.00  0.00    +0.000 C 
ATOM      3  C   UNL     1       5.722   5.860  14.858  0.00  0.00    +0.000 C 
ATOM      4  N   UNL     1       6.129   4.489  14.501  0.00  0.00    +0.000 NA
ATOM      5  C   UNL     1       5.938   3.556  15.626  0.00  0.00    +0.000 C 
ATOM      6  C   UNL     1       6.634   4.031  16.907  0.00  0.00    +0.000 C 
ENDROOT
BRANCH   1   9
ATOM      7  C   UNL     1       3.767   6.385  17.933  0.00  0.00    +0.000 C 
ATOM      8  O   UNL     1       4.136   7.540  17.699  0.00  0.00    +0.000 OA
ATOM      9  N   UNL     1       4.595   5.264  17.753  0.00  0.00    +0.000 N 
BRANCH   9  10
ATOM     10  C   UNL     1       4.130   3.982  18.206  0.00  0.00    +0.000 A 
ATOM     11  C   UNL     1       4.635   3.450  19.403  0.00  0.00    +0.000 A 
ATOM     12  C   UNL     1       4.335   2.144  19.792  0.00  0.00    +0.000 A 
ATOM     13  C   UNL     1       3.503   1.360  18.999  0.00  0.00    +0.000 A 
ATOM     14  C   UNL     1       2.951   1.893  17.834  0.00  0.00    +0.000 A 
ATOM     15  C   UNL     1       3.255   3.203  17.441  0.00  0.00    +0.000 A 
ENDBRANCH   9  10
BRANCH   7  17
ATOM     16  C   UNL     1       2.177   6.220  19.917  0.00  0.00    +0.000 C 
ATOM     17  C   UNL     1       2.331   6.148  18.407  0.00  0.00    +0.000 C 
ENDBRANCH   7  17
ENDBRANCH   1   9
BRANCH   1  18
ATOM     18  C   UNL     1       6.863   6.031  18.531  0.00  0.00    +0.000 C 
ATOM     19  O   UNL     1       6.959   5.550  19.655  0.00  0.00    +0.000 OA
BRANCH  18  20
ATOM     20  O   UNL     1       7.382   7.249  18.190  0.00  0.00    +0.000 OA
ATOM     21  C   UNL     1       8.535   7.638  18.941  0.00  0.00    +0.000 C 
ENDBRANCH  18  20
ENDBRANCH   1  18
BRANCH   4  22
ATOM     22  C   UNL     1       5.360   3.997  13.330  0.00  0.00    +0.000 C 
BRANCH  22  23
ATOM     23  C   UNL     1       6.232   3.303  12.281  0.00  0.00    +0.000 C 
BRANCH  23  24
ATOM     24  C   UNL     1       5.433   2.298  11.493  0.00  0.00    +0.000 C 
ATOM     25  O   UNL     1       4.311   2.474  11.046  0.00  0.00    +0.000 OA
BRANCH  24  26
ATOM     26  O   UNL     1       6.112   1.140  11.306  0.00  0.00    +0.000 OA
ATOM     27  H   UNL     1       5.616   0.346  11.583  0.00  0.00    +0.000 HD
ENDBRANCH  24  26
ENDBRANCH  23  24
ENDBRANCH  22  23
ENDBRANCH   4  22
TORSDOF 9
ENDMDL
MODEL 4
REMARK VINA RESULT:      -6.2      0.891      1.141
REMARK  Name = 
REMARK  11 active torsions:
REMARK  status: ('A' for Active; 'I' for Inactive)
REMARK    1  A    between atoms: C_1  and  C_2
REMARK    2  A    between atoms: C_2  and  C_3
REMARK    3  A    between atoms: N_5  and  C_6
REMARK    4  A    between atoms: N_5  and  C_12
REMARK    5  A    between atoms: C_12  and  C_13
REMARK    6  A    between atoms: C_13  and  O_15
REMARK    7  A    between atoms: O_15  and  C_16
REMARK    8  A    between atoms: N_19  and  C_20
REMARK    9  A    between atoms: C_20  and  C_21
REMARK   10  A    between atoms: C_21  and  C_22
REMARK   11  A    between atoms: C_22  and  O_24
REMARK                            x       y       z     vdW  Elec       q    Type
REMARK                         _______ _______ _______ _____ _____    ______ ____
ROOT
ATOM      1  C   UNL     1       6.109   5.194  17.445  0.00  0.00    +0.000 C 
ATOM      2  C   UNL     1       6.698   6.033  16.277  0.00  0.00    +0.000 C 
ATOM      3  C   UNL     1       6.054   5.716  14.934  0.00  0.00    +0.000 C 
ATOM      4  N   UNL     1       6.151   4.288  14.584  0.00  0.00    +0.000 NA
ATOM      5  C   UNL     1       5.669   3.428  15.680  0.00  0.00    +0.000 C 
ATOM      6  C   UNL     1       6.369   3.726  17.011  0.00  0.00    +0.000 C 
ENDROOT
BRANCH   1   9
ATOM      7  C   UNL     1       4.053   6.689  17.793  0.00  0.00    +0.000 C 
ATOM      8  O   UNL     1       4.682   7.716  17.520  0.00  0.00    +0.000 OA
ATOM      9  N   UNL     1       4.623   5.405  17.738  0.00  0.00    +0.000 N 
BRANCH   9  10
ATOM     10  C   UNL     1       3.861   4.290  18.230  0.00  0.00    +0.000 A 
ATOM     11  C   UNL     1       2.871   3.719  17.415  0.00  0.00    +0.000 A 
ATOM     12  C   UNL     1       2.003   2.748  17.914  0.00  0.00    +0.000 A 
ATOM     13  C   UNL     1       2.131   2.315  19.229  0.00  0.00    +0.000 A 
ATOM     14  C   UNL     1       3.144   2.834  20.035  0.00  0.00    +0.000 A 
ATOM     15  C   UNL     1       4.014   3.813  19.537  0.00  0.00    +0.000 A 
ENDBRANCH   9  10
BRANCH   7  17
ATOM     16  C   UNL     1       2.015   8.204  17.990  0.00  0.00    +0.000 C 
ATOM     17  C   UNL     1       2.576   6.803  18.173  0.00  0.00    +0.000 C 
ENDBRANCH   7  17
ENDBRANCH   1   9
BRANCH   1  18
ATOM     18  C   UNL     1       6.950   5.618  18.677  0.00  0.00    +0.000 C 
ATOM     19  O   UNL     1       6.599   5.495  19.846  0.00  0.00    +0.000 OA
BRANCH  18  20
ATOM     20  O   UNL     1       8.109   6.239  18.304  0.00  0.00    +0.000 OA
ATOM     21  C   UNL     1       8.169   7.631  18.625  0.00  0.00    +0.000 C 
ENDBRANCH  18  20
ENDBRANCH   1  18
BRANCH   4  22
ATOM     22  C   UNL     1       5.369   3.990  13.358  0.00  0.00    +0.000 C 
BRANCH  22  23
ATOM     23  C   UNL     1       6.197   3.316  12.261  0.00  0.00    +0.000 C 
BRANCH  23  24
ATOM     24  C   UNL     1       5.368   2.320  11.492  0.00  0.00    +0.000 C 
ATOM     25  O   UNL     1       4.263   2.531  11.018  0.00  0.00    +0.000 OA
BRANCH  24  26
ATOM     26  O   UNL     1       5.997   1.128  11.357  0.00  0.00    +0.000 OA
ATOM     27  H   UNL     1       6.652   1.111  10.634  0.00  0.00    +0.000 HD
ENDBRANCH  24  26
ENDBRANCH  23  24
ENDBRANCH  22  23
ENDBRANCH   4  22
TORSDOF 9
ENDMDL
MODEL 5
REMARK VINA RESULT:      -6.2      2.767      6.812
REMARK  Name = 
REMARK  11 active torsions:
REMARK  status: ('A' for Active; 'I' for Inactive)
REMARK    1  A    between atoms: C_1  and  C_2
REMARK    2  A    between atoms: C_2  and  C_3
REMARK    3  A    between atoms: N_5  and  C_6
REMARK    4  A    between atoms: N_5  and  C_12
REMARK    5  A    between atoms: C_12  and  C_13
REMARK    6  A    between atoms: C_13  and  O_15
REMARK    7  A    between atoms: O_15  and  C_16
REMARK    8  A    between atoms: N_19  and  C_20
REMARK    9  A    between atoms: C_20  and  C_21
REMARK   10  A    between atoms: C_21  and  C_22
REMARK   11  A    between atoms: C_22  and  O_24
REMARK                            x       y       z     vdW  Elec       q    Type
REMARK                         _______ _______ _______ _____ _____    ______ ____
ROOT
ATOM      1  C   UNL     1       3.770   4.646  18.855  0.00  0.00    +0.000 C 
ATOM      2  C   UNL     1       2.285   4.730  18.404  0.00  0.00    +0.000 C 
ATOM      3  C   UNL     1       1.959   6.023  17.669  0.00  0.00    +0.000 C 
ATOM      4  N   UNL     1       2.277   7.221  18.466  0.00  0.00    +0.000 NA
ATOM      5  C   UNL     1       3.656   7.176  18.985  0.00  0.00    +0.000 C 
ATOM      6  C   UNL     1       3.948   5.889  19.767  0.00  0.00    +0.000 C 
ENDROOT
BRANCH   1   9
ATOM      7  C   UNL     1       4.784   3.719  16.689  0.00  0.00    +0.000 C 
ATOM      8  O   UNL     1       3.877   2.892  16.549  0.00  0.00    +0.000 OA
ATOM      9  N   UNL     1       4.811   4.657  17.735  0.00  0.00    +0.000 N 
BRANCH   9  10
ATOM     10  C   UNL     1       5.986   5.466  17.906  0.00  0.00    +0.000 A 
ATOM     11  C   UNL     1       6.910   5.136  18.911  0.00  0.00    +0.000 A 
ATOM     12  C   UNL     1       7.973   5.986  19.216  0.00  0.00    +0.000 A 
ATOM     13  C   UNL     1       8.141   7.168  18.501  0.00  0.00    +0.000 A 
ATOM     14  C   UNL     1       7.263   7.483  17.464  0.00  0.00    +0.000 A 
ATOM     15  C   UNL     1       6.192   6.632  17.161  0.00  0.00    +0.000 A 
ENDBRANCH   9  10
BRANCH   7  17
ATOM     16  C   UNL     1       5.491   4.344  14.322  0.00  0.00    +0.000 C 
ATOM     17  C   UNL     1       5.915   3.759  15.659  0.00  0.00    +0.000 C 
ENDBRANCH   7  17
ENDBRANCH   1   9
BRANCH   1  18
ATOM     18  C   UNL     1       3.854   3.308  19.634  0.00  0.00    +0.000 C 
ATOM     19  O   UNL     1       4.882   2.669  19.827  0.00  0.00    +0.000 OA
BRANCH  18  20
ATOM     20  O   UNL     1       2.615   2.867  20.009  0.00  0.00    +0.000 OA
ATOM     21  C   UNL     1       2.418   2.776  21.423  0.00  0.00    +0.000 C 
ENDBRANCH  18  20
ENDBRANCH   1  18
BRANCH   4  22
ATOM     22  C   UNL     1       2.106   8.454  17.659  0.00  0.00    +0.000 C 
BRANCH  22  23
ATOM     23  C   UNL     1       0.847   9.245  18.022  0.00  0.00    +0.000 C 
BRANCH  23  24
ATOM     24  C   UNL     1       1.018   9.965  19.334  0.00  0.00    +0.000 C 
ATOM     25  O   UNL     1       1.108  11.174  19.476  0.00  0.00    +0.000 OA
BRANCH  24  26
ATOM     26  O   UNL     1       1.049   9.110  20.385  0.00  0.00    +0.000 OA
ATOM     27  H   UNL     1       0.646   9.473  21.197  0.00  0.00    +0.000 HD
ENDBRANCH  24  26
ENDBRANCH  23  24
ENDBRANCH  22  23
ENDBRANCH   4  22
TORSDOF 9
ENDMDL
MODEL 6
REMARK VINA RESULT:      -6.0      1.527      2.143
REMARK  Name = 
REMARK  11 active torsions:
REMARK  status: ('A' for Active; 'I' for Inactive)
REMARK    1  A    between atoms: C_1  and  C_2
REMARK    2  A    between atoms: C_2  and  C_3
REMARK    3  A    between atoms: N_5  and  C_6
REMARK    4  A    between atoms: N_5  and  C_12
REMARK    5  A    between atoms: C_12  and  C_13
REMARK    6  A    between atoms: C_13  and  O_15
REMARK    7  A    between atoms: O_15  and  C_16
REMARK    8  A    between atoms: N_19  and  C_20
REMARK    9  A    between atoms: C_20  and  C_21
REMARK   10  A    between atoms: C_21  and  C_22
REMARK   11  A    between atoms: C_22  and  O_24
REMARK                            x       y       z     vdW  Elec       q    Type
REMARK                         _______ _______ _______ _____ _____    ______ ____
ROOT
ATOM      1  C   UNL     1       5.299   4.923  17.837  0.00  0.00    +0.000 C 
ATOM      2  C   UNL     1       6.351   5.587  16.906  0.00  0.00    +0.000 C 
ATOM      3  C   UNL     1       5.951   5.550  15.436  0.00  0.00    +0.000 C 
ATOM      4  N   UNL     1       5.693   4.182  14.955  0.00  0.00    +0.000 NA
ATOM      5  C   UNL     1       4.750   3.467  15.835  0.00  0.00    +0.000 C 
ATOM      6  C   UNL     1       5.198   3.469  17.302  0.00  0.00    +0.000 C 
ENDROOT
BRANCH   1   9
ATOM      7  C   UNL     1       3.741   6.947  17.600  0.00  0.00    +0.000 C 
ATOM      8  O   UNL     1       4.664   7.690  17.250  0.00  0.00    +0.000 OA
ATOM      9  N   UNL     1       3.916   5.576  17.859  0.00  0.00    +0.000 N 
BRANCH   9  10
ATOM     10  C   UNL     1       2.821   4.833  18.416  0.00  0.00    +0.000 A 
ATOM     11  C   UNL     1       2.534   4.951  19.785  0.00  0.00    +0.000 A 
ATOM     12  C   UNL     1       1.588   4.126  20.395  0.00  0.00    +0.000 A 
ATOM     13  C   UNL     1       0.897   3.187  19.635  0.00  0.00    +0.000 A 
ATOM     14  C   UNL     1       1.133   3.094  18.264  0.00  0.00    +0.000 A 
ATOM     15  C   UNL     1       2.086   3.920  17.652  0.00  0.00    +0.000 A 
ENDBRANCH   9  10
BRANCH   7  17
ATOM     16  C   UNL     1       2.315   9.031  17.931  0.00  0.00    +0.000 C 
ATOM     17  C   UNL     1       2.330   7.526  17.725  0.00  0.00    +0.000 C 
ENDBRANCH   7  17
ENDBRANCH   1   9
BRANCH   1  18
ATOM     18  C   UNL     1       5.938   5.004  19.248  0.00  0.00    +0.000 C 
ATOM     19  O   UNL     1       5.648   4.280  20.194  0.00  0.00    +0.000 OA
BRANCH  18  20
ATOM     20  O   UNL     1       6.810   6.053  19.345  0.00  0.00    +0.000 OA
ATOM     21  C   UNL     1       8.144   5.686  19.704  0.00  0.00    +0.000 C 
ENDBRANCH  18  20
ENDBRANCH   1  18
BRANCH   4  22
ATOM     22  C   UNL     1       5.146   4.200  13.576  0.00  0.00    +0.000 C 
BRANCH  22  23
ATOM     23  C   UNL     1       6.032   3.470  12.563  0.00  0.00    +0.000 C 
BRANCH  23  24
ATOM     24  C   UNL     1       5.208   2.586  11.663  0.00  0.00    +0.000 C 
ATOM     25  O   UNL     1       4.135   2.882  11.164  0.00  0.00    +0.000 OA
BRANCH  24  26
ATOM     26  O   UNL     1       5.805   1.390  11.438  0.00  0.00    +0.000 OA
ATOM     27  H   UNL     1       5.364   0.856  10.750  0.00  0.00    +0.000 HD
ENDBRANCH  24  26
ENDBRANCH  23  24
ENDBRANCH  22  23
ENDBRANCH   4  22
TORSDOF 9
ENDMDL
MODEL 7
REMARK VINA RESULT:      -5.9      2.625      6.732
REMARK  Name = 
REMARK  11 active torsions:
REMARK  status: ('A' for Active; 'I' for Inactive)
REMARK    1  A    between atoms: C_1  and  C_2
REMARK    2  A    between atoms: C_2  and  C_3
REMARK    3  A    between atoms: N_5  and  C_6
REMARK    4  A    between atoms: N_5  and  C_12
REMARK    5  A    between atoms: C_12  and  C_13
REMARK    6  A    between atoms: C_13  and  O_15
REMARK    7  A    between atoms: O_15  and  C_16
REMARK    8  A    between atoms: N_19  and  C_20
REMARK    9  A    between atoms: C_20  and  C_21
REMARK   10  A    between atoms: C_21  and  C_22
REMARK   11  A    between atoms: C_22  and  O_24
REMARK                            x       y       z     vdW  Elec       q    Type
REMARK                         _______ _______ _______ _____ _____    ______ ____
ROOT
ATOM      1  C   UNL     1       3.974   4.371  18.446  0.00  0.00    +0.000 C 
ATOM      2  C   UNL     1       2.478   4.449  18.034  0.00  0.00    +0.000 C 
ATOM      3  C   UNL     1       2.055   5.843  17.591  0.00  0.00    +0.000 C 
ATOM      4  N   UNL     1       2.314   6.866  18.620  0.00  0.00    +0.000 NA
ATOM      5  C   UNL     1       3.704   6.804  19.107  0.00  0.00    +0.000 C 
ATOM      6  C   UNL     1       4.093   5.405  19.598  0.00  0.00    +0.000 C 
ENDROOT
BRANCH   1   9
ATOM      7  C   UNL     1       4.991   3.995  16.121  0.00  0.00    +0.000 C 
ATOM      8  O   UNL     1       4.128   3.166  15.814  0.00  0.00    +0.000 OA
ATOM      9  N   UNL     1       4.989   4.685  17.346  0.00  0.00    +0.000 N 
BRANCH   9  10
ATOM     10  C   UNL     1       6.120   5.507  17.677  0.00  0.00    +0.000 A 
ATOM     11  C   UNL     1       7.017   5.077  18.668  0.00  0.00    +0.000 A 
ATOM     12  C   UNL     1       8.030   5.917  19.132  0.00  0.00    +0.000 A 
ATOM     13  C   UNL     1       8.175   7.190  18.592  0.00  0.00    +0.000 A 
ATOM     14  C   UNL     1       7.324   7.612  17.570  0.00  0.00    +0.000 A 
ATOM     15  C   UNL     1       6.303   6.771  17.106  0.00  0.00    +0.000 A 
ENDBRANCH   9  10
BRANCH   7  17
ATOM     16  C   UNL     1       5.747   3.925  13.690  0.00  0.00    +0.000 C 
ATOM     17  C   UNL     1       6.095   4.323  15.114  0.00  0.00    +0.000 C 
ENDBRANCH   7  17
ENDBRANCH   1   9
BRANCH   1  18
ATOM     18  C   UNL     1       4.159   2.908  18.926  0.00  0.00    +0.000 C 
ATOM     19  O   UNL     1       3.515   1.947  18.519  0.00  0.00    +0.000 OA
BRANCH  18  20
ATOM     20  O   UNL     1       5.075   2.824  19.938  0.00  0.00    +0.000 OA
ATOM     21  C   UNL     1       4.967   1.647  20.742  0.00  0.00    +0.000 C 
ENDBRANCH  18  20
ENDBRANCH   1  18
BRANCH   4  22
ATOM     22  C   UNL     1       2.048   8.227  18.091  0.00  0.00    +0.000 C 
BRANCH  22  23
ATOM     23  C   UNL     1       1.407   9.161  19.120  0.00  0.00    +0.000 C 
BRANCH  23  24
ATOM     24  C   UNL     1       1.202  10.540  18.546  0.00  0.00    +0.000 C 
ATOM     25  O   UNL     1       0.423  11.378  18.972  0.00  0.00    +0.000 OA
BRANCH  24  26
ATOM     26  O   UNL     1       2.007  10.775  17.482  0.00  0.00    +0.000 OA
ATOM     27  H   UNL     1       2.772  11.344  17.688  0.00  0.00    +0.000 HD
ENDBRANCH  24  26
ENDBRANCH  23  24
ENDBRANCH  22  23
ENDBRANCH   4  22
TORSDOF 9
ENDMDL
MODEL 8
REMARK VINA RESULT:      -5.9      2.792      6.501
REMARK  Name = 
REMARK  11 active torsions:
REMARK  status: ('A' for Active; 'I' for Inactive)
REMARK    1  A    between atoms: C_1  and  C_2
REMARK    2  A    between atoms: C_2  and  C_3
REMARK    3  A    between atoms: N_5  and  C_6
REMARK    4  A    between atoms: N_5  and  C_12
REMARK    5  A    between atoms: C_12  and  C_13
REMARK    6  A    between atoms: C_13  and  O_15
REMARK    7  A    between atoms: O_15  and  C_16
REMARK    8  A    between atoms: N_19  and  C_20
REMARK    9  A    between atoms: C_20  and  C_21
REMARK   10  A    between atoms: C_21  and  C_22
REMARK   11  A    between atoms: C_22  and  O_24
REMARK                            x       y       z     vdW  Elec       q    Type
REMARK                         _______ _______ _______ _____ _____    ______ ____
ROOT
ATOM      1  C   UNL     1       3.913   3.981  18.776  0.00  0.00    +0.000 C 
ATOM      2  C   UNL     1       2.682   4.131  17.840  0.00  0.00    +0.000 C 
ATOM      3  C   UNL     1       2.435   5.570  17.407  0.00  0.00    +0.000 C 
ATOM      4  N   UNL     1       2.271   6.484  18.552  0.00  0.00    +0.000 NA
ATOM      5  C   UNL     1       3.375   6.345  19.519  0.00  0.00    +0.000 C 
ATOM      6  C   UNL     1       3.572   4.897  19.982  0.00  0.00    +0.000 C 
ENDROOT
BRANCH   1   9
ATOM      7  C   UNL     1       6.331   4.812  18.979  0.00  0.00    +0.000 C 
ATOM      8  O   UNL     1       6.287   4.817  20.213  0.00  0.00    +0.000 OA
ATOM      9  N   UNL     1       5.263   4.376  18.176  0.00  0.00    +0.000 N 
BRANCH   9  10
ATOM     10  C   UNL     1       5.347   4.561  16.753  0.00  0.00    +0.000 A 
ATOM     11  C   UNL     1       5.706   3.476  15.938  0.00  0.00    +0.000 A 
ATOM     12  C   UNL     1       5.958   3.653  14.577  0.00  0.00    +0.000 A 
ATOM     13  C   UNL     1       5.829   4.915  14.008  0.00  0.00    +0.000 A 
ATOM     14  C   UNL     1       5.422   5.993  14.795  0.00  0.00    +0.000 A 
ATOM     15  C   UNL     1       5.173   5.817  16.163  0.00  0.00    +0.000 A 
ENDBRANCH   9  10
BRANCH   7  17
ATOM     16  C   UNL     1       7.902   6.747  18.451  0.00  0.00    +0.000 C 
ATOM     17  C   UNL     1       7.615   5.264  18.281  0.00  0.00    +0.000 C 
ENDBRANCH   7  17
ENDBRANCH   1   9
BRANCH   1  18
ATOM     18  C   UNL     1       3.926   2.475  19.146  0.00  0.00    +0.000 C 
ATOM     19  O   UNL     1       3.754   1.554  18.355  0.00  0.00    +0.000 OA
BRANCH  18  20
ATOM     20  O   UNL     1       4.063   2.290  20.494  0.00  0.00    +0.000 OA
ATOM     21  C   UNL     1       5.118   1.401  20.869  0.00  0.00    +0.000 C 
ENDBRANCH  18  20
ENDBRANCH   1  18
BRANCH   4  22
ATOM     22  C   UNL     1       2.203   7.895  18.097  0.00  0.00    +0.000 C 
BRANCH  22  23
ATOM     23  C   UNL     1       1.558   8.831  19.122  0.00  0.00    +0.000 C 
BRANCH  23  24
ATOM     24  C   UNL     1       0.886   9.997  18.443  0.00  0.00    +0.000 C 
ATOM     25  O   UNL     1      -0.302  10.269  18.508  0.00  0.00    +0.000 OA
BRANCH  24  26
ATOM     26  O   UNL     1       1.764  10.752  17.739  0.00  0.00    +0.000 OA
ATOM     27  H   UNL     1       1.393  11.115  16.913  0.00  0.00    +0.000 HD
ENDBRANCH  24  26
ENDBRANCH  23  24
ENDBRANCH  22  23
ENDBRANCH   4  22
TORSDOF 9
ENDMDL
MODEL 9
REMARK VINA RESULT:      -5.9      2.531      5.916
REMARK  Name = 
REMARK  11 active torsions:
REMARK  status: ('A' for Active; 'I' for Inactive)
REMARK    1  A    between atoms: C_1  and  C_2
REMARK    2  A    between atoms: C_2  and  C_3
REMARK    3  A    between atoms: N_5  and  C_6
REMARK    4  A    between atoms: N_5  and  C_12
REMARK    5  A    between atoms: C_12  and  C_13
REMARK    6  A    between atoms: C_13  and  O_15
REMARK    7  A    between atoms: O_15  and  C_16
REMARK    8  A    between atoms: N_19  and  C_20
REMARK    9  A    between atoms: C_20  and  C_21
REMARK   10  A    between atoms: C_21  and  C_22
REMARK   11  A    between atoms: C_22  and  O_24
REMARK                            x       y       z     vdW  Elec       q    Type
REMARK                         _______ _______ _______ _____ _____    ______ ____
ROOT
ATOM      1  C   UNL     1       5.016   4.123  16.362  0.00  0.00    +0.000 C 
ATOM      2  C   UNL     1       3.506   4.172  15.997  0.00  0.00    +0.000 C 
ATOM      3  C   UNL     1       2.601   3.773  17.155  0.00  0.00    +0.000 C 
ATOM      4  N   UNL     1       2.915   2.433  17.682  0.00  0.00    +0.000 NA
ATOM      5  C   UNL     1       4.350   2.294  17.988  0.00  0.00    +0.000 C 
ATOM      6  C   UNL     1       5.243   2.648  16.792  0.00  0.00    +0.000 C 
ENDROOT
BRANCH   1   9
ATOM      7  C   UNL     1       6.716   4.934  18.103  0.00  0.00    +0.000 C 
ATOM      8  O   UNL     1       7.562   4.106  17.749  0.00  0.00    +0.000 OA
ATOM      9  N   UNL     1       5.468   5.074  17.471  0.00  0.00    +0.000 N 
BRANCH   9  10
ATOM     10  C   UNL     1       4.492   5.950  18.057  0.00  0.00    +0.000 A 
ATOM     11  C   UNL     1       3.902   5.604  19.283  0.00  0.00    +0.000 A 
ATOM     12  C   UNL     1       2.837   6.341  19.801  0.00  0.00    +0.000 A 
ATOM     13  C   UNL     1       2.363   7.451  19.110  0.00  0.00    +0.000 A 
ATOM     14  C   UNL     1       2.974   7.839  17.918  0.00  0.00    +0.000 A 
ATOM     15  C   UNL     1       4.040   7.097  17.394  0.00  0.00    +0.000 A 
ENDBRANCH   9  10
BRANCH   7  17
ATOM     16  C   UNL     1       8.105   6.914  18.904  0.00  0.00    +0.000 C 
ATOM     17  C   UNL     1       7.046   5.883  19.257  0.00  0.00    +0.000 C 
ENDBRANCH   7  17
ENDBRANCH   1   9
BRANCH   1  18
ATOM     18  C   UNL     1       5.738   4.484  15.038  0.00  0.00    +0.000 C 
ATOM     19  O   UNL     1       6.034   5.620  14.684  0.00  0.00    +0.000 OA
BRANCH  18  20
ATOM     20  O   UNL     1       5.927   3.380  14.253  0.00  0.00    +0.000 OA
ATOM     21  C   UNL     1       6.167   3.666  12.872  0.00  0.00    +0.000 C 
ENDBRANCH  18  20
ENDBRANCH   1  18
BRANCH   4  22
ATOM     22  C   UNL     1       2.131   2.151  18.910  0.00  0.00    +0.000 C 
BRANCH  22  23
ATOM     23  C   UNL     1       2.888   2.475  20.200  0.00  0.00    +0.000 C 
BRANCH  23  24
ATOM     24  C   UNL     1       1.950   2.982  21.265  0.00  0.00    +0.000 C 
ATOM     25  O   UNL     1       2.240   3.171  22.436  0.00  0.00    +0.000 OA
BRANCH  24  26
ATOM     26  O   UNL     1       0.712   3.234  20.777  0.00  0.00    +0.000 OA
ATOM     27  H   UNL     1       0.717   3.677  19.907  0.00  0.00    +0.000 HD
ENDBRANCH  24  26
ENDBRANCH  23  24
ENDBRANCH  22  23
ENDBRANCH   4  22
TORSDOF 9
ENDMDL
