MODEL 1
REMARK VINA RESULT:      -7.2      0.000      0.000
REMARK  Name = 
REMARK  8 active torsions:
REMARK  status: ('A' for Active; 'I' for Inactive)
REMARK    1  A    between atoms: C_1  and  O_2
REMARK    2  A    between atoms: O_2  and  C_3
REMARK    3  A    between atoms: C_3  and  C_5
REMARK    4  A    between atoms: C_8  and  C_9
REMARK    5  A    between atoms: C_14  and  O_15
REMARK    6  A    between atoms: O_15  and  C_16
REMARK    7  A    between atoms: N_23  and  C_24
REMARK    8  A    between atoms: N_28  and  C_29
REMARK                            x       y       z     vdW  Elec       q    Type
REMARK                         _______ _______ _______ _____ _____    ______ ____
ROOT
ATOM      1  C   UNL     1      -4.320  12.756  21.368  0.00  0.00    +0.000 A 
ATOM      2  C   UNL     1      -2.981  12.830  21.003  0.00  0.00    +0.000 A 
ATOM      3  C   UNL     1      -2.871  12.413  19.672  0.00  0.00    +0.000 A 
ATOM      4  C   UNL     1      -1.736  12.315  18.802  0.00  0.00    +0.000 A 
ATOM      5  C   UNL     1      -1.926  11.768  17.582  0.00  0.00    +0.000 A 
ATOM      6  N   UNL     1      -3.186  11.354  17.128  0.00  0.00    +0.000 N 
ATOM      7  C   UNL     1      -3.337  10.888  15.761  0.00  0.00    +0.000 C 
ATOM      8  C   UNL     1      -4.355  11.452  17.913  0.00  0.00    +0.000 A 
ATOM      9  O   UNL     1      -5.461  11.095  17.498  0.00  0.00    +0.000 OA
ATOM     10  C   UNL     1      -4.124  12.012  19.233  0.00  0.00    +0.000 A 
ATOM     11  N   UNL     1      -5.014  12.287  20.252  0.00  0.00    +0.000 N 
ATOM     12  C   UNL     1      -6.458  12.191  20.174  0.00  0.00    +0.000 C 
ENDROOT
BRANCH   4  13
ATOM     13  C   UNL     1      -0.340  12.696  19.174  0.00  0.00    +0.000 A 
ATOM     14  C   UNL     1       0.084  13.978  18.767  0.00  0.00    +0.000 A 
ATOM     15  C   UNL     1       1.361  14.449  19.085  0.00  0.00    +0.000 A 
ATOM     16  C   UNL     1       2.214  13.680  19.859  0.00  0.00    +0.000 A 
ATOM     17  C   UNL     1       1.795  12.429  20.301  0.00  0.00    +0.000 A 
ATOM     18  C   UNL     1       0.555  11.890  19.906  0.00  0.00    +0.000 A 
BRANCH  18  19
ATOM     19  O   UNL     1       0.224  10.584  20.247  0.00  0.00    +0.000 OA
BRANCH  19  20
ATOM     20  C   UNL     1       0.951   9.548  19.668  0.00  0.00    +0.000 A 
ATOM     21  C   UNL     1       1.358   8.496  20.495  0.00  0.00    +0.000 A 
ATOM     22  C   UNL     1       2.095   7.424  19.963  0.00  0.00    +0.000 A 
ATOM     23  C   UNL     1       2.439   7.409  18.611  0.00  0.00    +0.000 A 
ATOM     24  C   UNL     1       2.048   8.462  17.787  0.00  0.00    +0.000 A 
ATOM     25  C   UNL     1       1.282   9.507  18.308  0.00  0.00    +0.000 A 
ENDBRANCH  19  20
ENDBRANCH  18  19
ENDBRANCH   4  13
BRANCH   1  26
ATOM     26  C   UNL     1      -4.911  13.124  22.640  0.00  0.00    +0.000 C 
ATOM     27  O   UNL     1      -5.168  12.364  23.565  0.00  0.00    +0.000 OA
BRANCH  26  29
ATOM     28  C   UNL     1      -4.511  15.193  23.681  0.00  0.00    +0.000 C 
ATOM     29  O   UNL     1      -5.164  14.464  22.645  0.00  0.00    +0.000 OA
ENDBRANCH  26  29
ENDBRANCH   1  26
TORSDOF 5
ENDMDL
MODEL 2
REMARK VINA RESULT:      -7.0      0.543      1.046
REMARK  Name = 
REMARK  8 active torsions:
REMARK  status: ('A' for Active; 'I' for Inactive)
REMARK    1  A    between atoms: C_1  and  O_2
REMARK    2  A    between atoms: O_2  and  C_3
REMARK    3  A    between atoms: C_3  and  C_5
REMARK    4  A    between atoms: C_8  and  C_9
REMARK    5  A    between atoms: C_14  and  O_15
REMARK    6  A    between atoms: O_15  and  C_16
REMARK    7  A    between atoms: N_23  and  C_24
REMARK    8  A    between atoms: N_28  and  C_29
REMARK                            x       y       z     vdW  Elec       q    Type
REMARK                         _______ _______ _______ _____ _____    ______ ____
ROOT
ATOM      1  C   UNL     1      -4.771  12.687  21.021  0.00  0.00    +0.000 A 
ATOM      2  C   UNL     1      -3.393  12.750  20.851  0.00  0.00    +0.000 A 
ATOM      3  C   UNL     1      -3.100  12.356  19.541  0.00  0.00    +0.000 A 
ATOM      4  C   UNL     1      -1.854  12.258  18.839  0.00  0.00    +0.000 A 
ATOM      5  C   UNL     1      -1.875  11.736  17.594  0.00  0.00    +0.000 A 
ATOM      6  N   UNL     1      -3.063  11.348  16.957  0.00  0.00    +0.000 N 
ATOM      7  C   UNL     1      -3.023  10.908  15.574  0.00  0.00    +0.000 C 
ATOM      8  C   UNL     1      -4.329  11.446  17.571  0.00  0.00    +0.000 A 
ATOM      9  O   UNL     1      -5.369  11.111  16.997  0.00  0.00    +0.000 OA
ATOM     10  C   UNL     1      -4.282  11.979  18.921  0.00  0.00    +0.000 A 
ATOM     11  N   UNL     1      -5.305  12.248  19.809  0.00  0.00    +0.000 N 
ATOM     12  C   UNL     1      -6.724  12.173  19.526  0.00  0.00    +0.000 C 
ENDROOT
BRANCH   4  13
ATOM     13  C   UNL     1      -0.521  12.614  19.412  0.00  0.00    +0.000 A 
ATOM     14  C   UNL     1      -0.082  13.936  19.190  0.00  0.00    +0.000 A 
ATOM     15  C   UNL     1       1.138  14.385  19.705  0.00  0.00    +0.000 A 
ATOM     16  C   UNL     1       1.911  13.549  20.494  0.00  0.00    +0.000 A 
ATOM     17  C   UNL     1       1.471  12.255  20.754  0.00  0.00    +0.000 A 
ATOM     18  C   UNL     1       0.300  11.747  20.161  0.00  0.00    +0.000 A 
BRANCH  18  19
ATOM     19  O   UNL     1      -0.040  10.409  20.326  0.00  0.00    +0.000 OA
BRANCH  19  20
ATOM     20  C   UNL     1       0.798   9.445  19.773  0.00  0.00    +0.000 A 
ATOM     21  C   UNL     1       1.108   9.552  18.413  0.00  0.00    +0.000 A 
ATOM     22  C   UNL     1       1.949   8.605  17.804  0.00  0.00    +0.000 A 
ATOM     23  C   UNL     1       2.469   7.545  18.547  0.00  0.00    +0.000 A 
ATOM     24  C   UNL     1       2.153   7.427  19.898  0.00  0.00    +0.000 A 
ATOM     25  C   UNL     1       1.349   8.389  20.512  0.00  0.00    +0.000 A 
ENDBRANCH  19  20
ENDBRANCH  18  19
ENDBRANCH   4  13
BRANCH   1  26
ATOM     26  C   UNL     1      -5.532  13.040  22.204  0.00  0.00    +0.000 C 
ATOM     27  O   UNL     1      -6.103  12.260  22.955  0.00  0.00    +0.000 OA
BRANCH  26  29
ATOM     28  C   UNL     1      -6.018  14.866  23.602  0.00  0.00    +0.000 C 
ATOM     29  O   UNL     1      -5.537  14.396  22.345  0.00  0.00    +0.000 OA
ENDBRANCH  26  29
ENDBRANCH   1  26
TORSDOF 5
ENDMDL
MODEL 3
REMARK VINA RESULT:      -6.6      1.267      1.910
REMARK  Name = 
REMARK  8 active torsions:
REMARK  status: ('A' for Active; 'I' for Inactive)
REMARK    1  A    between atoms: C_1  and  O_2
REMARK    2  A    between atoms: O_2  and  C_3
REMARK    3  A    between atoms: C_3  and  C_5
REMARK    4  A    between atoms: C_8  and  C_9
REMARK    5  A    between atoms: C_14  and  O_15
REMARK    6  A    between atoms: O_15  and  C_16
REMARK    7  A    between atoms: N_23  and  C_24
REMARK    8  A    between atoms: N_28  and  C_29
REMARK                            x       y       z     vdW  Elec       q    Type
REMARK                         _______ _______ _______ _____ _____    ______ ____
ROOT
ATOM      1  C   UNL     1      -4.057  12.844  21.279  0.00  0.00    +0.000 A 
ATOM      2  C   UNL     1      -2.748  13.081  20.877  0.00  0.00    +0.000 A 
ATOM      3  C   UNL     1      -2.604  12.607  19.569  0.00  0.00    +0.000 A 
ATOM      4  C   UNL     1      -1.481  12.616  18.678  0.00  0.00    +0.000 A 
ATOM      5  C   UNL     1      -1.614  11.978  17.495  0.00  0.00    +0.000 A 
ATOM      6  N   UNL     1      -2.812  11.368  17.096  0.00  0.00    +0.000 N 
ATOM      7  C   UNL     1      -2.919  10.806  15.761  0.00  0.00    +0.000 C 
ATOM      8  C   UNL     1      -3.968  11.348  17.904  0.00  0.00    +0.000 A 
ATOM      9  O   UNL     1      -5.021  10.818  17.538  0.00  0.00    +0.000 OA
ATOM     10  C   UNL     1      -3.796  12.011  19.184  0.00  0.00    +0.000 A 
ATOM     11  N   UNL     1      -4.698  12.219  20.209  0.00  0.00    +0.000 N 
ATOM     12  C   UNL     1      -6.115  11.920  20.172  0.00  0.00    +0.000 C 
ENDROOT
BRANCH   4  13
ATOM     13  C   UNL     1      -0.146  13.208  18.993  0.00  0.00    +0.000 A 
ATOM     14  C   UNL     1      -0.035  14.607  18.845  0.00  0.00    +0.000 A 
ATOM     15  C   UNL     1       1.160  15.270  19.138  0.00  0.00    +0.000 A 
ATOM     16  C   UNL     1       2.242  14.565  19.637  0.00  0.00    +0.000 A 
ATOM     17  C   UNL     1       2.136  13.191  19.825  0.00  0.00    +0.000 A 
ATOM     18  C   UNL     1       0.979  12.486  19.438  0.00  0.00    +0.000 A 
BRANCH  18  19
ATOM     19  O   UNL     1       0.954  11.098  19.508  0.00  0.00    +0.000 OA
BRANCH  19  20
ATOM     20  C   UNL     1       0.433  10.507  20.655  0.00  0.00    +0.000 A 
ATOM     21  C   UNL     1       0.317   9.113  20.675  0.00  0.00    +0.000 A 
ATOM     22  C   UNL     1      -0.201   8.464  21.808  0.00  0.00    +0.000 A 
ATOM     23  C   UNL     1      -0.618   9.205  22.915  0.00  0.00    +0.000 A 
ATOM     24  C   UNL     1      -0.517  10.594  22.894  0.00  0.00    +0.000 A 
ATOM     25  C   UNL     1       0.035  11.236  21.784  0.00  0.00    +0.000 A 
ENDBRANCH  19  20
ENDBRANCH  18  19
ENDBRANCH   4  13
BRANCH   1  26
ATOM     26  C   UNL     1      -4.671  13.200  22.543  0.00  0.00    +0.000 C 
ATOM     27  O   UNL     1      -4.890  12.442  23.480  0.00  0.00    +0.000 OA
BRANCH  26  29
ATOM     28  C   UNL     1      -4.372  15.307  23.541  0.00  0.00    +0.000 C 
ATOM     29  O   UNL     1      -4.995  14.525  22.526  0.00  0.00    +0.000 OA
ENDBRANCH  26  29
ENDBRANCH   1  26
TORSDOF 5
ENDMDL
MODEL 4
REMARK VINA RESULT:      -6.6      1.376      2.118
REMARK  Name = 
REMARK  8 active torsions:
REMARK  status: ('A' for Active; 'I' for Inactive)
REMARK    1  A    between atoms: C_1  and  O_2
REMARK    2  A    between atoms: O_2  and  C_3
REMARK    3  A    between atoms: C_3  and  C_5
REMARK    4  A    between atoms: C_8  and  C_9
REMARK    5  A    between atoms: C_14  and  O_15
REMARK    6  A    between atoms: O_15  and  C_16
REMARK    7  A    between atoms: N_23  and  C_24
REMARK    8  A    between atoms: N_28  and  C_29
REMARK                            x       y       z     vdW  Elec       q    Type
REMARK                         _______ _______ _______ _____ _____    ______ ____
ROOT
ATOM      1  C   UNL     1      -4.377  13.106  21.207  0.00  0.00    +0.000 A 
ATOM      2  C   UNL     1      -3.057  13.234  20.791  0.00  0.00    +0.000 A 
ATOM      3  C   UNL     1      -2.943  12.645  19.527  0.00  0.00    +0.000 A 
ATOM      4  C   UNL     1      -1.823  12.515  18.642  0.00  0.00    +0.000 A 
ATOM      5  C   UNL     1      -1.994  11.790  17.516  0.00  0.00    +0.000 A 
ATOM      6  N   UNL     1      -3.226  11.219  17.165  0.00  0.00    +0.000 N 
ATOM      7  C   UNL     1      -3.368  10.555  15.881  0.00  0.00    +0.000 C 
ATOM      8  C   UNL     1      -4.381  11.333  17.968  0.00  0.00    +0.000 A 
ATOM      9  O   UNL     1      -5.463  10.835  17.644  0.00  0.00    +0.000 OA
ATOM     10  C   UNL     1      -4.168  12.088  19.190  0.00  0.00    +0.000 A 
ATOM     11  N   UNL     1      -5.055  12.433  20.190  0.00  0.00    +0.000 N 
ATOM     12  C   UNL     1      -6.487  12.214  20.174  0.00  0.00    +0.000 C 
ENDROOT
BRANCH   4  13
ATOM     13  C   UNL     1      -0.455  13.053  18.911  0.00  0.00    +0.000 A 
ATOM     14  C   UNL     1      -0.266  14.427  18.652  0.00  0.00    +0.000 A 
ATOM     15  C   UNL     1       0.966  15.041  18.894  0.00  0.00    +0.000 A 
ATOM     16  C   UNL     1       2.008  14.318  19.449  0.00  0.00    +0.000 A 
ATOM     17  C   UNL     1       1.824  12.971  19.746  0.00  0.00    +0.000 A 
ATOM     18  C   UNL     1       0.628  12.306  19.414  0.00  0.00    +0.000 A 
BRANCH  18  19
ATOM     19  O   UNL     1       0.524  10.931  19.594  0.00  0.00    +0.000 OA
BRANCH  19  20
ATOM     20  C   UNL     1       0.343  10.450  20.887  0.00  0.00    +0.000 A 
ATOM     21  C   UNL     1       1.144   9.380  21.303  0.00  0.00    +0.000 A 
ATOM     22  C   UNL     1       1.003   8.855  22.598  0.00  0.00    +0.000 A 
ATOM     23  C   UNL     1       0.054   9.384  23.474  0.00  0.00    +0.000 A 
ATOM     24  C   UNL     1      -0.755  10.440  23.060  0.00  0.00    +0.000 A 
ATOM     25  C   UNL     1      -0.588  10.988  21.786  0.00  0.00    +0.000 A 
ENDBRANCH  19  20
ENDBRANCH  18  19
ENDBRANCH   4  13
BRANCH   1  26
ATOM     26  C   UNL     1      -4.968  13.601  22.435  0.00  0.00    +0.000 C 
ATOM     27  O   UNL     1      -5.248  14.767  22.684  0.00  0.00    +0.000 OA
BRANCH  26  29
ATOM     28  C   UNL     1      -6.337  12.631  24.081  0.00  0.00    +0.000 C 
ATOM     29  O   UNL     1      -5.150  12.560  23.297  0.00  0.00    +0.000 OA
ENDBRANCH  26  29
ENDBRANCH   1  26
TORSDOF 5
ENDMDL
MODEL 5
REMARK VINA RESULT:      -6.6      2.644      4.833
REMARK  Name = 
REMARK  8 active torsions:
REMARK  status: ('A' for Active; 'I' for Inactive)
REMARK    1  A    between atoms: C_1  and  O_2
REMARK    2  A    between atoms: O_2  and  C_3
REMARK    3  A    between atoms: C_3  and  C_5
REMARK    4  A    between atoms: C_8  and  C_9
REMARK    5  A    between atoms: C_14  and  O_15
REMARK    6  A    between atoms: O_15  and  C_16
REMARK    7  A    between atoms: N_23  and  C_24
REMARK    8  A    between atoms: N_28  and  C_29
REMARK                            x       y       z     vdW  Elec       q    Type
REMARK                         _______ _______ _______ _____ _____    ______ ____
ROOT
ATOM      1  C   UNL     1      -5.026  13.341  22.309  0.00  0.00    +0.000 A 
ATOM      2  C   UNL     1      -3.944  12.483  22.151  0.00  0.00    +0.000 A 
ATOM      3  C   UNL     1      -2.778  13.257  22.120  0.00  0.00    +0.000 A 
ATOM      4  C   UNL     1      -1.400  12.886  21.997  0.00  0.00    +0.000 A 
ATOM      5  C   UNL     1      -0.490  13.878  21.888  0.00  0.00    +0.000 A 
ATOM      6  N   UNL     1      -0.841  15.234  21.947  0.00  0.00    +0.000 N 
ATOM      7  C   UNL     1       0.203  16.244  21.944  0.00  0.00    +0.000 C 
ATOM      8  C   UNL     1      -2.172  15.676  22.101  0.00  0.00    +0.000 A 
ATOM      9  O   UNL     1      -2.467  16.872  22.164  0.00  0.00    +0.000 OA
ATOM     10  C   UNL     1      -3.138  14.595  22.184  0.00  0.00    +0.000 A 
ATOM     11  N   UNL     1      -4.506  14.635  22.367  0.00  0.00    +0.000 N 
ATOM     12  C   UNL     1      -5.294  15.815  22.658  0.00  0.00    +0.000 C 
ENDROOT
BRANCH   4  13
ATOM     13  C   UNL     1      -0.899  11.481  21.897  0.00  0.00    +0.000 A 
ATOM     14  C   UNL     1      -0.755  10.785  23.116  0.00  0.00    +0.000 A 
ATOM     15  C   UNL     1      -0.320   9.457  23.139  0.00  0.00    +0.000 A 
ATOM     16  C   UNL     1      -0.080   8.782  21.953  0.00  0.00    +0.000 A 
ATOM     17  C   UNL     1      -0.255   9.444  20.742  0.00  0.00    +0.000 A 
ATOM     18  C   UNL     1      -0.590  10.812  20.697  0.00  0.00    +0.000 A 
BRANCH  18  19
ATOM     19  O   UNL     1      -0.621  11.480  19.479  0.00  0.00    +0.000 OA
BRANCH  19  20
ATOM     20  C   UNL     1      -1.652  11.182  18.592  0.00  0.00    +0.000 A 
ATOM     21  C   UNL     1      -1.389  10.257  17.575  0.00  0.00    +0.000 A 
ATOM     22  C   UNL     1      -2.394   9.919  16.652  0.00  0.00    +0.000 A 
ATOM     23  C   UNL     1      -3.653  10.514  16.733  0.00  0.00    +0.000 A 
ATOM     24  C   UNL     1      -3.915  11.445  17.736  0.00  0.00    +0.000 A 
ATOM     25  C   UNL     1      -2.929  11.751  18.677  0.00  0.00    +0.000 A 
ENDBRANCH  19  20
ENDBRANCH  18  19
ENDBRANCH   4  13
BRANCH   1  26
ATOM     26  C   UNL     1      -6.426  12.985  22.432  0.00  0.00    +0.000 C 
ATOM     27  O   UNL     1      -7.056  12.877  23.476  0.00  0.00    +0.000 OA
BRANCH  26  29
ATOM     28  C   UNL     1      -7.805  13.788  20.706  0.00  0.00    +0.000 C 
ATOM     29  O   UNL     1      -6.942  12.762  21.189  0.00  0.00    +0.000 OA
ENDBRANCH  26  29
ENDBRANCH   1  26
TORSDOF 5
ENDMDL
MODEL 6
REMARK VINA RESULT:      -6.6      2.491      4.868
REMARK  Name = 
REMARK  8 active torsions:
REMARK  status: ('A' for Active; 'I' for Inactive)
REMARK    1  A    between atoms: C_1  and  O_2
REMARK    2  A    between atoms: O_2  and  C_3
REMARK    3  A    between atoms: C_3  and  C_5
REMARK    4  A    between atoms: C_8  and  C_9
REMARK    5  A    between atoms: C_14  and  O_15
REMARK    6  A    between atoms: O_15  and  C_16
REMARK    7  A    between atoms: N_23  and  C_24
REMARK    8  A    between atoms: N_28  and  C_29
REMARK                            x       y       z     vdW  Elec       q    Type
REMARK                         _______ _______ _______ _____ _____    ______ ____
ROOT
ATOM      1  C   UNL     1      -4.368  11.884  18.676  0.00  0.00    +0.000 A 
ATOM      2  C   UNL     1      -3.675  12.612  19.635  0.00  0.00    +0.000 A 
ATOM      3  C   UNL     1      -4.489  12.720  20.768  0.00  0.00    +0.000 A 
ATOM      4  C   UNL     1      -4.263  13.343  22.039  0.00  0.00    +0.000 A 
ATOM      5  C   UNL     1      -5.292  13.377  22.913  0.00  0.00    +0.000 A 
ATOM      6  N   UNL     1      -6.533  12.783  22.642  0.00  0.00    +0.000 N 
ATOM      7  C   UNL     1      -7.553  12.754  23.675  0.00  0.00    +0.000 C 
ATOM      8  C   UNL     1      -6.818  12.123  21.428  0.00  0.00    +0.000 A 
ATOM      9  O   UNL     1      -7.911  11.593  21.205  0.00  0.00    +0.000 OA
ATOM     10  C   UNL     1      -5.711  12.125  20.490  0.00  0.00    +0.000 A 
ATOM     11  N   UNL     1      -5.604  11.558  19.235  0.00  0.00    +0.000 N 
ATOM     12  C   UNL     1      -6.577  10.688  18.606  0.00  0.00    +0.000 C 
ENDROOT
BRANCH   4  13
ATOM     13  C   UNL     1      -2.999  14.032  22.439  0.00  0.00    +0.000 A 
ATOM     14  C   UNL     1      -2.926  15.412  22.156  0.00  0.00    +0.000 A 
ATOM     15  C   UNL     1      -1.802  16.161  22.512  0.00  0.00    +0.000 A 
ATOM     16  C   UNL     1      -0.759  15.568  23.205  0.00  0.00    +0.000 A 
ATOM     17  C   UNL     1      -0.834  14.216  23.525  0.00  0.00    +0.000 A 
ATOM     18  C   UNL     1      -1.908  13.417  23.085  0.00  0.00    +0.000 A 
BRANCH  18  19
ATOM     19  O   UNL     1      -1.887  12.044  23.299  0.00  0.00    +0.000 OA
BRANCH  19  20
ATOM     20  C   UNL     1      -0.968  11.281  22.585  0.00  0.00    +0.000 A 
ATOM     21  C   UNL     1      -0.567  10.059  23.136  0.00  0.00    +0.000 A 
ATOM     22  C   UNL     1       0.359   9.249  22.457  0.00  0.00    +0.000 A 
ATOM     23  C   UNL     1       0.895   9.662  21.237  0.00  0.00    +0.000 A 
ATOM     24  C   UNL     1       0.508  10.884  20.691  0.00  0.00    +0.000 A 
ATOM     25  C   UNL     1      -0.441  11.671  21.347  0.00  0.00    +0.000 A 
ENDBRANCH  19  20
ENDBRANCH  18  19
ENDBRANCH   4  13
BRANCH   1  26
ATOM     26  C   UNL     1      -3.905  11.491  17.359  0.00  0.00    +0.000 C 
ATOM     27  O   UNL     1      -4.607  11.291  16.375  0.00  0.00    +0.000 OA
BRANCH  26  29
ATOM     28  C   UNL     1      -2.081  10.008  17.390  0.00  0.00    +0.000 C 
ATOM     29  O   UNL     1      -2.548  11.355  17.383  0.00  0.00    +0.000 OA
ENDBRANCH  26  29
ENDBRANCH   1  26
TORSDOF 5
ENDMDL
MODEL 7
REMARK VINA RESULT:      -6.5      5.286      9.577
REMARK  Name = 
REMARK  8 active torsions:
REMARK  status: ('A' for Active; 'I' for Inactive)
REMARK    1  A    between atoms: C_1  and  O_2
REMARK    2  A    between atoms: O_2  and  C_3
REMARK    3  A    between atoms: C_3  and  C_5
REMARK    4  A    between atoms: C_8  and  C_9
REMARK    5  A    between atoms: C_14  and  O_15
REMARK    6  A    between atoms: O_15  and  C_16
REMARK    7  A    between atoms: N_23  and  C_24
REMARK    8  A    between atoms: N_28  and  C_29
REMARK                            x       y       z     vdW  Elec       q    Type
REMARK                         _______ _______ _______ _____ _____    ______ ____
ROOT
ATOM      1  C   UNL     1       2.515   7.507  18.678  0.00  0.00    +0.000 A 
ATOM      2  C   UNL     1       3.457   6.841  17.904  0.00  0.00    +0.000 A 
ATOM      3  C   UNL     1       3.658   5.574  18.463  0.00  0.00    +0.000 A 
ATOM      4  C   UNL     1       4.498   4.485  18.058  0.00  0.00    +0.000 A 
ATOM      5  C   UNL     1       4.563   3.407  18.869  0.00  0.00    +0.000 A 
ATOM      6  N   UNL     1       3.804   3.300  20.044  0.00  0.00    +0.000 N 
ATOM      7  C   UNL     1       3.832   2.063  20.803  0.00  0.00    +0.000 C 
ATOM      8  C   UNL     1       2.931   4.315  20.488  0.00  0.00    +0.000 A 
ATOM      9  O   UNL     1       2.259   4.204  21.518  0.00  0.00    +0.000 OA
ATOM     10  C   UNL     1       2.900   5.478  19.619  0.00  0.00    +0.000 A 
ATOM     11  N   UNL     1       2.154   6.636  19.707  0.00  0.00    +0.000 N 
ATOM     12  C   UNL     1       1.095   6.900  20.661  0.00  0.00    +0.000 C 
ENDROOT
BRANCH   4  13
ATOM     13  C   UNL     1       5.373   4.485  16.846  0.00  0.00    +0.000 A 
ATOM     14  C   UNL     1       4.799   3.970  15.665  0.00  0.00    +0.000 A 
ATOM     15  C   UNL     1       5.517   3.947  14.466  0.00  0.00    +0.000 A 
ATOM     16  C   UNL     1       6.791   4.488  14.407  0.00  0.00    +0.000 A 
ATOM     17  C   UNL     1       7.355   5.035  15.555  0.00  0.00    +0.000 A 
ATOM     18  C   UNL     1       6.693   4.974  16.797  0.00  0.00    +0.000 A 
BRANCH  18  19
ATOM     19  O   UNL     1       7.339   5.402  17.951  0.00  0.00    +0.000 OA
BRANCH  19  20
ATOM     20  C   UNL     1       7.652   6.754  18.066  0.00  0.00    +0.000 A 
ATOM     21  C   UNL     1       7.003   7.649  17.208  0.00  0.00    +0.000 A 
ATOM     22  C   UNL     1       7.282   9.024  17.282  0.00  0.00    +0.000 A 
ATOM     23  C   UNL     1       8.217   9.505  18.199  0.00  0.00    +0.000 A 
ATOM     24  C   UNL     1       8.875   8.616  19.046  0.00  0.00    +0.000 A 
ATOM     25  C   UNL     1       8.569   7.254  18.999  0.00  0.00    +0.000 A 
ENDBRANCH  19  20
ENDBRANCH  18  19
ENDBRANCH   4  13
BRANCH   1  26
ATOM     26  C   UNL     1       1.967   8.832  18.459  0.00  0.00    +0.000 C 
ATOM     27  O   UNL     1       1.969   9.448  17.401  0.00  0.00    +0.000 OA
BRANCH  26  29
ATOM     28  C   UNL     1       0.511  10.361  19.492  0.00  0.00    +0.000 C 
ATOM     29  O   UNL     1       1.460   9.307  19.632  0.00  0.00    +0.000 OA
ENDBRANCH  26  29
ENDBRANCH   1  26
TORSDOF 5
ENDMDL
MODEL 8
REMARK VINA RESULT:      -6.4      2.511      4.720
REMARK  Name = 
REMARK  8 active torsions:
REMARK  status: ('A' for Active; 'I' for Inactive)
REMARK    1  A    between atoms: C_1  and  O_2
REMARK    2  A    between atoms: O_2  and  C_3
REMARK    3  A    between atoms: C_3  and  C_5
REMARK    4  A    between atoms: C_8  and  C_9
REMARK    5  A    between atoms: C_14  and  O_15
REMARK    6  A    between atoms: O_15  and  C_16
REMARK    7  A    between atoms: N_23  and  C_24
REMARK    8  A    between atoms: N_28  and  C_29
REMARK                            x       y       z     vdW  Elec       q    Type
REMARK                         _______ _______ _______ _____ _____    ______ ____
ROOT
ATOM      1  C   UNL     1      -4.124  11.467  18.471  0.00  0.00    +0.000 A 
ATOM      2  C   UNL     1      -3.355  12.314  19.261  0.00  0.00    +0.000 A 
ATOM      3  C   UNL     1      -4.198  12.909  20.206  0.00  0.00    +0.000 A 
ATOM      4  C   UNL     1      -3.927  13.837  21.264  0.00  0.00    +0.000 A 
ATOM      5  C   UNL     1      -4.979  14.324  21.957  0.00  0.00    +0.000 A 
ATOM      6  N   UNL     1      -6.298  13.913  21.714  0.00  0.00    +0.000 N 
ATOM      7  C   UNL     1      -7.365  14.387  22.577  0.00  0.00    +0.000 C 
ATOM      8  C   UNL     1      -6.639  12.978  20.714  0.00  0.00    +0.000 A 
ATOM      9  O   UNL     1      -7.802  12.616  20.517  0.00  0.00    +0.000 OA
ATOM     10  C   UNL     1      -5.498  12.491  19.959  0.00  0.00    +0.000 A 
ATOM     11  N   UNL     1      -5.434  11.560  18.942  0.00  0.00    +0.000 N 
ATOM     12  C   UNL     1      -6.527  10.733  18.472  0.00  0.00    +0.000 C 
ENDROOT
BRANCH   4  13
ATOM     13  C   UNL     1      -2.574  14.371  21.606  0.00  0.00    +0.000 A 
ATOM     14  C   UNL     1      -2.246  15.629  21.058  0.00  0.00    +0.000 A 
ATOM     15  C   UNL     1      -1.017  16.236  21.334  0.00  0.00    +0.000 A 
ATOM     16  C   UNL     1      -0.122  15.633  22.202  0.00  0.00    +0.000 A 
ATOM     17  C   UNL     1      -0.448  14.410  22.780  0.00  0.00    +0.000 A 
ATOM     18  C   UNL     1      -1.633  13.730  22.435  0.00  0.00    +0.000 A 
BRANCH  18  19
ATOM     19  O   UNL     1      -1.865  12.449  22.921  0.00  0.00    +0.000 OA
BRANCH  19  20
ATOM     20  C   UNL     1      -1.104  11.403  22.408  0.00  0.00    +0.000 A 
ATOM     21  C   UNL     1      -0.887  10.290  23.228  0.00  0.00    +0.000 A 
ATOM     22  C   UNL     1      -0.126   9.206  22.760  0.00  0.00    +0.000 A 
ATOM     23  C   UNL     1       0.432   9.237  21.481  0.00  0.00    +0.000 A 
ATOM     24  C   UNL     1       0.230  10.348  20.666  0.00  0.00    +0.000 A 
ATOM     25  C   UNL     1      -0.560  11.408  21.117  0.00  0.00    +0.000 A 
ENDBRANCH  19  20
ENDBRANCH  18  19
ENDBRANCH   4  13
BRANCH   1  26
ATOM     26  C   UNL     1      -3.671  10.615  17.390  0.00  0.00    +0.000 C 
ATOM     27  O   UNL     1      -3.297   9.453  17.493  0.00  0.00    +0.000 OA
BRANCH  26  29
ATOM     28  C   UNL     1      -3.330  10.574  15.064  0.00  0.00    +0.000 C 
ATOM     29  O   UNL     1      -3.703  11.317  16.221  0.00  0.00    +0.000 OA
ENDBRANCH  26  29
ENDBRANCH   1  26
TORSDOF 5
ENDMDL
MODEL 9
REMARK VINA RESULT:      -6.4      2.063      4.275
REMARK  Name = 
REMARK  8 active torsions:
REMARK  status: ('A' for Active; 'I' for Inactive)
REMARK    1  A    between atoms: C_1  and  O_2
REMARK    2  A    between atoms: O_2  and  C_3
REMARK    3  A    between atoms: C_3  and  C_5
REMARK    4  A    between atoms: C_8  and  C_9
REMARK    5  A    between atoms: C_14  and  O_15
REMARK    6  A    between atoms: O_15  and  C_16
REMARK    7  A    between atoms: N_23  and  C_24
REMARK    8  A    between atoms: N_28  and  C_29
REMARK                            x       y       z     vdW  Elec       q    Type
REMARK                         _______ _______ _______ _____ _____    ______ ____
ROOT
ATOM      1  C   UNL     1      -5.979  12.168  19.790  0.00  0.00    +0.000 A 
ATOM      2  C   UNL     1      -4.674  12.619  19.627  0.00  0.00    +0.000 A 
ATOM      3  C   UNL     1      -4.188  13.000  20.883  0.00  0.00    +0.000 A 
ATOM      4  C   UNL     1      -2.911  13.511  21.287  0.00  0.00    +0.000 A 
ATOM      5  C   UNL     1      -2.768  13.896  22.573  0.00  0.00    +0.000 A 
ATOM      6  N   UNL     1      -3.793  13.760  23.521  0.00  0.00    +0.000 N 
ATOM      7  C   UNL     1      -3.529  14.082  24.912  0.00  0.00    +0.000 C 
ATOM      8  C   UNL     1      -5.064  13.234  23.205  0.00  0.00    +0.000 A 
ATOM      9  O   UNL     1      -5.955  13.108  24.050  0.00  0.00    +0.000 OA
ATOM     10  C   UNL     1      -5.208  12.856  21.811  0.00  0.00    +0.000 A 
ATOM     11  N   UNL     1      -6.276  12.285  21.149  0.00  0.00    +0.000 N 
ATOM     12  C   UNL     1      -7.497  11.797  21.758  0.00  0.00    +0.000 C 
ENDROOT
BRANCH   4  13
ATOM     13  C   UNL     1      -1.749  13.728  20.372  0.00  0.00    +0.000 A 
ATOM     14  C   UNL     1      -1.393  15.071  20.128  0.00  0.00    +0.000 A 
ATOM     15  C   UNL     1      -0.306  15.390  19.310  0.00  0.00    +0.000 A 
ATOM     16  C   UNL     1       0.478  14.383  18.770  0.00  0.00    +0.000 A 
ATOM     17  C   UNL     1       0.162  13.055  19.034  0.00  0.00    +0.000 A 
ATOM     18  C   UNL     1      -0.989  12.707  19.767  0.00  0.00    +0.000 A 
BRANCH  18  19
ATOM     19  O   UNL     1      -1.356  11.373  19.896  0.00  0.00    +0.000 OA
BRANCH  19  20
ATOM     20  C   UNL     1      -0.579  10.553  20.708  0.00  0.00    +0.000 A 
ATOM     21  C   UNL     1       0.292   9.652  20.084  0.00  0.00    +0.000 A 
ATOM     22  C   UNL     1       1.099   8.801  20.856  0.00  0.00    +0.000 A 
ATOM     23  C   UNL     1       1.029   8.836  22.250  0.00  0.00    +0.000 A 
ATOM     24  C   UNL     1       0.154   9.721  22.875  0.00  0.00    +0.000 A 
ATOM     25  C   UNL     1      -0.619  10.595  22.108  0.00  0.00    +0.000 A 
ENDBRANCH  19  20
ENDBRANCH  18  19
ENDBRANCH   4  13
BRANCH   1  26
ATOM     26  C   UNL     1      -6.864  11.639  18.772  0.00  0.00    +0.000 C 
ATOM     27  O   UNL     1      -6.884  10.486  18.359  0.00  0.00    +0.000 OA
BRANCH  26  29
ATOM     28  C   UNL     1      -7.148  13.382  17.221  0.00  0.00    +0.000 C 
ATOM     29  O   UNL     1      -7.673  12.639  18.317  0.00  0.00    +0.000 OA
ENDBRANCH  26  29
ENDBRANCH   1  26
TORSDOF 5
ENDMDL
