MODEL 1
REMARK VINA RESULT:      -8.2      0.000      0.000
REMARK  Name = 
REMARK  3 active torsions:
REMARK  status: ('A' for Active; 'I' for Inactive)
REMARK    1  A    between atoms: C_1  and  C_2
REMARK    2  A    between atoms: C_2  and  C_4
REMARK    3  A    between atoms: C_8  and  N_9
REMARK                            x       y       z     vdW  Elec       q    Type
REMARK                         _______ _______ _______ _____ _____    ______ ____
ROOT
ATOM      1  N   UNL     1       5.018   7.095  16.708  0.00  0.00    +0.000 N 
ATOM      2  C   UNL     1       4.052   7.060  17.727  0.00  0.00    +0.000 A 
ATOM      3  N   UNL     1       3.967   5.951  18.440  0.00  0.00    +0.000 NA
ATOM      4  C   UNL     1       2.955   5.849  19.271  0.00  0.00    +0.000 A 
ATOM      5  N   UNL     1       2.821   4.675  19.966  0.00  0.00    +0.000 N 
ATOM      6  C   UNL     1       1.696   4.502  20.872  0.00  0.00    +0.000 C 
ATOM      7  C   UNL     1       2.142   3.534  21.974  0.00  0.00    +0.000 C 
ATOM      8  O   UNL     1       2.589   2.280  21.425  0.00  0.00    +0.000 OA
ATOM      9  C   UNL     1       3.691   2.483  20.519  0.00  0.00    +0.000 C 
ATOM     10  C   UNL     1       3.314   3.429  19.368  0.00  0.00    +0.000 C 
ATOM     11  N   UNL     1       2.113   6.846  19.485  0.00  0.00    +0.000 NA
ATOM     12  C   UNL     1       2.281   7.959  18.777  0.00  0.00    +0.000 A 
ATOM     13  N   UNL     1       1.379   8.978  18.958  0.00  0.00    +0.000 N 
ATOM     14  C   UNL     1       1.463  10.223  18.198  0.00  0.00    +0.000 C 
ATOM     15  C   UNL     1       1.674  11.411  19.146  0.00  0.00    +0.000 C 
ATOM     16  O   UNL     1       0.689  11.439  20.192  0.00  0.00    +0.000 OA
ATOM     17  C   UNL     1       0.764  10.237  20.975  0.00  0.00    +0.000 C 
ATOM     18  C   UNL     1       0.490   8.988  20.122  0.00  0.00    +0.000 C 
ATOM     19  N   UNL     1       3.249   8.100  17.874  0.00  0.00    +0.000 NA
ATOM     20  H   UNL     1       4.844   7.906  16.126  0.00  0.00    +0.000 HD
ENDROOT
BRANCH   1  25
ATOM     21  C   UNL     1       6.751   4.900  14.210  0.00  0.00    +0.000 A 
ATOM     22  C   UNL     1       6.219   3.660  14.563  0.00  0.00    +0.000 A 
ATOM     23  C   UNL     1       5.321   3.557  15.626  0.00  0.00    +0.000 A 
ATOM     24  C   UNL     1       4.945   4.697  16.341  0.00  0.00    +0.000 A 
ATOM     25  C   UNL     1       5.447   5.956  15.995  0.00  0.00    +0.000 A 
ATOM     26  C   UNL     1       6.378   6.035  14.941  0.00  0.00    +0.000 A 
BRANCH  21  28
ATOM     27  C   UNL     1       7.376   4.287  11.784  0.00  0.00    +0.000 C 
ATOM     28  C   UNL     1       7.682   5.051  13.052  0.00  0.00    +0.000 C 
ATOM     29  O   UNL     1       8.645   5.803  13.126  0.00  0.00    +0.000 OA
ENDBRANCH  21  28
ENDBRANCH   1  25
TORSDOF 2
ENDMDL
MODEL 2
REMARK VINA RESULT:      -7.9      4.393      7.643
REMARK  Name = 
REMARK  3 active torsions:
REMARK  status: ('A' for Active; 'I' for Inactive)
REMARK    1  A    between atoms: C_1  and  C_2
REMARK    2  A    between atoms: C_2  and  C_4
REMARK    3  A    between atoms: C_8  and  N_9
REMARK                            x       y       z     vdW  Elec       q    Type
REMARK                         _______ _______ _______ _____ _____    ______ ____
ROOT
ATOM      1  N   UNL     1       0.720   9.523  20.939  0.00  0.00    +0.000 N 
ATOM      2  C   UNL     1      -0.270  10.451  20.578  0.00  0.00    +0.000 A 
ATOM      3  N   UNL     1      -0.988  10.179  19.504  0.00  0.00    +0.000 NA
ATOM      4  C   UNL     1      -1.789  11.122  19.065  0.00  0.00    +0.000 A 
ATOM      5  N   UNL     1      -2.489  10.875  17.913  0.00  0.00    +0.000 N 
ATOM      6  C   UNL     1      -3.364  11.903  17.368  0.00  0.00    +0.000 C 
ATOM      7  C   UNL     1      -4.485  11.190  16.604  0.00  0.00    +0.000 C 
ATOM      8  O   UNL     1      -3.959  10.331  15.575  0.00  0.00    +0.000 OA
ATOM      9  C   UNL     1      -3.084   9.335  16.140  0.00  0.00    +0.000 C 
ATOM     10  C   UNL     1      -1.916   9.972  16.907  0.00  0.00    +0.000 C 
ATOM     11  N   UNL     1      -1.971  12.257  19.719  0.00  0.00    +0.000 NA
ATOM     12  C   UNL     1      -1.260  12.452  20.825  0.00  0.00    +0.000 A 
ATOM     13  N   UNL     1      -1.406  13.650  21.481  0.00  0.00    +0.000 N 
ATOM     14  C   UNL     1      -0.639  13.967  22.684  0.00  0.00    +0.000 C 
ATOM     15  C   UNL     1      -1.584  14.197  23.871  0.00  0.00    +0.000 C 
ATOM     16  O   UNL     1      -2.600  15.165  23.562  0.00  0.00    +0.000 OA
ATOM     17  C   UNL     1      -3.394  14.714  22.453  0.00  0.00    +0.000 C 
ATOM     18  C   UNL     1      -2.543  14.526  21.188  0.00  0.00    +0.000 C 
ATOM     19  N   UNL     1      -0.385  11.561  21.287  0.00  0.00    +0.000 NA
ATOM     20  H   UNL     1       1.314   9.941  21.646  0.00  0.00    +0.000 HD
ENDROOT
BRANCH   1  25
ATOM     21  C   UNL     1       2.575   6.643  19.413  0.00  0.00    +0.000 A 
ATOM     22  C   UNL     1       2.845   7.167  18.149  0.00  0.00    +0.000 A 
ATOM     23  C   UNL     1       2.396   8.443  17.808  0.00  0.00    +0.000 A 
ATOM     24  C   UNL     1       1.678   9.206  18.732  0.00  0.00    +0.000 A 
ATOM     25  C   UNL     1       1.412   8.713  20.013  0.00  0.00    +0.000 A 
ATOM     26  C   UNL     1       1.843   7.411  20.328  0.00  0.00    +0.000 A 
BRANCH  21  28
ATOM     27  C   UNL     1       2.263   4.504  20.820  0.00  0.00    +0.000 C 
ATOM     28  C   UNL     1       3.077   5.298  19.824  0.00  0.00    +0.000 C 
ATOM     29  O   UNL     1       4.103   4.844  19.334  0.00  0.00    +0.000 OA
ENDBRANCH  21  28
ENDBRANCH   1  25
TORSDOF 2
ENDMDL
MODEL 3
REMARK VINA RESULT:      -7.5      8.620     10.457
REMARK  Name = 
REMARK  3 active torsions:
REMARK  status: ('A' for Active; 'I' for Inactive)
REMARK    1  A    between atoms: C_1  and  C_2
REMARK    2  A    between atoms: C_2  and  C_4
REMARK    3  A    between atoms: C_8  and  N_9
REMARK                            x       y       z     vdW  Elec       q    Type
REMARK                         _______ _______ _______ _____ _____    ______ ____
ROOT
ATOM      1  N   UNL     1       8.613  11.230  22.603  0.00  0.00    +0.000 N 
ATOM      2  C   UNL     1       7.541  11.896  23.219  0.00  0.00    +0.000 A 
ATOM      3  N   UNL     1       6.794  12.673  22.456  0.00  0.00    +0.000 NA
ATOM      4  C   UNL     1       5.906  13.429  23.059  0.00  0.00    +0.000 A 
ATOM      5  N   UNL     1       5.171  14.287  22.282  0.00  0.00    +0.000 N 
ATOM      6  C   UNL     1       4.199  15.170  22.908  0.00  0.00    +0.000 C 
ATOM      7  C   UNL     1       3.097  15.440  21.877  0.00  0.00    +0.000 C 
ATOM      8  O   UNL     1       3.634  16.005  20.667  0.00  0.00    +0.000 OA
ATOM      9  C   UNL     1       4.606  15.118  20.078  0.00  0.00    +0.000 C 
ATOM     10  C   UNL     1       5.760  14.815  21.045  0.00  0.00    +0.000 C 
ATOM     11  N   UNL     1       5.673  13.348  24.358  0.00  0.00    +0.000 NA
ATOM     12  C   UNL     1       6.420  12.508  25.067  0.00  0.00    +0.000 A 
ATOM     13  N   UNL     1       6.218  12.458  26.424  0.00  0.00    +0.000 N 
ATOM     14  C   UNL     1       7.017  11.591  27.289  0.00  0.00    +0.000 C 
ATOM     15  C   UNL     1       6.116  10.569  27.995  0.00  0.00    +0.000 C 
ATOM     16  O   UNL     1       5.017  11.205  28.670  0.00  0.00    +0.000 OA
ATOM     17  C   UNL     1       4.206  11.925  27.728  0.00  0.00    +0.000 C 
ATOM     18  C   UNL     1       5.007  13.028  27.020  0.00  0.00    +0.000 C 
ATOM     19  N   UNL     1       7.379  11.761  24.525  0.00  0.00    +0.000 NA
ATOM     20  H   UNL     1       9.208  10.837  23.323  0.00  0.00    +0.000 HD
ENDROOT
BRANCH   1  25
ATOM     21  C   UNL     1      10.591  13.509  20.377  0.00  0.00    +0.000 A 
ATOM     22  C   UNL     1      10.653  12.731  19.221  0.00  0.00    +0.000 A 
ATOM     23  C   UNL     1      10.067  11.465  19.195  0.00  0.00    +0.000 A 
ATOM     24  C   UNL     1       9.411  10.971  20.325  0.00  0.00    +0.000 A 
ATOM     25  C   UNL     1       9.317  11.739  21.491  0.00  0.00    +0.000 A 
ATOM     26  C   UNL     1       9.943  13.000  21.510  0.00  0.00    +0.000 A 
BRANCH  21  28
ATOM     27  C   UNL     1      10.654  15.844  21.471  0.00  0.00    +0.000 C 
ATOM     28  C   UNL     1      11.171  14.884  20.425  0.00  0.00    +0.000 C 
ATOM     29  O   UNL     1      12.068  15.205  19.654  0.00  0.00    +0.000 OA
ENDBRANCH  21  28
ENDBRANCH   1  25
TORSDOF 2
ENDMDL
MODEL 4
REMARK VINA RESULT:      -7.4      1.197      1.270
REMARK  Name = 
REMARK  3 active torsions:
REMARK  status: ('A' for Active; 'I' for Inactive)
REMARK    1  A    between atoms: C_1  and  C_2
REMARK    2  A    between atoms: C_2  and  C_4
REMARK    3  A    between atoms: C_8  and  N_9
REMARK                            x       y       z     vdW  Elec       q    Type
REMARK                         _______ _______ _______ _____ _____    ______ ____
ROOT
ATOM      1  N   UNL     1       5.366   7.255  17.072  0.00  0.00    +0.000 N 
ATOM      2  C   UNL     1       4.241   7.174  17.909  0.00  0.00    +0.000 A 
ATOM      3  N   UNL     1       4.084   6.061  18.603  0.00  0.00    +0.000 NA
ATOM      4  C   UNL     1       2.950   5.913  19.247  0.00  0.00    +0.000 A 
ATOM      5  N   UNL     1       2.750   4.733  19.916  0.00  0.00    +0.000 N 
ATOM      6  C   UNL     1       1.494   4.508  20.616  0.00  0.00    +0.000 C 
ATOM      7  C   UNL     1       1.787   3.559  21.784  0.00  0.00    +0.000 C 
ATOM      8  O   UNL     1       2.377   2.327  21.328  0.00  0.00    +0.000 OA
ATOM      9  C   UNL     1       3.609   2.582  20.624  0.00  0.00    +0.000 C 
ATOM     10  C   UNL     1       3.395   3.511  19.420  0.00  0.00    +0.000 C 
ATOM     11  N   UNL     1       2.039   6.870  19.307  0.00  0.00    +0.000 NA
ATOM     12  C   UNL     1       2.277   7.990  18.632  0.00  0.00    +0.000 A 
ATOM     13  N   UNL     1       1.313   8.967  18.648  0.00  0.00    +0.000 N 
ATOM     14  C   UNL     1       1.471  10.217  17.906  0.00  0.00    +0.000 C 
ATOM     15  C   UNL     1       1.462  11.412  18.869  0.00  0.00    +0.000 C 
ATOM     16  O   UNL     1       0.310  11.393  19.729  0.00  0.00    +0.000 OA
ATOM     17  C   UNL     1       0.302  10.194  20.521  0.00  0.00    +0.000 C 
ATOM     18  C   UNL     1       0.236   8.936  19.641  0.00  0.00    +0.000 C 
ATOM     19  N   UNL     1       3.379   8.177  17.908  0.00  0.00    +0.000 NA
ATOM     20  H   UNL     1       5.260   8.058  16.463  0.00  0.00    +0.000 HD
ENDROOT
BRANCH   1  25
ATOM     21  C   UNL     1       6.135   4.542  14.600  0.00  0.00    +0.000 A 
ATOM     22  C   UNL     1       7.143   3.864  15.285  0.00  0.00    +0.000 A 
ATOM     23  C   UNL     1       7.572   4.318  16.533  0.00  0.00    +0.000 A 
ATOM     24  C   UNL     1       6.990   5.451  17.106  0.00  0.00    +0.000 A 
ATOM     25  C   UNL     1       5.963   6.138  16.450  0.00  0.00    +0.000 A 
ATOM     26  C   UNL     1       5.567   5.685  15.177  0.00  0.00    +0.000 A 
BRANCH  21  28
ATOM     27  C   UNL     1       6.631   3.641  12.235  0.00  0.00    +0.000 C 
ATOM     28  C   UNL     1       5.625   4.059  13.282  0.00  0.00    +0.000 C 
ATOM     29  O   UNL     1       4.420   3.974  13.079  0.00  0.00    +0.000 OA
ENDBRANCH  21  28
ENDBRANCH   1  25
TORSDOF 2
ENDMDL
MODEL 5
REMARK VINA RESULT:      -7.3      8.456     12.058
REMARK  Name = 
REMARK  3 active torsions:
REMARK  status: ('A' for Active; 'I' for Inactive)
REMARK    1  A    between atoms: C_1  and  C_2
REMARK    2  A    between atoms: C_2  and  C_4
REMARK    3  A    between atoms: C_8  and  N_9
REMARK                            x       y       z     vdW  Elec       q    Type
REMARK                         _______ _______ _______ _____ _____    ______ ____
ROOT
ATOM      1  N   UNL     1       8.715  12.082  24.154  0.00  0.00    +0.000 N 
ATOM      2  C   UNL     1       8.551  12.768  22.940  0.00  0.00    +0.000 A 
ATOM      3  N   UNL     1       7.805  13.857  22.958  0.00  0.00    +0.000 NA
ATOM      4  C   UNL     1       7.508  14.399  21.800  0.00  0.00    +0.000 A 
ATOM      5  N   UNL     1       6.678  15.491  21.804  0.00  0.00    +0.000 N 
ATOM      6  C   UNL     1       6.293  16.105  20.543  0.00  0.00    +0.000 C 
ATOM      7  C   UNL     1       6.026  17.589  20.820  0.00  0.00    +0.000 C 
ATOM      8  O   UNL     1       5.019  17.764  21.834  0.00  0.00    +0.000 OA
ATOM      9  C   UNL     1       5.420  17.132  23.066  0.00  0.00    +0.000 C 
ATOM     10  C   UNL     1       5.684  15.631  22.875  0.00  0.00    +0.000 C 
ATOM     11  N   UNL     1       8.016  13.958  20.661  0.00  0.00    +0.000 NA
ATOM     12  C   UNL     1       8.805  12.890  20.711  0.00  0.00    +0.000 A 
ATOM     13  N   UNL     1       9.295  12.397  19.527  0.00  0.00    +0.000 N 
ATOM     14  C   UNL     1      10.140  11.205  19.480  0.00  0.00    +0.000 C 
ATOM     15  C   UNL     1      11.517  11.553  18.898  0.00  0.00    +0.000 C 
ATOM     16  O   UNL     1      11.405  12.231  17.636  0.00  0.00    +0.000 OA
ATOM     17  C   UNL     1      10.676  13.458  17.795  0.00  0.00    +0.000 C 
ATOM     18  C   UNL     1       9.249  13.206  18.307  0.00  0.00    +0.000 C 
ATOM     19  N   UNL     1       9.093  12.258  21.847  0.00  0.00    +0.000 NA
ATOM     20  H   UNL     1       9.133  11.179  23.962  0.00  0.00    +0.000 HD
ENDROOT
BRANCH   1  25
ATOM     21  C   UNL     1       5.668  11.206  26.157  0.00  0.00    +0.000 A 
ATOM     22  C   UNL     1       5.805  12.101  27.218  0.00  0.00    +0.000 A 
ATOM     23  C   UNL     1       6.904  12.960  27.273  0.00  0.00    +0.000 A 
ATOM     24  C   UNL     1       7.869  12.933  26.264  0.00  0.00    +0.000 A 
ATOM     25  C   UNL     1       7.745  12.059  25.179  0.00  0.00    +0.000 A 
ATOM     26  C   UNL     1       6.649  11.176  25.157  0.00  0.00    +0.000 A 
BRANCH  21  28
ATOM     27  C   UNL     1       3.677  10.024  27.294  0.00  0.00    +0.000 C 
ATOM     28  C   UNL     1       4.484  10.302  26.047  0.00  0.00    +0.000 C 
ATOM     29  O   UNL     1       4.164   9.833  24.962  0.00  0.00    +0.000 OA
ENDBRANCH  21  28
ENDBRANCH   1  25
TORSDOF 2
ENDMDL
MODEL 6
REMARK VINA RESULT:      -7.2      1.674      7.260
REMARK  Name = 
REMARK  3 active torsions:
REMARK  status: ('A' for Active; 'I' for Inactive)
REMARK    1  A    between atoms: C_1  and  C_2
REMARK    2  A    between atoms: C_2  and  C_4
REMARK    3  A    between atoms: C_8  and  N_9
REMARK                            x       y       z     vdW  Elec       q    Type
REMARK                         _______ _______ _______ _____ _____    ______ ____
ROOT
ATOM      1  N   UNL     1       2.270   8.524  17.557  0.00  0.00    +0.000 N 
ATOM      2  C   UNL     1       2.940   7.307  17.765  0.00  0.00    +0.000 A 
ATOM      3  N   UNL     1       2.332   6.404  18.513  0.00  0.00    +0.000 NA
ATOM      4  C   UNL     1       3.026   5.342  18.852  0.00  0.00    +0.000 A 
ATOM      5  N   UNL     1       2.427   4.431  19.683  0.00  0.00    +0.000 N 
ATOM      6  C   UNL     1       3.168   3.256  20.114  0.00  0.00    +0.000 C 
ATOM      7  C   UNL     1       2.147   2.142  20.375  0.00  0.00    +0.000 C 
ATOM      8  O   UNL     1       1.164   2.545  21.347  0.00  0.00    +0.000 OA
ATOM      9  C   UNL     1       0.458   3.720  20.901  0.00  0.00    +0.000 C 
ATOM     10  C   UNL     1       1.414   4.893  20.640  0.00  0.00    +0.000 C 
ATOM     11  N   UNL     1       4.241   5.112  18.382  0.00  0.00    +0.000 NA
ATOM     12  C   UNL     1       4.780   6.031  17.589  0.00  0.00    +0.000 A 
ATOM     13  N   UNL     1       6.060   5.821  17.140  0.00  0.00    +0.000 N 
ATOM     14  C   UNL     1       6.748   6.795  16.293  0.00  0.00    +0.000 C 
ATOM     15  C   UNL     1       7.100   6.166  14.938  0.00  0.00    +0.000 C 
ATOM     16  O   UNL     1       7.816   4.929  15.096  0.00  0.00    +0.000 OA
ATOM     17  C   UNL     1       7.017   3.982  15.822  0.00  0.00    +0.000 C 
ATOM     18  C   UNL     1       6.674   4.494  17.230  0.00  0.00    +0.000 C 
ATOM     19  N   UNL     1       4.152   7.158  17.260  0.00  0.00    +0.000 NA
ATOM     20  H   UNL     1       2.918   9.184  17.143  0.00  0.00    +0.000 HD
ENDROOT
BRANCH   1  25
ATOM     21  C   UNL     1       0.698   9.588  20.791  0.00  0.00    +0.000 A 
ATOM     22  C   UNL     1      -0.456  10.208  20.311  0.00  0.00    +0.000 A 
ATOM     23  C   UNL     1      -0.690  10.289  18.938  0.00  0.00    +0.000 A 
ATOM     24  C   UNL     1       0.227   9.745  18.035  0.00  0.00    +0.000 A 
ATOM     25  C   UNL     1       1.382   9.100  18.491  0.00  0.00    +0.000 A 
ATOM     26  C   UNL     1       1.618   9.058  19.878  0.00  0.00    +0.000 A 
BRANCH  21  28
ATOM     27  C   UNL     1      -0.226   9.442  23.195  0.00  0.00    +0.000 C 
ATOM     28  C   UNL     1       0.958   9.448  22.255  0.00  0.00    +0.000 C 
ATOM     29  O   UNL     1       2.102   9.307  22.669  0.00  0.00    +0.000 OA
ENDBRANCH  21  28
ENDBRANCH   1  25
TORSDOF 2
ENDMDL
MODEL 7
REMARK VINA RESULT:      -7.2      8.949     10.362
REMARK  Name = 
REMARK  3 active torsions:
REMARK  status: ('A' for Active; 'I' for Inactive)
REMARK    1  A    between atoms: C_1  and  C_2
REMARK    2  A    between atoms: C_2  and  C_4
REMARK    3  A    between atoms: C_8  and  N_9
REMARK                            x       y       z     vdW  Elec       q    Type
REMARK                         _______ _______ _______ _____ _____    ______ ____
ROOT
ATOM      1  N   UNL     1       9.145  12.211  22.702  0.00  0.00    +0.000 N 
ATOM      2  C   UNL     1       7.897  12.559  23.243  0.00  0.00    +0.000 A 
ATOM      3  N   UNL     1       7.044  13.175  22.444  0.00  0.00    +0.000 NA
ATOM      4  C   UNL     1       5.951  13.655  22.992  0.00  0.00    +0.000 A 
ATOM      5  N   UNL     1       5.091  14.354  22.184  0.00  0.00    +0.000 N 
ATOM      6  C   UNL     1       3.884  14.935  22.752  0.00  0.00    +0.000 C 
ATOM      7  C   UNL     1       2.835  14.990  21.636  0.00  0.00    +0.000 C 
ATOM      8  O   UNL     1       3.310  15.739  20.501  0.00  0.00    +0.000 OA
ATOM      9  C   UNL     1       4.515  15.151  19.971  0.00  0.00    +0.000 C 
ATOM     10  C   UNL     1       5.628  15.081  21.027  0.00  0.00    +0.000 C 
ATOM     11  N   UNL     1       5.644  13.444  24.260  0.00  0.00    +0.000 NA
ATOM     12  C   UNL     1       6.516  12.770  25.003  0.00  0.00    +0.000 A 
ATOM     13  N   UNL     1       6.226  12.591  26.332  0.00  0.00    +0.000 N 
ATOM     14  C   UNL     1       7.143  11.895  27.233  0.00  0.00    +0.000 C 
ATOM     15  C   UNL     1       6.470  10.645  27.815  0.00  0.00    +0.000 C 
ATOM     16  O   UNL     1       5.198  10.953  28.410  0.00  0.00    +0.000 OA
ATOM     17  C   UNL     1       4.312  11.509  27.426  0.00  0.00    +0.000 C 
ATOM     18  C   UNL     1       4.869  12.814  26.836  0.00  0.00    +0.000 C 
ATOM     19  N   UNL     1       7.671  12.312  24.522  0.00  0.00    +0.000 NA
ATOM     20  H   UNL     1       9.760  11.933  23.458  0.00  0.00    +0.000 HD
ENDROOT
BRANCH   1  25
ATOM     21  C   UNL     1      10.882  13.071  19.492  0.00  0.00    +0.000 A 
ATOM     22  C   UNL     1      11.123  14.430  19.699  0.00  0.00    +0.000 A 
ATOM     23  C   UNL     1      10.692  15.048  20.873  0.00  0.00    +0.000 A 
ATOM     24  C   UNL     1      10.023  14.309  21.852  0.00  0.00    +0.000 A 
ATOM     25  C   UNL     1       9.788  12.941  21.679  0.00  0.00    +0.000 A 
ATOM     26  C   UNL     1      10.199  12.342  20.473  0.00  0.00    +0.000 A 
BRANCH  21  28
ATOM     27  C   UNL     1      11.171  13.050  16.929  0.00  0.00    +0.000 C 
ATOM     28  C   UNL     1      11.366  12.371  18.265  0.00  0.00    +0.000 C 
ATOM     29  O   UNL     1      11.936  11.291  18.354  0.00  0.00    +0.000 OA
ENDBRANCH  21  28
ENDBRANCH   1  25
TORSDOF 2
ENDMDL
MODEL 8
REMARK VINA RESULT:      -7.1      8.859     11.010
REMARK  Name = 
REMARK  3 active torsions:
REMARK  status: ('A' for Active; 'I' for Inactive)
REMARK    1  A    between atoms: C_1  and  C_2
REMARK    2  A    between atoms: C_2  and  C_4
REMARK    3  A    between atoms: C_8  and  N_9
REMARK                            x       y       z     vdW  Elec       q    Type
REMARK                         _______ _______ _______ _____ _____    ______ ____
ROOT
ATOM      1  N   UNL     1       9.010  11.823  21.873  0.00  0.00    +0.000 N 
ATOM      2  C   UNL     1       8.455  13.010  22.378  0.00  0.00    +0.000 A 
ATOM      3  N   UNL     1       7.886  13.827  21.510  0.00  0.00    +0.000 NA
ATOM      4  C   UNL     1       7.525  15.010  21.949  0.00  0.00    +0.000 A 
ATOM      5  N   UNL     1       6.994  15.889  21.041  0.00  0.00    +0.000 N 
ATOM      6  C   UNL     1       6.611  17.225  21.473  0.00  0.00    +0.000 C 
ATOM      7  C   UNL     1       5.468  17.689  20.562  0.00  0.00    +0.000 C 
ATOM      8  O   UNL     1       5.855  17.663  19.175  0.00  0.00    +0.000 OA
ATOM      9  C   UNL     1       6.245  16.332  18.780  0.00  0.00    +0.000 C 
ATOM     10  C   UNL     1       7.406  15.802  19.635  0.00  0.00    +0.000 C 
ATOM     11  N   UNL     1       7.613  15.348  23.225  0.00  0.00    +0.000 NA
ATOM     12  C   UNL     1       8.145  14.464  24.062  0.00  0.00    +0.000 A 
ATOM     13  N   UNL     1       8.286  14.829  25.378  0.00  0.00    +0.000 N 
ATOM     14  C   UNL     1       8.894  13.936  26.363  0.00  0.00    +0.000 C 
ATOM     15  C   UNL     1       7.885  13.601  27.470  0.00  0.00    +0.000 C 
ATOM     16  O   UNL     1       7.309  14.787  28.043  0.00  0.00    +0.000 OA
ATOM     17  C   UNL     1       6.617  15.539  27.034  0.00  0.00    +0.000 C 
ATOM     18  C   UNL     1       7.566  15.988  25.912  0.00  0.00    +0.000 C 
ATOM     19  N   UNL     1       8.588  13.272  23.667  0.00  0.00    +0.000 NA
ATOM     20  H   UNL     1       9.576  11.396  22.598  0.00  0.00    +0.000 HD
ENDROOT
BRANCH   1  25
ATOM     21  C   UNL     1      10.982  12.497  18.756  0.00  0.00    +0.000 A 
ATOM     22  C   UNL     1      10.545  11.442  17.955  0.00  0.00    +0.000 A 
ATOM     23  C   UNL     1       9.630  10.513  18.455  0.00  0.00    +0.000 A 
ATOM     24  C   UNL     1       9.143  10.639  19.759  0.00  0.00    +0.000 A 
ATOM     25  C   UNL     1       9.550  11.699  20.575  0.00  0.00    +0.000 A 
ATOM     26  C   UNL     1      10.498  12.606  20.066  0.00  0.00    +0.000 A 
BRANCH  21  28
ATOM     27  C   UNL     1      12.330  13.467  16.782  0.00  0.00    +0.000 C 
ATOM     28  C   UNL     1      11.927  13.530  18.238  0.00  0.00    +0.000 C 
ATOM     29  O   UNL     1      12.332  14.423  18.972  0.00  0.00    +0.000 OA
ENDBRANCH  21  28
ENDBRANCH   1  25
TORSDOF 2
ENDMDL
MODEL 9
REMARK VINA RESULT:      -7.1      7.229      9.276
REMARK  Name = 
REMARK  3 active torsions:
REMARK  status: ('A' for Active; 'I' for Inactive)
REMARK    1  A    between atoms: C_1  and  C_2
REMARK    2  A    between atoms: C_2  and  C_4
REMARK    3  A    between atoms: C_8  and  N_9
REMARK                            x       y       z     vdW  Elec       q    Type
REMARK                         _______ _______ _______ _____ _____    ______ ____
ROOT
ATOM      1  N   UNL     1       7.647  14.452  17.409  0.00  0.00    +0.000 N 
ATOM      2  C   UNL     1       6.781  14.864  18.435  0.00  0.00    +0.000 A 
ATOM      3  N   UNL     1       7.229  14.776  19.675  0.00  0.00    +0.000 NA
ATOM      4  C   UNL     1       6.366  14.993  20.640  0.00  0.00    +0.000 A 
ATOM      5  N   UNL     1       6.805  14.839  21.930  0.00  0.00    +0.000 N 
ATOM      6  C   UNL     1       5.877  15.035  23.033  0.00  0.00    +0.000 C 
ATOM      7  C   UNL     1       6.695  15.509  24.239  0.00  0.00    +0.000 C 
ATOM      8  O   UNL     1       7.736  14.572  24.573  0.00  0.00    +0.000 OA
ATOM      9  C   UNL     1       8.630  14.386  23.457  0.00  0.00    +0.000 C 
ATOM     10  C   UNL     1       7.886  13.886  22.209  0.00  0.00    +0.000 C 
ATOM     11  N   UNL     1       5.128  15.394  20.406  0.00  0.00    +0.000 NA
ATOM     12  C   UNL     1       4.749  15.517  19.137  0.00  0.00    +0.000 A 
ATOM     13  N   UNL     1       3.450  15.884  18.887  0.00  0.00    +0.000 N 
ATOM     14  C   UNL     1       2.934  16.008  17.525  0.00  0.00    +0.000 C 
ATOM     15  C   UNL     1       2.474  17.448  17.261  0.00  0.00    +0.000 C 
ATOM     16  O   UNL     1       1.559  17.908  18.269  0.00  0.00    +0.000 OA
ATOM     17  C   UNL     1       2.189  17.881  19.560  0.00  0.00    +0.000 C 
ATOM     18  C   UNL     1       2.620  16.458  19.949  0.00  0.00    +0.000 C 
ATOM     19  N   UNL     1       5.558  15.251  18.114  0.00  0.00    +0.000 NA
ATOM     20  H   UNL     1       7.118  14.384  16.547  0.00  0.00    +0.000 HD
ENDROOT
BRANCH   1  25
ATOM     21  C   UNL     1       9.280  11.148  18.105  0.00  0.00    +0.000 A 
ATOM     22  C   UNL     1      10.619  11.493  17.924  0.00  0.00    +0.000 A 
ATOM     23  C   UNL     1      10.965  12.794  17.555  0.00  0.00    +0.000 A 
ATOM     24  C   UNL     1       9.973  13.759  17.369  0.00  0.00    +0.000 A 
ATOM     25  C   UNL     1       8.624  13.445  17.564  0.00  0.00    +0.000 A 
ATOM     26  C   UNL     1       8.291  12.120  17.904  0.00  0.00    +0.000 A 
BRANCH  21  28
ATOM     27  C   UNL     1       8.014   8.956  17.613  0.00  0.00    +0.000 C 
ATOM     28  C   UNL     1       8.878   9.777  18.541  0.00  0.00    +0.000 C 
ATOM     29  O   UNL     1       9.275   9.327  19.608  0.00  0.00    +0.000 OA
ENDBRANCH  21  28
ENDBRANCH   1  25
TORSDOF 2
ENDMDL
