MODEL 1
REMARK VINA RESULT:      -7.5      0.000      0.000
REMARK  Name = 
REMARK  5 active torsions:
REMARK  status: ('A' for Active; 'I' for Inactive)
REMARK    1  A    between atoms: C_2  and  C_3
REMARK    2  A    between atoms: C_3  and  C_12
REMARK    3  A    between atoms: N_4  and  N_5
REMARK    4  A    between atoms: N_5  and  C_6
REMARK    5  A    between atoms: C_12  and  C_14
REMARK                            x       y       z     vdW  Elec       q    Type
REMARK                         _______ _______ _______ _____ _____    ______ ____
ROOT
ATOM      1  C   UNL     1       6.541   5.790  17.868  0.00  0.00    +0.000 C 
ATOM      2  N   UNL     1       5.640   5.517  18.773  0.00  0.00    +0.000 NA
ENDROOT
BRANCH   1   4
ATOM      3  O   UNL     1       7.744   7.728  17.105  0.00  0.00    +0.000 OA
ATOM      4  C   UNL     1       6.701   7.264  17.543  0.00  0.00    +0.000 C 
ENDBRANCH   1   4
BRANCH   2   5
ATOM      5  N   UNL     1       5.446   4.216  19.138  0.00  0.00    +0.000 N 
ATOM      6  H   UNL     1       5.737   3.998  20.092  0.00  0.00    +0.000 HD
BRANCH   5   7
ATOM      7  C   UNL     1       4.121   3.732  18.936  0.00  0.00    +0.000 A 
ATOM      8  C   UNL     1       3.831   2.802  17.926  0.00  0.00    +0.000 A 
ATOM      9  C   UNL     1       2.543   2.280  17.776  0.00  0.00    +0.000 A 
ATOM     10  C   UNL     1       1.524   2.679  18.638  0.00  0.00    +0.000 A 
ATOM     11  C   UNL     1       1.798   3.589  19.657  0.00  0.00    +0.000 A 
ATOM     12  C   UNL     1       3.090   4.100  19.813  0.00  0.00    +0.000 A 
ENDBRANCH   5   7
ENDBRANCH   2   5
BRANCH   1  13
ATOM     13  C   UNL     1       7.355   4.752  17.105  0.00  0.00    +0.000 C 
ATOM     14  O   UNL     1       8.223   4.102  17.670  0.00  0.00    +0.000 OA
BRANCH  13  15
ATOM     15  C   UNL     1       6.985   4.544  15.720  0.00  0.00    +0.000 A 
ATOM     16  C   UNL     1       5.998   3.757  15.153  0.00  0.00    +0.000 A 
ATOM     17  C   UNL     1       6.091   3.926  13.750  0.00  0.00    +0.000 A 
ATOM     18  C   UNL     1       7.100   4.835  13.543  0.00  0.00    +0.000 A 
ATOM     19  O   UNL     1       7.647   5.211  14.726  0.00  0.00    +0.000 OA
ENDBRANCH  13  15
ENDBRANCH   1  13
TORSDOF 5
ENDMDL
MODEL 2
REMARK VINA RESULT:      -7.4      0.589      1.217
REMARK  Name = 
REMARK  5 active torsions:
REMARK  status: ('A' for Active; 'I' for Inactive)
REMARK    1  A    between atoms: C_2  and  C_3
REMARK    2  A    between atoms: C_3  and  C_12
REMARK    3  A    between atoms: N_4  and  N_5
REMARK    4  A    between atoms: N_5  and  C_6
REMARK    5  A    between atoms: C_12  and  C_14
REMARK                            x       y       z     vdW  Elec       q    Type
REMARK                         _______ _______ _______ _____ _____    ______ ____
ROOT
ATOM      1  C   UNL     1       6.557   5.809  17.872  0.00  0.00    +0.000 C 
ATOM      2  N   UNL     1       5.673   5.549  18.797  0.00  0.00    +0.000 NA
ENDROOT
BRANCH   1   4
ATOM      3  O   UNL     1       7.750   7.747  17.091  0.00  0.00    +0.000 OA
ATOM      4  C   UNL     1       6.705   7.278  17.517  0.00  0.00    +0.000 C 
ENDBRANCH   1   4
BRANCH   2   5
ATOM      5  N   UNL     1       5.492   4.254  19.189  0.00  0.00    +0.000 N 
ATOM      6  H   UNL     1       6.068   3.968  19.981  0.00  0.00    +0.000 HD
BRANCH   5   7
ATOM      7  C   UNL     1       4.137   3.895  19.448  0.00  0.00    +0.000 A 
ATOM      8  C   UNL     1       3.220   4.827  19.955  0.00  0.00    +0.000 A 
ATOM      9  C   UNL     1       1.876   4.488  20.143  0.00  0.00    +0.000 A 
ATOM     10  C   UNL     1       1.429   3.208  19.821  0.00  0.00    +0.000 A 
ATOM     11  C   UNL     1       2.323   2.274  19.302  0.00  0.00    +0.000 A 
ATOM     12  C   UNL     1       3.664   2.620  19.103  0.00  0.00    +0.000 A 
ENDBRANCH   5   7
ENDBRANCH   2   5
BRANCH   1  13
ATOM     13  C   UNL     1       7.364   4.761  17.114  0.00  0.00    +0.000 C 
ATOM     14  O   UNL     1       8.228   4.109  17.683  0.00  0.00    +0.000 OA
BRANCH  13  15
ATOM     15  C   UNL     1       6.991   4.548  15.731  0.00  0.00    +0.000 A 
ATOM     16  C   UNL     1       6.010   3.748  15.169  0.00  0.00    +0.000 A 
ATOM     17  C   UNL     1       6.096   3.917  13.765  0.00  0.00    +0.000 A 
ATOM     18  C   UNL     1       7.094   4.837  13.553  0.00  0.00    +0.000 A 
ATOM     19  O   UNL     1       7.641   5.220  14.733  0.00  0.00    +0.000 OA
ENDBRANCH  13  15
ENDBRANCH   1  13
TORSDOF 5
ENDMDL
MODEL 3
REMARK VINA RESULT:      -7.0      2.612      3.881
REMARK  Name = 
REMARK  5 active torsions:
REMARK  status: ('A' for Active; 'I' for Inactive)
REMARK    1  A    between atoms: C_2  and  C_3
REMARK    2  A    between atoms: C_3  and  C_12
REMARK    3  A    between atoms: N_4  and  N_5
REMARK    4  A    between atoms: N_5  and  C_6
REMARK    5  A    between atoms: C_12  and  C_14
REMARK                            x       y       z     vdW  Elec       q    Type
REMARK                         _______ _______ _______ _____ _____    ______ ____
ROOT
ATOM      1  C   UNL     1       5.614   4.700  18.663  0.00  0.00    +0.000 C 
ATOM      2  N   UNL     1       5.536   3.522  19.221  0.00  0.00    +0.000 NA
ENDROOT
BRANCH   1   4
ATOM      3  O   UNL     1       7.437   5.261  20.129  0.00  0.00    +0.000 OA
ATOM      4  C   UNL     1       6.705   5.602  19.211  0.00  0.00    +0.000 C 
ENDBRANCH   1   4
BRANCH   2   5
ATOM      5  N   UNL     1       4.595   2.641  18.774  0.00  0.00    +0.000 N 
ATOM      6  H   UNL     1       4.907   1.670  18.741  0.00  0.00    +0.000 HD
BRANCH   5   7
ATOM      7  C   UNL     1       3.347   2.704  19.459  0.00  0.00    +0.000 A 
ATOM      8  C   UNL     1       3.287   2.807  20.857  0.00  0.00    +0.000 A 
ATOM      9  C   UNL     1       2.062   2.937  21.518  0.00  0.00    +0.000 A 
ATOM     10  C   UNL     1       0.876   2.971  20.788  0.00  0.00    +0.000 A 
ATOM     11  C   UNL     1       0.918   2.886  19.398  0.00  0.00    +0.000 A 
ATOM     12  C   UNL     1       2.145   2.769  18.738  0.00  0.00    +0.000 A 
ENDBRANCH   5   7
ENDBRANCH   2   5
BRANCH   1  13
ATOM     13  C   UNL     1       4.669   5.220  17.586  0.00  0.00    +0.000 C 
ATOM     14  O   UNL     1       4.656   4.718  16.472  0.00  0.00    +0.000 OA
BRANCH  13  15
ATOM     15  C   UNL     1       3.760   6.273  17.992  0.00  0.00    +0.000 A 
ATOM     16  C   UNL     1       2.895   6.360  19.069  0.00  0.00    +0.000 A 
ATOM     17  C   UNL     1       2.239   7.611  18.971  0.00  0.00    +0.000 A 
ATOM     18  C   UNL     1       2.768   8.232  17.866  0.00  0.00    +0.000 A 
ATOM     19  O   UNL     1       3.684   7.430  17.267  0.00  0.00    +0.000 OA
ENDBRANCH  13  15
ENDBRANCH   1  13
TORSDOF 5
ENDMDL
MODEL 4
REMARK VINA RESULT:      -7.0      1.764      3.405
REMARK  Name = 
REMARK  5 active torsions:
REMARK  status: ('A' for Active; 'I' for Inactive)
REMARK    1  A    between atoms: C_2  and  C_3
REMARK    2  A    between atoms: C_3  and  C_12
REMARK    3  A    between atoms: N_4  and  N_5
REMARK    4  A    between atoms: N_5  and  C_6
REMARK    5  A    between atoms: C_12  and  C_14
REMARK                            x       y       z     vdW  Elec       q    Type
REMARK                         _______ _______ _______ _____ _____    ______ ____
ROOT
ATOM      1  C   UNL     1       5.153   4.693  16.100  0.00  0.00    +0.000 C 
ATOM      2  N   UNL     1       4.187   4.199  16.825  0.00  0.00    +0.000 NA
ENDROOT
BRANCH   1   4
ATOM      3  O   UNL     1       6.657   3.991  14.358  0.00  0.00    +0.000 OA
ATOM      4  C   UNL     1       5.941   3.673  15.296  0.00  0.00    +0.000 C 
ENDBRANCH   1   4
BRANCH   2   5
ATOM      5  N   UNL     1       3.416   5.051  17.563  0.00  0.00    +0.000 N 
ATOM      6  H   UNL     1       2.944   5.773  17.018  0.00  0.00    +0.000 HD
BRANCH   5   7
ATOM      7  C   UNL     1       2.463   4.410  18.408  0.00  0.00    +0.000 A 
ATOM      8  C   UNL     1       1.897   3.174  18.062  0.00  0.00    +0.000 A 
ATOM      9  C   UNL     1       1.015   2.518  18.926  0.00  0.00    +0.000 A 
ATOM     10  C   UNL     1       0.688   3.090  20.154  0.00  0.00    +0.000 A 
ATOM     11  C   UNL     1       1.254   4.310  20.521  0.00  0.00    +0.000 A 
ATOM     12  C   UNL     1       2.146   4.957  19.660  0.00  0.00    +0.000 A 
ENDBRANCH   5   7
ENDBRANCH   2   5
BRANCH   1  13
ATOM     13  C   UNL     1       5.561   6.161  16.069  0.00  0.00    +0.000 C 
ATOM     14  O   UNL     1       5.005   6.947  15.314  0.00  0.00    +0.000 OA
BRANCH  13  15
ATOM     15  C   UNL     1       6.572   6.562  17.025  0.00  0.00    +0.000 A 
ATOM     16  C   UNL     1       7.175   5.860  18.055  0.00  0.00    +0.000 A 
ATOM     17  C   UNL     1       8.088   6.747  18.678  0.00  0.00    +0.000 A 
ATOM     18  C   UNL     1       8.021   7.921  17.969  0.00  0.00    +0.000 A 
ATOM     19  O   UNL     1       7.106   7.820  16.972  0.00  0.00    +0.000 OA
ENDBRANCH  13  15
ENDBRANCH   1  13
TORSDOF 5
ENDMDL
MODEL 5
REMARK VINA RESULT:      -7.0      1.530      2.105
REMARK  Name = 
REMARK  5 active torsions:
REMARK  status: ('A' for Active; 'I' for Inactive)
REMARK    1  A    between atoms: C_2  and  C_3
REMARK    2  A    between atoms: C_3  and  C_12
REMARK    3  A    between atoms: N_4  and  N_5
REMARK    4  A    between atoms: N_5  and  C_6
REMARK    5  A    between atoms: C_12  and  C_14
REMARK                            x       y       z     vdW  Elec       q    Type
REMARK                         _______ _______ _______ _____ _____    ______ ____
ROOT
ATOM      1  C   UNL     1       5.984   4.928  18.515  0.00  0.00    +0.000 C 
ATOM      2  N   UNL     1       5.613   3.865  19.175  0.00  0.00    +0.000 NA
ENDROOT
BRANCH   1   4
ATOM      3  O   UNL     1       8.234   5.145  19.340  0.00  0.00    +0.000 OA
ATOM      4  C   UNL     1       7.159   5.681  19.113  0.00  0.00    +0.000 C 
ENDBRANCH   1   4
BRANCH   2   5
ATOM      5  N   UNL     1       4.577   3.119  18.693  0.00  0.00    +0.000 N 
ATOM      6  H   UNL     1       4.813   2.145  18.498  0.00  0.00    +0.000 HD
BRANCH   5   7
ATOM      7  C   UNL     1       3.395   3.158  19.489  0.00  0.00    +0.000 A 
ATOM      8  C   UNL     1       2.181   3.630  18.968  0.00  0.00    +0.000 A 
ATOM      9  C   UNL     1       1.010   3.603  19.733  0.00  0.00    +0.000 A 
ATOM     10  C   UNL     1       1.036   3.098  21.031  0.00  0.00    +0.000 A 
ATOM     11  C   UNL     1       2.231   2.610  21.558  0.00  0.00    +0.000 A 
ATOM     12  C   UNL     1       3.397   2.627  20.788  0.00  0.00    +0.000 A 
ENDBRANCH   5   7
ENDBRANCH   2   5
BRANCH   1  13
ATOM     13  C   UNL     1       5.291   5.470  17.269  0.00  0.00    +0.000 C 
ATOM     14  O   UNL     1       4.386   6.286  17.365  0.00  0.00    +0.000 OA
BRANCH  13  15
ATOM     15  C   UNL     1       5.820   5.017  15.999  0.00  0.00    +0.000 A 
ATOM     16  C   UNL     1       5.360   4.056  15.115  0.00  0.00    +0.000 A 
ATOM     17  C   UNL     1       6.275   4.019  14.035  0.00  0.00    +0.000 A 
ATOM     18  C   UNL     1       7.216   4.983  14.299  0.00  0.00    +0.000 A 
ATOM     19  O   UNL     1       6.951   5.589  15.484  0.00  0.00    +0.000 OA
ENDBRANCH  13  15
ENDBRANCH   1  13
TORSDOF 5
ENDMDL
MODEL 6
REMARK VINA RESULT:      -7.0      1.465      2.027
REMARK  Name = 
REMARK  5 active torsions:
REMARK  status: ('A' for Active; 'I' for Inactive)
REMARK    1  A    between atoms: C_2  and  C_3
REMARK    2  A    between atoms: C_3  and  C_12
REMARK    3  A    between atoms: N_4  and  N_5
REMARK    4  A    between atoms: N_5  and  C_6
REMARK    5  A    between atoms: C_12  and  C_14
REMARK                            x       y       z     vdW  Elec       q    Type
REMARK                         _______ _______ _______ _____ _____    ______ ____
ROOT
ATOM      1  C   UNL     1       6.123   5.015  18.619  0.00  0.00    +0.000 C 
ATOM      2  N   UNL     1       5.711   3.919  19.195  0.00  0.00    +0.000 NA
ENDROOT
BRANCH   1   4
ATOM      3  O   UNL     1       8.016   6.496  18.724  0.00  0.00    +0.000 OA
ATOM      4  C   UNL     1       7.288   5.705  19.306  0.00  0.00    +0.000 C 
ENDBRANCH   1   4
BRANCH   2   5
ATOM      5  N   UNL     1       4.679   3.225  18.631  0.00  0.00    +0.000 N 
ATOM      6  H   UNL     1       4.912   2.270  18.358  0.00  0.00    +0.000 HD
BRANCH   5   7
ATOM      7  C   UNL     1       3.481   3.208  19.402  0.00  0.00    +0.000 A 
ATOM      8  C   UNL     1       3.453   2.658  20.692  0.00  0.00    +0.000 A 
ATOM      9  C   UNL     1       2.291   2.704  21.470  0.00  0.00    +0.000 A 
ATOM     10  C   UNL     1       1.140   3.308  20.969  0.00  0.00    +0.000 A 
ATOM     11  C   UNL     1       1.156   3.874  19.696  0.00  0.00    +0.000 A 
ATOM     12  C   UNL     1       2.322   3.837  18.925  0.00  0.00    +0.000 A 
ENDBRANCH   5   7
ENDBRANCH   2   5
BRANCH   1  13
ATOM     13  C   UNL     1       5.485   5.649  17.388  0.00  0.00    +0.000 C 
ATOM     14  O   UNL     1       4.683   6.564  17.504  0.00  0.00    +0.000 OA
BRANCH  13  15
ATOM     15  C   UNL     1       5.944   5.153  16.107  0.00  0.00    +0.000 A 
ATOM     16  C   UNL     1       5.367   4.259  15.221  0.00  0.00    +0.000 A 
ATOM     17  C   UNL     1       6.258   4.130  14.127  0.00  0.00    +0.000 A 
ATOM     18  C   UNL     1       7.305   4.980  14.388  0.00  0.00    +0.000 A 
ATOM     19  O   UNL     1       7.125   5.598  15.582  0.00  0.00    +0.000 OA
ENDBRANCH  13  15
ENDBRANCH   1  13
TORSDOF 5
ENDMDL
MODEL 7
REMARK VINA RESULT:      -6.9      2.545      3.814
REMARK  Name = 
REMARK  5 active torsions:
REMARK  status: ('A' for Active; 'I' for Inactive)
REMARK    1  A    between atoms: C_2  and  C_3
REMARK    2  A    between atoms: C_3  and  C_12
REMARK    3  A    between atoms: N_4  and  N_5
REMARK    4  A    between atoms: N_5  and  C_6
REMARK    5  A    between atoms: C_12  and  C_14
REMARK                            x       y       z     vdW  Elec       q    Type
REMARK                         _______ _______ _______ _____ _____    ______ ____
ROOT
ATOM      1  C   UNL     1       5.694   4.817  18.527  0.00  0.00    +0.000 C 
ATOM      2  N   UNL     1       5.536   3.632  19.052  0.00  0.00    +0.000 NA
ENDROOT
BRANCH   1   4
ATOM      3  O   UNL     1       7.336   5.401  20.186  0.00  0.00    +0.000 OA
ATOM      4  C   UNL     1       6.860   5.617  19.081  0.00  0.00    +0.000 C 
ENDBRANCH   1   4
BRANCH   2   5
ATOM      5  N   UNL     1       4.523   2.840  18.597  0.00  0.00    +0.000 N 
ATOM      6  H   UNL     1       4.782   1.863  18.455  0.00  0.00    +0.000 HD
BRANCH   5   7
ATOM      7  C   UNL     1       3.329   2.894  19.374  0.00  0.00    +0.000 A 
ATOM      8  C   UNL     1       2.065   2.929  18.766  0.00  0.00    +0.000 A 
ATOM      9  C   UNL     1       0.896   2.914  19.534  0.00  0.00    +0.000 A 
ATOM     10  C   UNL     1       0.976   2.860  20.924  0.00  0.00    +0.000 A 
ATOM     11  C   UNL     1       2.223   2.809  21.543  0.00  0.00    +0.000 A 
ATOM     12  C   UNL     1       3.390   2.811  20.773  0.00  0.00    +0.000 A 
ENDBRANCH   5   7
ENDBRANCH   2   5
BRANCH   1  13
ATOM     13  C   UNL     1       4.774   5.441  17.485  0.00  0.00    +0.000 C 
ATOM     14  O   UNL     1       4.826   5.087  16.316  0.00  0.00    +0.000 OA
BRANCH  13  15
ATOM     15  C   UNL     1       3.810   6.402  17.980  0.00  0.00    +0.000 A 
ATOM     16  C   UNL     1       3.072   6.425  19.152  0.00  0.00    +0.000 A 
ATOM     17  C   UNL     1       2.277   7.597  19.114  0.00  0.00    +0.000 A 
ATOM     18  C   UNL     1       2.602   8.240  17.945  0.00  0.00    +0.000 A 
ATOM     19  O   UNL     1       3.524   7.524  17.253  0.00  0.00    +0.000 OA
ENDBRANCH  13  15
ENDBRANCH   1  13
TORSDOF 5
ENDMDL
MODEL 8
REMARK VINA RESULT:      -6.9      1.445      2.289
REMARK  Name = 
REMARK  5 active torsions:
REMARK  status: ('A' for Active; 'I' for Inactive)
REMARK    1  A    between atoms: C_2  and  C_3
REMARK    2  A    between atoms: C_3  and  C_12
REMARK    3  A    between atoms: N_4  and  N_5
REMARK    4  A    between atoms: N_5  and  C_6
REMARK    5  A    between atoms: C_12  and  C_14
REMARK                            x       y       z     vdW  Elec       q    Type
REMARK                         _______ _______ _______ _____ _____    ______ ____
ROOT
ATOM      1  C   UNL     1       6.179   4.747  17.010  0.00  0.00    +0.000 C 
ATOM      2  N   UNL     1       5.272   4.212  17.780  0.00  0.00    +0.000 NA
ENDROOT
BRANCH   1   4
ATOM      3  O   UNL     1       7.920   4.649  18.667  0.00  0.00    +0.000 OA
ATOM      4  C   UNL     1       7.610   4.578  17.486  0.00  0.00    +0.000 C 
ENDBRANCH   1   4
BRANCH   2   5
ATOM      5  N   UNL     1       3.960   4.301  17.414  0.00  0.00    +0.000 N 
ATOM      6  H   UNL     1       3.695   3.691  16.640  0.00  0.00    +0.000 HD
BRANCH   5   7
ATOM      7  C   UNL     1       3.031   4.127  18.481  0.00  0.00    +0.000 A 
ATOM      8  C   UNL     1       3.156   4.842  19.681  0.00  0.00    +0.000 A 
ATOM      9  C   UNL     1       2.203   4.717  20.697  0.00  0.00    +0.000 A 
ATOM     10  C   UNL     1       1.107   3.876  20.525  0.00  0.00    +0.000 A 
ATOM     11  C   UNL     1       0.958   3.170  19.332  0.00  0.00    +0.000 A 
ATOM     12  C   UNL     1       1.905   3.306  18.313  0.00  0.00    +0.000 A 
ENDBRANCH   5   7
ENDBRANCH   2   5
BRANCH   1  13
ATOM     13  C   UNL     1       5.890   5.555  15.750  0.00  0.00    +0.000 C 
ATOM     14  O   UNL     1       5.410   6.677  15.825  0.00  0.00    +0.000 OA
BRANCH  13  15
ATOM     15  C   UNL     1       6.284   4.944  14.497  0.00  0.00    +0.000 A 
ATOM     16  C   UNL     1       5.750   3.871  13.803  0.00  0.00    +0.000 A 
ATOM     17  C   UNL     1       6.539   3.700  12.640  0.00  0.00    +0.000 A 
ATOM     18  C   UNL     1       7.482   4.698  12.669  0.00  0.00    +0.000 A 
ATOM     19  O   UNL     1       7.337   5.452  13.788  0.00  0.00    +0.000 OA
ENDBRANCH  13  15
ENDBRANCH   1  13
TORSDOF 5
ENDMDL
MODEL 9
REMARK VINA RESULT:      -6.9      1.370      2.235
REMARK  Name = 
REMARK  5 active torsions:
REMARK  status: ('A' for Active; 'I' for Inactive)
REMARK    1  A    between atoms: C_2  and  C_3
REMARK    2  A    between atoms: C_3  and  C_12
REMARK    3  A    between atoms: N_4  and  N_5
REMARK    4  A    between atoms: N_5  and  C_6
REMARK    5  A    between atoms: C_12  and  C_14
REMARK                            x       y       z     vdW  Elec       q    Type
REMARK                         _______ _______ _______ _____ _____    ______ ____
ROOT
ATOM      1  C   UNL     1       6.541   5.720  18.690  0.00  0.00    +0.000 C 
ATOM      2  N   UNL     1       5.522   5.413  19.446  0.00  0.00    +0.000 NA
ENDROOT
BRANCH   1   4
ATOM      3  O   UNL     1       8.058   5.239  20.494  0.00  0.00    +0.000 OA
ATOM      4  C   UNL     1       7.903   5.437  19.298  0.00  0.00    +0.000 C 
ENDBRANCH   1   4
BRANCH   2   5
ATOM      5  N   UNL     1       4.260   5.617  18.967  0.00  0.00    +0.000 N 
ATOM      6  H   UNL     1       4.186   5.590  17.949  0.00  0.00    +0.000 HD
BRANCH   5   7
ATOM      7  C   UNL     1       3.265   4.765  19.528  0.00  0.00    +0.000 A 
ATOM      8  C   UNL     1       2.057   5.280  20.021  0.00  0.00    +0.000 A 
ATOM      9  C   UNL     1       1.057   4.432  20.507  0.00  0.00    +0.000 A 
ATOM     10  C   UNL     1       1.251   3.053  20.505  0.00  0.00    +0.000 A 
ATOM     11  C   UNL     1       2.438   2.523  20.005  0.00  0.00    +0.000 A 
ATOM     12  C   UNL     1       3.431   3.372  19.507  0.00  0.00    +0.000 A 
ENDBRANCH   5   7
ENDBRANCH   2   5
BRANCH   1  13
ATOM     13  C   UNL     1       6.444   6.380  17.319  0.00  0.00    +0.000 C 
ATOM     14  O   UNL     1       6.438   7.598  17.213  0.00  0.00    +0.000 OA
BRANCH  13  15
ATOM     15  C   UNL     1       6.437   5.485  16.181  0.00  0.00    +0.000 A 
ATOM     16  C   UNL     1       5.606   4.424  15.866  0.00  0.00    +0.000 A 
ATOM     17  C   UNL     1       6.063   3.894  14.634  0.00  0.00    +0.000 A 
ATOM     18  C   UNL     1       7.118   4.684  14.249  0.00  0.00    +0.000 A 
ATOM     19  O   UNL     1       7.353   5.644  15.177  0.00  0.00    +0.000 OA
ENDBRANCH  13  15
ENDBRANCH   1  13
TORSDOF 5
ENDMDL
