MODEL 1
REMARK VINA RESULT:      -7.4      0.000      0.000
REMARK  Name = 
REMARK  6 active torsions:
REMARK  status: ('A' for Active; 'I' for Inactive)
REMARK    1  A    between atoms: C_1  and  C_2
REMARK    2  A    between atoms: C_2  and  C_3
REMARK    3  A    between atoms: C_3  and  O_4
REMARK    4  A    between atoms: C_3  and  C_12
REMARK    5  A    between atoms: O_4  and  C_5
REMARK    6  A    between atoms: C_9  and  C_10
REMARK                            x       y       z     vdW  Elec       q    Type
REMARK                         _______ _______ _______ _____ _____    ______ ____
ROOT
ATOM      1  C   UNL     1       4.858   5.691  17.347  0.00  0.00    +0.000 C 
ENDROOT
BRANCH   1   2
ATOM      2  C   UNL     1       6.033   5.638  16.333  0.00  0.00    +0.000 C 
ATOM      3  O   UNL     1       6.952   6.445  16.364  0.00  0.00    +0.000 OA
ATOM      4  N   UNL     1       5.908   4.565  15.465  0.00  0.00    +0.000 N 
ATOM      5  C   UNL     1       6.605   4.540  14.280  0.00  0.00    +0.000 A 
ATOM      6  N   UNL     1       7.523   5.362  13.828  0.00  0.00    +0.000 NA
ATOM      7  N   UNL     1       7.822   5.016  12.526  0.00  0.00    +0.000 NA
ATOM      8  C   UNL     1       7.083   3.981  12.218  0.00  0.00    +0.000 A 
ATOM      9  N   UNL     1       6.319   3.632  13.290  0.00  0.00    +0.000 N 
ATOM     10  H   UNL     1       5.121   3.947  15.604  0.00  0.00    +0.000 HD
ATOM     11  H   UNL     1       5.613   2.916  13.311  0.00  0.00    +0.000 HD
ENDBRANCH   1   2
BRANCH   1  13
ATOM     12  C   UNL     1       2.789   7.198  18.052  0.00  0.00    +0.000 C 
ATOM     13  C   UNL     1       4.182   7.082  17.431  0.00  0.00    +0.000 C 
ENDBRANCH   1  13
BRANCH   1  14
ATOM     14  O   UNL     1       3.999   4.536  17.377  0.00  0.00    +0.000 OA
BRANCH  14  15
ATOM     15  C   UNL     1       4.145   3.602  18.452  0.00  0.00    +0.000 C 
ATOM     16  C   UNL     1       3.749   2.190  17.986  0.00  0.00    +0.000 C 
ATOM     17  C   UNL     1       2.252   2.030  17.742  0.00  0.00    +0.000 C 
ATOM     18  C   UNL     1       1.440   2.430  18.971  0.00  0.00    +0.000 C 
ATOM     19  C   UNL     1       1.801   3.845  19.419  0.00  0.00    +0.000 C 
ATOM     20  C   UNL     1       1.006   4.281  20.646  0.00  0.00    +0.000 C 
ATOM     21  C   UNL     1       3.310   3.988  19.676  0.00  0.00    +0.000 C 
ENDBRANCH  14  15
ENDBRANCH   1  14
TORSDOF 4
ENDMDL
MODEL 2
REMARK VINA RESULT:      -7.2      1.132      1.266
REMARK  Name = 
REMARK  6 active torsions:
REMARK  status: ('A' for Active; 'I' for Inactive)
REMARK    1  A    between atoms: C_1  and  C_2
REMARK    2  A    between atoms: C_2  and  C_3
REMARK    3  A    between atoms: C_3  and  O_4
REMARK    4  A    between atoms: C_3  and  C_12
REMARK    5  A    between atoms: O_4  and  C_5
REMARK    6  A    between atoms: C_9  and  C_10
REMARK                            x       y       z     vdW  Elec       q    Type
REMARK                         _______ _______ _______ _____ _____    ______ ____
ROOT
ATOM      1  C   UNL     1       4.785   4.774  18.324  0.00  0.00    +0.000 C 
ENDROOT
BRANCH   1   2
ATOM      2  C   UNL     1       5.984   5.017  17.368  0.00  0.00    +0.000 C 
ATOM      3  O   UNL     1       6.863   5.829  17.626  0.00  0.00    +0.000 OA
ATOM      4  N   UNL     1       5.931   4.186  16.261  0.00  0.00    +0.000 N 
ATOM      5  C   UNL     1       6.654   4.480  15.130  0.00  0.00    +0.000 A 
ATOM      6  N   UNL     1       7.543   5.423  14.923  0.00  0.00    +0.000 NA
ATOM      7  N   UNL     1       7.888   5.419  13.588  0.00  0.00    +0.000 NA
ATOM      8  C   UNL     1       7.206   4.462  13.011  0.00  0.00    +0.000 A 
ATOM      9  N   UNL     1       6.435   3.831  13.940  0.00  0.00    +0.000 N 
ATOM     10  H   UNL     1       5.171   3.521  16.219  0.00  0.00    +0.000 HD
ATOM     11  H   UNL     1       5.763   3.104  13.762  0.00  0.00    +0.000 HD
ENDBRANCH   1   2
BRANCH   1  13
ATOM     12  C   UNL     1       2.913   6.554  18.935  0.00  0.00    +0.000 C 
ATOM     13  C   UNL     1       4.346   6.044  19.094  0.00  0.00    +0.000 C 
ENDBRANCH   1  13
BRANCH   1  14
ATOM     14  O   UNL     1       3.746   3.912  17.824  0.00  0.00    +0.000 OA
BRANCH  14  15
ATOM     15  C   UNL     1       3.600   2.609  18.400  0.00  0.00    +0.000 C 
ATOM     16  C   UNL     1       2.333   1.927  17.856  0.00  0.00    +0.000 C 
ATOM     17  C   UNL     1       1.041   2.552  18.369  0.00  0.00    +0.000 C 
ATOM     18  C   UNL     1       1.007   2.594  19.895  0.00  0.00    +0.000 C 
ATOM     19  C   UNL     1       2.245   3.302  20.442  0.00  0.00    +0.000 C 
ATOM     20  C   UNL     1       2.246   3.365  21.966  0.00  0.00    +0.000 C 
ATOM     21  C   UNL     1       3.541   2.652  19.929  0.00  0.00    +0.000 C 
ENDBRANCH  14  15
ENDBRANCH   1  14
TORSDOF 4
ENDMDL
MODEL 3
REMARK VINA RESULT:      -7.1      1.296      2.646
REMARK  Name = 
REMARK  6 active torsions:
REMARK  status: ('A' for Active; 'I' for Inactive)
REMARK    1  A    between atoms: C_1  and  C_2
REMARK    2  A    between atoms: C_2  and  C_3
REMARK    3  A    between atoms: C_3  and  O_4
REMARK    4  A    between atoms: C_3  and  C_12
REMARK    5  A    between atoms: O_4  and  C_5
REMARK    6  A    between atoms: C_9  and  C_10
REMARK                            x       y       z     vdW  Elec       q    Type
REMARK                         _______ _______ _______ _____ _____    ______ ____
ROOT
ATOM      1  C   UNL     1       4.615   4.045  17.977  0.00  0.00    +0.000 C 
ENDROOT
BRANCH   1   2
ATOM      2  C   UNL     1       5.800   4.464  17.065  0.00  0.00    +0.000 C 
ATOM      3  O   UNL     1       6.604   5.322  17.401  0.00  0.00    +0.000 OA
ATOM      4  N   UNL     1       5.829   3.722  15.895  0.00  0.00    +0.000 N 
ATOM      5  C   UNL     1       6.538   4.165  14.803  0.00  0.00    +0.000 A 
ATOM      6  N   UNL     1       7.346   5.192  14.687  0.00  0.00    +0.000 NA
ATOM      7  N   UNL     1       7.705   5.323  13.362  0.00  0.00    +0.000 NA
ATOM      8  C   UNL     1       7.112   4.363  12.700  0.00  0.00    +0.000 A 
ATOM      9  N   UNL     1       6.387   3.597  13.562  0.00  0.00    +0.000 N 
ATOM     10  H   UNL     1       5.128   3.002  15.787  0.00  0.00    +0.000 HD
ATOM     11  H   UNL     1       5.780   2.833  13.316  0.00  0.00    +0.000 HD
ENDBRANCH   1   2
BRANCH   1  13
ATOM     12  C   UNL     1       4.543   2.432  20.085  0.00  0.00    +0.000 C 
ATOM     13  C   UNL     1       4.778   2.631  18.587  0.00  0.00    +0.000 C 
ENDBRANCH   1  13
BRANCH   1  14
ATOM     14  O   UNL     1       4.084   5.075  18.831  0.00  0.00    +0.000 OA
BRANCH  14  15
ATOM     15  C   UNL     1       2.781   5.597  18.547  0.00  0.00    +0.000 C 
ATOM     16  C   UNL     1       2.212   6.308  19.787  0.00  0.00    +0.000 C 
ATOM     17  C   UNL     1       1.837   5.352  20.914  0.00  0.00    +0.000 C 
ATOM     18  C   UNL     1       0.872   4.271  20.433  0.00  0.00    +0.000 C 
ATOM     19  C   UNL     1       1.447   3.535  19.224  0.00  0.00    +0.000 C 
ATOM     20  C   UNL     1       0.510   2.444  18.715  0.00  0.00    +0.000 C 
ATOM     21  C   UNL     1       1.806   4.509  18.089  0.00  0.00    +0.000 C 
ENDBRANCH  14  15
ENDBRANCH   1  14
TORSDOF 4
ENDMDL
MODEL 4
REMARK VINA RESULT:      -7.0      1.360      2.351
REMARK  Name = 
REMARK  6 active torsions:
REMARK  status: ('A' for Active; 'I' for Inactive)
REMARK    1  A    between atoms: C_1  and  C_2
REMARK    2  A    between atoms: C_2  and  C_3
REMARK    3  A    between atoms: C_3  and  O_4
REMARK    4  A    between atoms: C_3  and  C_12
REMARK    5  A    between atoms: O_4  and  C_5
REMARK    6  A    between atoms: C_9  and  C_10
REMARK                            x       y       z     vdW  Elec       q    Type
REMARK                         _______ _______ _______ _____ _____    ______ ____
ROOT
ATOM      1  C   UNL     1       4.044   6.732  18.462  0.00  0.00    +0.000 C 
ENDROOT
BRANCH   1   2
ATOM      2  C   UNL     1       5.322   6.237  17.731  0.00  0.00    +0.000 C 
ATOM      3  O   UNL     1       6.444   6.547  18.108  0.00  0.00    +0.000 OA
ATOM      4  N   UNL     1       5.011   5.398  16.672  0.00  0.00    +0.000 N 
ATOM      5  C   UNL     1       5.932   5.155  15.681  0.00  0.00    +0.000 A 
ATOM      6  N   UNL     1       7.191   5.513  15.597  0.00  0.00    +0.000 NA
ATOM      7  N   UNL     1       7.667   5.168  14.349  0.00  0.00    +0.000 NA
ATOM      8  C   UNL     1       6.683   4.595  13.702  0.00  0.00    +0.000 A 
ATOM      9  N   UNL     1       5.581   4.544  14.502  0.00  0.00    +0.000 N 
ATOM     10  H   UNL     1       4.035   5.186  16.522  0.00  0.00    +0.000 HD
ATOM     11  H   UNL     1       4.668   4.217  14.237  0.00  0.00    +0.000 HD
ENDBRANCH   1   2
BRANCH   1  13
ATOM     12  C   UNL     1       2.233   8.633  18.071  0.00  0.00    +0.000 C 
ATOM     13  C   UNL     1       3.044   7.457  17.527  0.00  0.00    +0.000 C 
ENDBRANCH   1  13
BRANCH   1  14
ATOM     14  O   UNL     1       3.496   5.838  19.449  0.00  0.00    +0.000 OA
BRANCH  14  15
ATOM     15  C   UNL     1       2.254   5.185  19.167  0.00  0.00    +0.000 C 
ATOM     16  C   UNL     1       1.487   4.918  20.473  0.00  0.00    +0.000 C 
ATOM     17  C   UNL     1       2.124   3.837  21.340  0.00  0.00    +0.000 C 
ATOM     18  C   UNL     1       2.315   2.537  20.562  0.00  0.00    +0.000 C 
ATOM     19  C   UNL     1       3.108   2.788  19.280  0.00  0.00    +0.000 C 
ATOM     20  C   UNL     1       3.321   1.510  18.476  0.00  0.00    +0.000 C 
ATOM     21  C   UNL     1       2.446   3.869  18.409  0.00  0.00    +0.000 C 
ENDBRANCH  14  15
ENDBRANCH   1  14
TORSDOF 4
ENDMDL
MODEL 5
REMARK VINA RESULT:      -7.0      4.178      6.133
REMARK  Name = 
REMARK  6 active torsions:
REMARK  status: ('A' for Active; 'I' for Inactive)
REMARK    1  A    between atoms: C_1  and  C_2
REMARK    2  A    between atoms: C_2  and  C_3
REMARK    3  A    between atoms: C_3  and  O_4
REMARK    4  A    between atoms: C_3  and  C_12
REMARK    5  A    between atoms: O_4  and  C_5
REMARK    6  A    between atoms: C_9  and  C_10
REMARK                            x       y       z     vdW  Elec       q    Type
REMARK                         _______ _______ _______ _____ _____    ______ ____
ROOT
ATOM      1  C   UNL     1       3.679   6.276  17.998  0.00  0.00    +0.000 C 
ENDROOT
BRANCH   1   2
ATOM      2  C   UNL     1       2.626   7.347  18.389  0.00  0.00    +0.000 C 
ATOM      3  O   UNL     1       2.196   8.158  17.579  0.00  0.00    +0.000 OA
ATOM      4  N   UNL     1       2.236   7.220  19.713  0.00  0.00    +0.000 N 
ATOM      5  C   UNL     1       1.620   8.262  20.363  0.00  0.00    +0.000 A 
ATOM      6  N   UNL     1       1.200   9.414  19.895  0.00  0.00    +0.000 NA
ATOM      7  N   UNL     1       0.783  10.195  20.953  0.00  0.00    +0.000 NA
ATOM      8  C   UNL     1       0.950   9.493  22.045  0.00  0.00    +0.000 A 
ATOM      9  N   UNL     1       1.451   8.267  21.726  0.00  0.00    +0.000 N 
ATOM     10  H   UNL     1       2.638   6.458  20.241  0.00  0.00    +0.000 HD
ATOM     11  H   UNL     1       1.736   7.552  22.374  0.00  0.00    +0.000 HD
ENDBRANCH   1   2
BRANCH   1  13
ATOM     12  C   UNL     1       5.229   6.115  15.848  0.00  0.00    +0.000 C 
ATOM     13  C   UNL     1       4.838   6.839  17.137  0.00  0.00    +0.000 C 
ENDBRANCH   1  13
BRANCH   1  14
ATOM     14  O   UNL     1       4.020   5.324  19.023  0.00  0.00    +0.000 OA
BRANCH  14  15
ATOM     15  C   UNL     1       3.904   3.928  18.727  0.00  0.00    +0.000 C 
ATOM     16  C   UNL     1       2.892   3.710  17.588  0.00  0.00    +0.000 C 
ATOM     17  C   UNL     1       1.449   3.979  18.000  0.00  0.00    +0.000 C 
ATOM     18  C   UNL     1       1.055   3.157  19.226  0.00  0.00    +0.000 C 
ATOM     19  C   UNL     1       2.035   3.397  20.373  0.00  0.00    +0.000 C 
ATOM     20  C   UNL     1       1.671   2.592  21.617  0.00  0.00    +0.000 C 
ATOM     21  C   UNL     1       3.484   3.106  19.948  0.00  0.00    +0.000 C 
ENDBRANCH  14  15
ENDBRANCH   1  14
TORSDOF 4
ENDMDL
MODEL 6
REMARK VINA RESULT:      -7.0      1.304      1.700
REMARK  Name = 
REMARK  6 active torsions:
REMARK  status: ('A' for Active; 'I' for Inactive)
REMARK    1  A    between atoms: C_1  and  C_2
REMARK    2  A    between atoms: C_2  and  C_3
REMARK    3  A    between atoms: C_3  and  O_4
REMARK    4  A    between atoms: C_3  and  C_12
REMARK    5  A    between atoms: O_4  and  C_5
REMARK    6  A    between atoms: C_9  and  C_10
REMARK                            x       y       z     vdW  Elec       q    Type
REMARK                         _______ _______ _______ _____ _____    ______ ____
ROOT
ATOM      1  C   UNL     1       6.236   4.894  17.618  0.00  0.00    +0.000 C 
ENDROOT
BRANCH   1   2
ATOM      2  C   UNL     1       6.928   5.038  16.236  0.00  0.00    +0.000 C 
ATOM      3  O   UNL     1       7.670   5.977  15.978  0.00  0.00    +0.000 OA
ATOM      4  N   UNL     1       6.628   3.973  15.402  0.00  0.00    +0.000 N 
ATOM      5  C   UNL     1       6.814   4.075  14.043  0.00  0.00    +0.000 A 
ATOM      6  N   UNL     1       7.368   5.035  13.341  0.00  0.00    +0.000 NA
ATOM      7  N   UNL     1       7.190   4.760  12.001  0.00  0.00    +0.000 NA
ATOM      8  C   UNL     1       6.537   3.629  11.918  0.00  0.00    +0.000 A 
ATOM      9  N   UNL     1       6.297   3.149  13.170  0.00  0.00    +0.000 N 
ATOM     10  H   UNL     1       6.046   3.239  15.781  0.00  0.00    +0.000 HD
ATOM     11  H   UNL     1       5.758   2.333  13.402  0.00  0.00    +0.000 HD
ENDBRANCH   1   2
BRANCH   1  13
ATOM     12  C   UNL     1       7.943   5.750  19.462  0.00  0.00    +0.000 C 
ATOM     13  C   UNL     1       6.673   5.973  18.640  0.00  0.00    +0.000 C 
ENDBRANCH   1  13
BRANCH   1  14
ATOM     14  O   UNL     1       4.841   4.537  17.589  0.00  0.00    +0.000 OA
BRANCH  14  15
ATOM     15  C   UNL     1       4.371   3.537  18.500  0.00  0.00    +0.000 C 
ATOM     16  C   UNL     1       3.421   2.567  17.777  0.00  0.00    +0.000 C 
ATOM     17  C   UNL     1       2.080   3.192  17.410  0.00  0.00    +0.000 C 
ATOM     18  C   UNL     1       1.392   3.797  18.631  0.00  0.00    +0.000 C 
ATOM     19  C   UNL     1       2.316   4.790  19.334  0.00  0.00    +0.000 C 
ATOM     20  C   UNL     1       1.661   5.418  20.560  0.00  0.00    +0.000 C 
ATOM     21  C   UNL     1       3.658   4.142  19.712  0.00  0.00    +0.000 C 
ENDBRANCH  14  15
ENDBRANCH   1  14
TORSDOF 4
ENDMDL
MODEL 7
REMARK VINA RESULT:      -6.9      1.333      2.190
REMARK  Name = 
REMARK  6 active torsions:
REMARK  status: ('A' for Active; 'I' for Inactive)
REMARK    1  A    between atoms: C_1  and  C_2
REMARK    2  A    between atoms: C_2  and  C_3
REMARK    3  A    between atoms: C_3  and  O_4
REMARK    4  A    between atoms: C_3  and  C_12
REMARK    5  A    between atoms: O_4  and  C_5
REMARK    6  A    between atoms: C_9  and  C_10
REMARK                            x       y       z     vdW  Elec       q    Type
REMARK                         _______ _______ _______ _____ _____    ______ ____
ROOT
ATOM      1  C   UNL     1       5.701   5.191  17.592  0.00  0.00    +0.000 C 
ENDROOT
BRANCH   1   2
ATOM      2  C   UNL     1       6.581   5.275  16.316  0.00  0.00    +0.000 C 
ATOM      3  O   UNL     1       7.370   6.192  16.133  0.00  0.00    +0.000 OA
ATOM      4  N   UNL     1       6.378   4.185  15.484  0.00  0.00    +0.000 N 
ATOM      5  C   UNL     1       6.753   4.236  14.162  0.00  0.00    +0.000 A 
ATOM      6  N   UNL     1       7.418   5.161  13.512  0.00  0.00    +0.000 NA
ATOM      7  N   UNL     1       7.423   4.842  12.170  0.00  0.00    +0.000 NA
ATOM      8  C   UNL     1       6.764   3.718  12.035  0.00  0.00    +0.000 A 
ATOM      9  N   UNL     1       6.344   3.287  13.257  0.00  0.00    +0.000 N 
ATOM     10  H   UNL     1       5.735   3.475  15.803  0.00  0.00    +0.000 HD
ATOM     11  H   UNL     1       5.761   2.488  13.439  0.00  0.00    +0.000 HD
ENDBRANCH   1   2
BRANCH   1  13
ATOM     12  C   UNL     1       7.788   5.527  19.198  0.00  0.00    +0.000 C 
ATOM     13  C   UNL     1       6.344   5.868  18.828  0.00  0.00    +0.000 C 
ENDBRANCH   1  13
BRANCH   1  14
ATOM     14  O   UNL     1       4.288   5.381  17.396  0.00  0.00    +0.000 OA
BRANCH  14  15
ATOM     15  C   UNL     1       3.450   4.225  17.286  0.00  0.00    +0.000 C 
ATOM     16  C   UNL     1       2.024   4.557  17.757  0.00  0.00    +0.000 C 
ATOM     17  C   UNL     1       1.919   4.775  19.262  0.00  0.00    +0.000 C 
ATOM     18  C   UNL     1       2.471   3.582  20.041  0.00  0.00    +0.000 C 
ATOM     19  C   UNL     1       3.901   3.270  19.603  0.00  0.00    +0.000 C 
ATOM     20  C   UNL     1       4.488   2.083  20.361  0.00  0.00    +0.000 C 
ATOM     21  C   UNL     1       3.989   3.036  18.086  0.00  0.00    +0.000 C 
ENDBRANCH  14  15
ENDBRANCH   1  14
TORSDOF 4
ENDMDL
MODEL 8
REMARK VINA RESULT:      -6.9      1.811      3.547
REMARK  Name = 
REMARK  6 active torsions:
REMARK  status: ('A' for Active; 'I' for Inactive)
REMARK    1  A    between atoms: C_1  and  C_2
REMARK    2  A    between atoms: C_2  and  C_3
REMARK    3  A    between atoms: C_3  and  O_4
REMARK    4  A    between atoms: C_3  and  C_12
REMARK    5  A    between atoms: O_4  and  C_5
REMARK    6  A    between atoms: C_9  and  C_10
REMARK                            x       y       z     vdW  Elec       q    Type
REMARK                         _______ _______ _______ _____ _____    ______ ____
ROOT
ATOM      1  C   UNL     1       4.165   3.683  19.063  0.00  0.00    +0.000 C 
ENDROOT
BRANCH   1   2
ATOM      2  C   UNL     1       5.446   4.140  18.314  0.00  0.00    +0.000 C 
ATOM      3  O   UNL     1       6.314   4.807  18.862  0.00  0.00    +0.000 OA
ATOM      4  N   UNL     1       5.474   3.663  17.013  0.00  0.00    +0.000 N 
ATOM      5  C   UNL     1       6.298   4.238  16.075  0.00  0.00    +0.000 A 
ATOM      6  N   UNL     1       7.218   5.163  16.219  0.00  0.00    +0.000 NA
ATOM      7  N   UNL     1       7.676   5.527  14.970  0.00  0.00    +0.000 NA
ATOM      8  C   UNL     1       7.029   4.805  14.091  0.00  0.00    +0.000 A 
ATOM      9  N   UNL     1       6.170   3.967  14.735  0.00  0.00    +0.000 N 
ATOM     10  H   UNL     1       4.709   3.071  16.722  0.00  0.00    +0.000 HD
ATOM     11  H   UNL     1       5.503   3.350  14.303  0.00  0.00    +0.000 HD
ENDBRANCH   1   2
BRANCH   1  13
ATOM     12  C   UNL     1       3.777   1.058  18.976  0.00  0.00    +0.000 C 
ATOM     13  C   UNL     1       4.302   2.287  19.719  0.00  0.00    +0.000 C 
ENDBRANCH   1  13
BRANCH   1  14
ATOM     14  O   UNL     1       3.478   4.701  19.814  0.00  0.00    +0.000 OA
BRANCH  14  15
ATOM     15  C   UNL     1       2.128   5.020  19.459  0.00  0.00    +0.000 C 
ATOM     16  C   UNL     1       2.078   5.612  18.040  0.00  0.00    +0.000 C 
ATOM     17  C   UNL     1       2.677   7.010  17.945  0.00  0.00    +0.000 C 
ATOM     18  C   UNL     1       2.026   7.966  18.942  0.00  0.00    +0.000 C 
ATOM     19  C   UNL     1       2.104   7.402  20.359  0.00  0.00    +0.000 C 
ATOM     20  C   UNL     1       1.463   8.333  21.385  0.00  0.00    +0.000 C 
ATOM     21  C   UNL     1       1.482   5.998  20.443  0.00  0.00    +0.000 C 
ENDBRANCH  14  15
ENDBRANCH   1  14
TORSDOF 4
ENDMDL
MODEL 9
REMARK VINA RESULT:      -6.9      1.370      2.786
REMARK  Name = 
REMARK  6 active torsions:
REMARK  status: ('A' for Active; 'I' for Inactive)
REMARK    1  A    between atoms: C_1  and  C_2
REMARK    2  A    between atoms: C_2  and  C_3
REMARK    3  A    between atoms: C_3  and  O_4
REMARK    4  A    between atoms: C_3  and  C_12
REMARK    5  A    between atoms: O_4  and  C_5
REMARK    6  A    between atoms: C_9  and  C_10
REMARK                            x       y       z     vdW  Elec       q    Type
REMARK                         _______ _______ _______ _____ _____    ______ ____
ROOT
ATOM      1  C   UNL     1       4.988   4.836  18.103  0.00  0.00    +0.000 C 
ENDROOT
BRANCH   1   2
ATOM      2  C   UNL     1       6.104   5.036  17.043  0.00  0.00    +0.000 C 
ATOM      3  O   UNL     1       6.985   5.875  17.181  0.00  0.00    +0.000 OA
ATOM      4  N   UNL     1       5.981   4.136  15.997  0.00  0.00    +0.000 N 
ATOM      5  C   UNL     1       6.609   4.370  14.796  0.00  0.00    +0.000 A 
ATOM      6  N   UNL     1       7.461   5.311  14.463  0.00  0.00    +0.000 NA
ATOM      7  N   UNL     1       7.701   5.228  13.107  0.00  0.00    +0.000 NA
ATOM      8  C   UNL     1       6.994   4.227  12.646  0.00  0.00    +0.000 A 
ATOM      9  N   UNL     1       6.310   3.644  13.669  0.00  0.00    +0.000 N 
ATOM     10  H   UNL     1       5.233   3.460  16.055  0.00  0.00    +0.000 HD
ATOM     11  H   UNL     1       5.640   2.898  13.590  0.00  0.00    +0.000 HD
ENDBRANCH   1   2
BRANCH   1  13
ATOM     12  C   UNL     1       4.473   2.643  19.509  0.00  0.00    +0.000 C 
ATOM     13  C   UNL     1       5.378   3.843  19.226  0.00  0.00    +0.000 C 
ENDBRANCH   1  13
BRANCH   1  14
ATOM     14  O   UNL     1       4.267   6.020  18.490  0.00  0.00    +0.000 OA
BRANCH  14  15
ATOM     15  C   UNL     1       2.900   6.153  18.084  0.00  0.00    +0.000 C 
ATOM     16  C   UNL     1       2.320   7.481  18.602  0.00  0.00    +0.000 C 
ATOM     17  C   UNL     1       2.115   7.505  20.112  0.00  0.00    +0.000 C 
ATOM     18  C   UNL     1       1.255   6.332  20.579  0.00  0.00    +0.000 C 
ATOM     19  C   UNL     1       1.845   5.007  20.100  0.00  0.00    +0.000 C 
ATOM     20  C   UNL     1       1.012   3.811  20.549  0.00  0.00    +0.000 C 
ATOM     21  C   UNL     1       2.031   4.991  18.573  0.00  0.00    +0.000 C 
ENDBRANCH  14  15
ENDBRANCH   1  14
TORSDOF 4
ENDMDL
