MODEL 1
REMARK VINA RESULT:      -6.5      0.000      0.000
REMARK  Name = 
REMARK  5 active torsions:
REMARK  status: ('A' for Active; 'I' for Inactive)
REMARK    1  A    between atoms: C_2  and  C_3
REMARK    2  A    between atoms: C_14  and  C_15
REMARK    3  A    between atoms: C_15  and  N_16
REMARK    4  A    between atoms: C_18  and  C_19
REMARK    5  A    between atoms: C_19  and  O_20
REMARK                            x       y       z     vdW  Elec       q    Type
REMARK                         _______ _______ _______ _____ _____    ______ ____
ROOT
ATOM      1  O   UNL     1       0.039   8.586  21.384  0.00  0.00    +0.000 OA
ATOM      2  C   UNL     1       0.717   9.009  20.447  0.00  0.00    +0.000 C 
ATOM      3  N   UNL     1       1.662   8.217  19.782  0.00  0.00    +0.000 N 
ATOM      4  C   UNL     1       2.533   8.654  18.684  0.00  0.00    +0.000 C 
ATOM      5  C   UNL     1       2.565   7.629  17.559  0.00  0.00    +0.000 C 
ATOM      6  C   UNL     1       2.948   6.229  18.049  0.00  0.00    +0.000 C 
ATOM      7  C   UNL     1       1.993   5.834  19.192  0.00  0.00    +0.000 C 
ATOM      8  C   UNL     1       1.937   6.882  20.309  0.00  0.00    +0.000 C 
ENDROOT
BRANCH   2   9
ATOM      9  C   UNL     1       0.414  10.383  19.986  0.00  0.00    +0.000 A 
ATOM     10  C   UNL     1       1.008  11.452  20.678  0.00  0.00    +0.000 A 
ATOM     11  C   UNL     1       0.733  12.771  20.304  0.00  0.00    +0.000 A 
ATOM     12  C   UNL     1      -0.140  13.022  19.246  0.00  0.00    +0.000 A 
ATOM     13 CL   UNL     1      -0.517  14.644  18.816  0.00  0.00    +0.000 Cl
ATOM     14  C   UNL     1      -0.702  11.970  18.528  0.00  0.00    +0.000 A 
ATOM     15  C   UNL     1      -0.388  10.658  18.879  0.00  0.00    +0.000 A 
ATOM     16  F   UNL     1      -0.894   9.668  18.131  0.00  0.00    +0.000 F 
ENDBRANCH   2   9
BRANCH   6  17
ATOM     17  C   UNL     1       4.417   6.108  18.500  0.00  0.00    +0.000 C 
BRANCH  17  18
ATOM     18  N   UNL     1       5.365   5.986  17.414  0.00  0.00    +0.000 N 
ATOM     19  C   UNL     1       5.209   5.326  16.234  0.00  0.00    +0.000 A 
ATOM     20  C   UNL     1       6.461   5.380  15.657  0.00  0.00    +0.000 A 
ATOM     21  N   UNL     1       7.302   6.087  16.478  0.00  0.00    +0.000 NA
ATOM     22  N   UNL     1       6.616   6.456  17.551  0.00  0.00    +0.000 NA
BRANCH  20  23
ATOM     23  C   UNL     1       6.961   4.761  14.408  0.00  0.00    +0.000 C 
BRANCH  23  24
ATOM     24  O   UNL     1       7.937   5.587  13.772  0.00  0.00    +0.000 OA
ATOM     25  H   UNL     1       8.758   5.466  14.283  0.00  0.00    +0.000 HD
ENDBRANCH  23  24
ENDBRANCH  20  23
ENDBRANCH  17  18
ENDBRANCH   6  17
TORSDOF 5
ENDMDL
MODEL 2
REMARK VINA RESULT:      -6.4      1.047      1.069
REMARK  Name = 
REMARK  5 active torsions:
REMARK  status: ('A' for Active; 'I' for Inactive)
REMARK    1  A    between atoms: C_2  and  C_3
REMARK    2  A    between atoms: C_14  and  C_15
REMARK    3  A    between atoms: C_15  and  N_16
REMARK    4  A    between atoms: C_18  and  C_19
REMARK    5  A    between atoms: C_19  and  O_20
REMARK                            x       y       z     vdW  Elec       q    Type
REMARK                         _______ _______ _______ _____ _____    ______ ____
ROOT
ATOM      1  O   UNL     1      -0.352   8.380  21.705  0.00  0.00    +0.000 OA
ATOM      2  C   UNL     1       0.461   8.693  20.834  0.00  0.00    +0.000 C 
ATOM      3  N   UNL     1       1.425   7.800  20.346  0.00  0.00    +0.000 N 
ATOM      4  C   UNL     1       2.450   8.105  19.340  0.00  0.00    +0.000 C 
ATOM      5  C   UNL     1       2.549   7.001  18.297  0.00  0.00    +0.000 C 
ATOM      6  C   UNL     1       2.775   5.620  18.922  0.00  0.00    +0.000 C 
ATOM      7  C   UNL     1       1.665   5.366  19.958  0.00  0.00    +0.000 C 
ATOM      8  C   UNL     1       1.544   6.494  20.989  0.00  0.00    +0.000 C 
ENDROOT
BRANCH   2   9
ATOM      9  C   UNL     1       0.309  10.045  20.251  0.00  0.00    +0.000 A 
ATOM     10  C   UNL     1       0.603  11.149  21.069  0.00  0.00    +0.000 A 
ATOM     11  C   UNL     1       0.448  12.449  20.578  0.00  0.00    +0.000 A 
ATOM     12  C   UNL     1      -0.008  12.646  19.275  0.00  0.00    +0.000 A 
ATOM     13 CL   UNL     1      -0.245  14.245  18.687  0.00  0.00    +0.000 Cl
ATOM     14  C   UNL     1      -0.262  11.560  18.443  0.00  0.00    +0.000 A 
ATOM     15  C   UNL     1      -0.063  10.268  18.926  0.00  0.00    +0.000 A 
ATOM     16  F   UNL     1      -0.257   9.245  18.082  0.00  0.00    +0.000 F 
ENDBRANCH   2   9
BRANCH   6  17
ATOM     17  C   UNL     1       4.167   5.447  19.560  0.00  0.00    +0.000 C 
BRANCH  17  18
ATOM     18  N   UNL     1       5.229   5.186  18.612  0.00  0.00    +0.000 N 
ATOM     19  C   UNL     1       5.138   5.084  17.258  0.00  0.00    +0.000 A 
ATOM     20  C   UNL     1       6.393   4.659  16.875  0.00  0.00    +0.000 A 
ATOM     21  N   UNL     1       7.190   4.555  17.986  0.00  0.00    +0.000 NA
ATOM     22  N   UNL     1       6.464   4.885  19.046  0.00  0.00    +0.000 NA
BRANCH  20  23
ATOM     23  C   UNL     1       6.902   4.275  15.537  0.00  0.00    +0.000 C 
BRANCH  23  24
ATOM     24  O   UNL     1       7.701   5.310  14.967  0.00  0.00    +0.000 OA
ATOM     25  H   UNL     1       7.763   6.002  15.651  0.00  0.00    +0.000 HD
ENDBRANCH  23  24
ENDBRANCH  20  23
ENDBRANCH  17  18
ENDBRANCH   6  17
TORSDOF 5
ENDMDL
MODEL 3
REMARK VINA RESULT:      -6.4      2.622      3.527
REMARK  Name = 
REMARK  5 active torsions:
REMARK  status: ('A' for Active; 'I' for Inactive)
REMARK    1  A    between atoms: C_2  and  C_3
REMARK    2  A    between atoms: C_14  and  C_15
REMARK    3  A    between atoms: C_15  and  N_16
REMARK    4  A    between atoms: C_18  and  C_19
REMARK    5  A    between atoms: C_19  and  O_20
REMARK                            x       y       z     vdW  Elec       q    Type
REMARK                         _______ _______ _______ _____ _____    ______ ____
ROOT
ATOM      1  O   UNL     1       1.767   5.628  20.815  0.00  0.00    +0.000 OA
ATOM      2  C   UNL     1       2.367   6.271  19.953  0.00  0.00    +0.000 C 
ATOM      3  N   UNL     1       3.431   5.734  19.215  0.00  0.00    +0.000 N 
ATOM      4  C   UNL     1       4.220   6.443  18.200  0.00  0.00    +0.000 C 
ATOM      5  C   UNL     1       4.422   5.588  16.957  0.00  0.00    +0.000 C 
ATOM      6  C   UNL     1       5.030   4.218  17.278  0.00  0.00    +0.000 C 
ATOM      7  C   UNL     1       4.152   3.532  18.341  0.00  0.00    +0.000 C 
ATOM      8  C   UNL     1       3.921   4.407  19.578  0.00  0.00    +0.000 C 
ENDROOT
BRANCH   2   9
ATOM      9  C   UNL     1       1.842   7.624  19.660  0.00  0.00    +0.000 A 
ATOM     10  C   UNL     1       1.823   8.042  18.318  0.00  0.00    +0.000 A 
ATOM     11  C   UNL     1       1.364   9.322  17.988  0.00  0.00    +0.000 A 
ATOM     12  C   UNL     1       0.935  10.184  18.996  0.00  0.00    +0.000 A 
ATOM     13 CL   UNL     1       0.418  11.775  18.595  0.00  0.00    +0.000 Cl
ATOM     14  C   UNL     1       0.912   9.765  20.323  0.00  0.00    +0.000 A 
ATOM     15  C   UNL     1       1.329   8.473  20.639  0.00  0.00    +0.000 A 
ATOM     16  F   UNL     1       1.237   8.077  21.916  0.00  0.00    +0.000 F 
ENDBRANCH   2   9
BRANCH   6  17
ATOM     17  C   UNL     1       6.498   4.284  17.743  0.00  0.00    +0.000 C 
BRANCH  17  18
ATOM     18  N   UNL     1       7.136   5.563  17.523  0.00  0.00    +0.000 N 
ATOM     19  C   UNL     1       7.462   6.507  18.447  0.00  0.00    +0.000 A 
ATOM     20  C   UNL     1       7.877   7.583  17.689  0.00  0.00    +0.000 A 
ATOM     21  N   UNL     1       7.820   7.243  16.361  0.00  0.00    +0.000 NA
ATOM     22  N   UNL     1       7.365   6.000  16.273  0.00  0.00    +0.000 NA
BRANCH  20  23
ATOM     23  C   UNL     1       8.271   8.948  18.107  0.00  0.00    +0.000 C 
BRANCH  23  24
ATOM     24  O   UNL     1       9.083   8.919  19.281  0.00  0.00    +0.000 OA
ATOM     25  H   UNL     1       9.939   9.304  19.019  0.00  0.00    +0.000 HD
ENDBRANCH  23  24
ENDBRANCH  20  23
ENDBRANCH  17  18
ENDBRANCH   6  17
TORSDOF 5
ENDMDL
MODEL 4
REMARK VINA RESULT:      -6.3      4.394      9.052
REMARK  Name = 
REMARK  5 active torsions:
REMARK  status: ('A' for Active; 'I' for Inactive)
REMARK    1  A    between atoms: C_2  and  C_3
REMARK    2  A    between atoms: C_14  and  C_15
REMARK    3  A    between atoms: C_15  and  N_16
REMARK    4  A    between atoms: C_18  and  C_19
REMARK    5  A    between atoms: C_19  and  O_20
REMARK                            x       y       z     vdW  Elec       q    Type
REMARK                         _______ _______ _______ _____ _____    ______ ____
ROOT
ATOM      1  O   UNL     1       2.958   7.861  17.128  0.00  0.00    +0.000 OA
ATOM      2  C   UNL     1       2.648   7.383  18.220  0.00  0.00    +0.000 C 
ATOM      3  N   UNL     1       1.953   8.115  19.193  0.00  0.00    +0.000 N 
ATOM      4  C   UNL     1       1.580   7.633  20.528  0.00  0.00    +0.000 C 
ATOM      5  C   UNL     1       0.139   7.992  20.865  0.00  0.00    +0.000 C 
ATOM      6  C   UNL     1      -0.144   9.491  20.713  0.00  0.00    +0.000 C 
ATOM      7  C   UNL     1       0.265   9.923  19.293  0.00  0.00    +0.000 C 
ATOM      8  C   UNL     1       1.705   9.532  18.943  0.00  0.00    +0.000 C 
ENDROOT
BRANCH   2   9
ATOM      9  C   UNL     1       2.962   5.951  18.423  0.00  0.00    +0.000 A 
ATOM     10  C   UNL     1       4.122   5.631  19.149  0.00  0.00    +0.000 A 
ATOM     11  C   UNL     1       4.482   4.294  19.345  0.00  0.00    +0.000 A 
ATOM     12  C   UNL     1       3.690   3.279  18.809  0.00  0.00    +0.000 A 
ATOM     13 CL   UNL     1       4.159   1.636  19.008  0.00  0.00    +0.000 Cl
ATOM     14  C   UNL     1       2.518   3.584  18.124  0.00  0.00    +0.000 A 
ATOM     15  C   UNL     1       2.143   4.917  17.971  0.00  0.00    +0.000 A 
ATOM     16  F   UNL     1       0.978   5.177  17.360  0.00  0.00    +0.000 F 
ENDBRANCH   2   9
BRANCH   6  17
ATOM     17  C   UNL     1       0.555  10.365  21.773  0.00  0.00    +0.000 C 
BRANCH  17  18
ATOM     18  N   UNL     1      -0.270  11.426  22.309  0.00  0.00    +0.000 N 
ATOM     19  C   UNL     1      -1.393  11.311  23.069  0.00  0.00    +0.000 A 
ATOM     20  C   UNL     1      -1.869  12.604  23.151  0.00  0.00    +0.000 A 
ATOM     21  N   UNL     1      -1.013  13.440  22.481  0.00  0.00    +0.000 NA
ATOM     22  N   UNL     1      -0.034  12.704  21.970  0.00  0.00    +0.000 NA
BRANCH  20  23
ATOM     23  C   UNL     1      -3.113  13.124  23.765  0.00  0.00    +0.000 C 
BRANCH  23  24
ATOM     24  O   UNL     1      -4.181  12.185  23.653  0.00  0.00    +0.000 OA
ATOM     25  H   UNL     1      -4.512  12.269  22.740  0.00  0.00    +0.000 HD
ENDBRANCH  23  24
ENDBRANCH  20  23
ENDBRANCH  17  18
ENDBRANCH   6  17
TORSDOF 5
ENDMDL
MODEL 5
REMARK VINA RESULT:      -6.3      4.471      9.256
REMARK  Name = 
REMARK  5 active torsions:
REMARK  status: ('A' for Active; 'I' for Inactive)
REMARK    1  A    between atoms: C_2  and  C_3
REMARK    2  A    between atoms: C_14  and  C_15
REMARK    3  A    between atoms: C_15  and  N_16
REMARK    4  A    between atoms: C_18  and  C_19
REMARK    5  A    between atoms: C_19  and  O_20
REMARK                            x       y       z     vdW  Elec       q    Type
REMARK                         _______ _______ _______ _____ _____    ______ ____
ROOT
ATOM      1  O   UNL     1       2.317   8.717  17.075  0.00  0.00    +0.000 OA
ATOM      2  C   UNL     1       2.229   8.234  18.205  0.00  0.00    +0.000 C 
ATOM      3  N   UNL     1       1.555   8.879  19.251  0.00  0.00    +0.000 N 
ATOM      4  C   UNL     1       1.436   8.390  20.630  0.00  0.00    +0.000 C 
ATOM      5  C   UNL     1       0.011   8.528  21.147  0.00  0.00    +0.000 C 
ATOM      6  C   UNL     1      -0.526   9.957  21.015  0.00  0.00    +0.000 C 
ATOM      7  C   UNL     1      -0.376  10.401  19.548  0.00  0.00    +0.000 C 
ATOM      8  C   UNL     1       1.052  10.230  19.018  0.00  0.00    +0.000 C 
ENDROOT
BRANCH   2   9
ATOM      9  C   UNL     1       2.792   6.877  18.383  0.00  0.00    +0.000 A 
ATOM     10  C   UNL     1       1.943   5.875  18.882  0.00  0.00    +0.000 A 
ATOM     11  C   UNL     1       2.431   4.582  19.097  0.00  0.00    +0.000 A 
ATOM     12  C   UNL     1       3.767   4.294  18.823  0.00  0.00    +0.000 A 
ATOM     13 CL   UNL     1       4.381   2.717  19.134  0.00  0.00    +0.000 Cl
ATOM     14  C   UNL     1       4.606   5.267  18.291  0.00  0.00    +0.000 A 
ATOM     15  C   UNL     1       4.100   6.541  18.037  0.00  0.00    +0.000 A 
ATOM     16  F   UNL     1       4.915   7.439  17.467  0.00  0.00    +0.000 F 
ENDBRANCH   2   9
BRANCH   6  17
ATOM     17  C   UNL     1       0.152  10.966  21.962  0.00  0.00    +0.000 C 
BRANCH  17  18
ATOM     18  N   UNL     1      -0.767  11.828  22.673  0.00  0.00    +0.000 N 
ATOM     19  C   UNL     1      -1.982  11.507  23.198  0.00  0.00    +0.000 A 
ATOM     20  C   UNL     1      -2.499  12.722  23.599  0.00  0.00    +0.000 A 
ATOM     21  N   UNL     1      -1.581  13.707  23.338  0.00  0.00    +0.000 NA
ATOM     22  N   UNL     1      -0.522  13.145  22.772  0.00  0.00    +0.000 NA
BRANCH  20  23
ATOM     23  C   UNL     1      -3.829  13.052  24.160  0.00  0.00    +0.000 C 
BRANCH  23  24
ATOM     24  O   UNL     1      -4.511  11.881  24.608  0.00  0.00    +0.000 OA
ATOM     25  H   UNL     1      -5.426  11.967  24.280  0.00  0.00    +0.000 HD
ENDBRANCH  23  24
ENDBRANCH  20  23
ENDBRANCH  17  18
ENDBRANCH   6  17
TORSDOF 5
ENDMDL
MODEL 6
REMARK VINA RESULT:      -6.3      4.223      7.875
REMARK  Name = 
REMARK  5 active torsions:
REMARK  status: ('A' for Active; 'I' for Inactive)
REMARK    1  A    between atoms: C_2  and  C_3
REMARK    2  A    between atoms: C_14  and  C_15
REMARK    3  A    between atoms: C_15  and  N_16
REMARK    4  A    between atoms: C_18  and  C_19
REMARK    5  A    between atoms: C_19  and  O_20
REMARK                            x       y       z     vdW  Elec       q    Type
REMARK                         _______ _______ _______ _____ _____    ______ ____
ROOT
ATOM      1  O   UNL     1       3.599   5.456  20.349  0.00  0.00    +0.000 OA
ATOM      2  C   UNL     1       3.226   6.027  19.324  0.00  0.00    +0.000 C 
ATOM      3  N   UNL     1       2.272   7.054  19.337  0.00  0.00    +0.000 N 
ATOM      4  C   UNL     1       1.749   7.758  18.160  0.00  0.00    +0.000 C 
ATOM      5  C   UNL     1       1.703   9.263  18.389  0.00  0.00    +0.000 C 
ATOM      6  C   UNL     1       0.927   9.641  19.655  0.00  0.00    +0.000 C 
ATOM      7  C   UNL     1       1.531   8.873  20.845  0.00  0.00    +0.000 C 
ATOM      8  C   UNL     1       1.608   7.362  20.601  0.00  0.00    +0.000 C 
ENDROOT
BRANCH   2   9
ATOM      9  C   UNL     1       3.914   5.642  18.071  0.00  0.00    +0.000 A 
ATOM     10  C   UNL     1       4.720   6.606  17.442  0.00  0.00    +0.000 A 
ATOM     11  C   UNL     1       5.370   6.305  16.241  0.00  0.00    +0.000 A 
ATOM     12  C   UNL     1       5.207   5.046  15.664  0.00  0.00    +0.000 A 
ATOM     13 CL   UNL     1       5.965   4.691  14.161  0.00  0.00    +0.000 Cl
ATOM     14  C   UNL     1       4.443   4.070  16.299  0.00  0.00    +0.000 A 
ATOM     15  C   UNL     1       3.836   4.364  17.518  0.00  0.00    +0.000 A 
ATOM     16  F   UNL     1       3.159   3.386  18.136  0.00  0.00    +0.000 F 
ENDBRANCH   2   9
BRANCH   6  17
ATOM     17  C   UNL     1      -0.589   9.387  19.554  0.00  0.00    +0.000 C 
BRANCH  17  18
ATOM     18  N   UNL     1      -1.271  10.220  18.588  0.00  0.00    +0.000 N 
ATOM     19  C   UNL     1      -2.133   9.834  17.608  0.00  0.00    +0.000 A 
ATOM     20  C   UNL     1      -2.342  10.987  16.880  0.00  0.00    +0.000 A 
ATOM     21  N   UNL     1      -1.640  12.014  17.456  0.00  0.00    +0.000 NA
ATOM     22  N   UNL     1      -0.988  11.531  18.505  0.00  0.00    +0.000 NA
BRANCH  20  23
ATOM     23  C   UNL     1      -3.110  11.199  15.631  0.00  0.00    +0.000 C 
BRANCH  23  24
ATOM     24  O   UNL     1      -2.644  10.349  14.582  0.00  0.00    +0.000 OA
ATOM     25  H   UNL     1      -2.082   9.681  15.015  0.00  0.00    +0.000 HD
ENDBRANCH  23  24
ENDBRANCH  20  23
ENDBRANCH  17  18
ENDBRANCH   6  17
TORSDOF 5
ENDMDL
MODEL 7
REMARK VINA RESULT:      -6.3      0.872      1.051
REMARK  Name = 
REMARK  5 active torsions:
REMARK  status: ('A' for Active; 'I' for Inactive)
REMARK    1  A    between atoms: C_2  and  C_3
REMARK    2  A    between atoms: C_14  and  C_15
REMARK    3  A    between atoms: C_15  and  N_16
REMARK    4  A    between atoms: C_18  and  C_19
REMARK    5  A    between atoms: C_19  and  O_20
REMARK                            x       y       z     vdW  Elec       q    Type
REMARK                         _______ _______ _______ _____ _____    ______ ____
ROOT
ATOM      1  O   UNL     1       0.112   8.798  21.768  0.00  0.00    +0.000 OA
ATOM      2  C   UNL     1       0.690   9.140  20.735  0.00  0.00    +0.000 C 
ATOM      3  N   UNL     1       1.528   8.276  20.017  0.00  0.00    +0.000 N 
ATOM      4  C   UNL     1       2.279   8.616  18.803  0.00  0.00    +0.000 C 
ATOM      5  C   UNL     1       2.149   7.527  17.747  0.00  0.00    +0.000 C 
ATOM      6  C   UNL     1       2.544   6.144  18.277  0.00  0.00    +0.000 C 
ATOM      7  C   UNL     1       1.716   5.853  19.542  0.00  0.00    +0.000 C 
ATOM      8  C   UNL     1       1.821   6.965  20.591  0.00  0.00    +0.000 C 
ENDROOT
BRANCH   2   9
ATOM      9  C   UNL     1       0.377  10.495  20.227  0.00  0.00    +0.000 A 
ATOM     10  C   UNL     1       1.134  11.571  20.722  0.00  0.00    +0.000 A 
ATOM     11  C   UNL     1       0.862  12.876  20.298  0.00  0.00    +0.000 A 
ATOM     12  C   UNL     1      -0.171  13.106  19.390  0.00  0.00    +0.000 A 
ATOM     13 CL   UNL     1      -0.539  14.715  18.906  0.00  0.00    +0.000 Cl
ATOM     14  C   UNL     1      -0.900  12.044  18.863  0.00  0.00    +0.000 A 
ATOM     15  C   UNL     1      -0.592  10.742  19.256  0.00  0.00    +0.000 A 
ATOM     16  F   UNL     1      -1.269   9.736  18.686  0.00  0.00    +0.000 F 
ENDBRANCH   2   9
BRANCH   6  17
ATOM     17  C   UNL     1       4.051   5.996  18.564  0.00  0.00    +0.000 C 
BRANCH  17  18
ATOM     18  N   UNL     1       4.785   5.281  17.542  0.00  0.00    +0.000 N 
ATOM     19  C   UNL     1       5.724   5.770  16.688  0.00  0.00    +0.000 A 
ATOM     20  C   UNL     1       5.963   4.720  15.825  0.00  0.00    +0.000 A 
ATOM     21  N   UNL     1       5.200   3.646  16.204  0.00  0.00    +0.000 NA
ATOM     22  N   UNL     1       4.483   4.003  17.261  0.00  0.00    +0.000 NA
BRANCH  20  23
ATOM     23  C   UNL     1       6.817   4.656  14.615  0.00  0.00    +0.000 C 
BRANCH  23  24
ATOM     24  O   UNL     1       7.845   5.646  14.650  0.00  0.00    +0.000 OA
ATOM     25  H   UNL     1       8.172   5.718  13.735  0.00  0.00    +0.000 HD
ENDBRANCH  23  24
ENDBRANCH  20  23
ENDBRANCH  17  18
ENDBRANCH   6  17
TORSDOF 5
ENDMDL
MODEL 8
REMARK VINA RESULT:      -6.2      1.157      1.515
REMARK  Name = 
REMARK  5 active torsions:
REMARK  status: ('A' for Active; 'I' for Inactive)
REMARK    1  A    between atoms: C_2  and  C_3
REMARK    2  A    between atoms: C_14  and  C_15
REMARK    3  A    between atoms: C_15  and  N_16
REMARK    4  A    between atoms: C_18  and  C_19
REMARK    5  A    between atoms: C_19  and  O_20
REMARK                            x       y       z     vdW  Elec       q    Type
REMARK                         _______ _______ _______ _____ _____    ______ ____
ROOT
ATOM      1  O   UNL     1       0.230   8.334  21.775  0.00  0.00    +0.000 OA
ATOM      2  C   UNL     1       0.788   8.625  20.716  0.00  0.00    +0.000 C 
ATOM      3  N   UNL     1       1.622   7.730  20.032  0.00  0.00    +0.000 N 
ATOM      4  C   UNL     1       2.351   8.011  18.789  0.00  0.00    +0.000 C 
ATOM      5  C   UNL     1       2.215   6.865  17.796  0.00  0.00    +0.000 C 
ATOM      6  C   UNL     1       2.632   5.517  18.394  0.00  0.00    +0.000 C 
ATOM      7  C   UNL     1       1.828   5.287  19.687  0.00  0.00    +0.000 C 
ATOM      8  C   UNL     1       1.938   6.456  20.672  0.00  0.00    +0.000 C 
ENDROOT
BRANCH   2   9
ATOM      9  C   UNL     1       0.453   9.947  20.141  0.00  0.00    +0.000 A 
ATOM     10  C   UNL     1      -0.451   9.984  19.066  0.00  0.00    +0.000 A 
ATOM     11  C   UNL     1      -0.780  11.204  18.465  0.00  0.00    +0.000 A 
ATOM     12  C   UNL     1      -0.199  12.383  18.932  0.00  0.00    +0.000 A 
ATOM     13 CL   UNL     1      -0.565  13.877  18.162  0.00  0.00    +0.000 Cl
ATOM     14  C   UNL     1       0.665  12.362  20.022  0.00  0.00    +0.000 A 
ATOM     15  C   UNL     1       0.953  11.148  20.643  0.00  0.00    +0.000 A 
ATOM     16  F   UNL     1       1.740  11.167  21.728  0.00  0.00    +0.000 F 
ENDBRANCH   2   9
BRANCH   6  17
ATOM     17  C   UNL     1       4.144   5.398  18.663  0.00  0.00    +0.000 C 
BRANCH  17  18
ATOM     18  N   UNL     1       4.974   5.571  17.491  0.00  0.00    +0.000 N 
ATOM     19  C   UNL     1       5.146   4.710  16.451  0.00  0.00    +0.000 A 
ATOM     20  C   UNL     1       6.160   5.283  15.712  0.00  0.00    +0.000 A 
ATOM     21  N   UNL     1       6.532   6.463  16.302  0.00  0.00    +0.000 NA
ATOM     22  N   UNL     1       5.795   6.630  17.392  0.00  0.00    +0.000 NA
BRANCH  20  23
ATOM     23  C   UNL     1       6.865   4.779  14.510  0.00  0.00    +0.000 C 
BRANCH  23  24
ATOM     24  O   UNL     1       8.031   5.552  14.228  0.00  0.00    +0.000 OA
ATOM     25  H   UNL     1       7.929   6.378  14.736  0.00  0.00    +0.000 HD
ENDBRANCH  23  24
ENDBRANCH  20  23
ENDBRANCH  17  18
ENDBRANCH   6  17
TORSDOF 5
ENDMDL
MODEL 9
REMARK VINA RESULT:      -6.2      4.090      8.639
REMARK  Name = 
REMARK  5 active torsions:
REMARK  status: ('A' for Active; 'I' for Inactive)
REMARK    1  A    between atoms: C_2  and  C_3
REMARK    2  A    between atoms: C_14  and  C_15
REMARK    3  A    between atoms: C_15  and  N_16
REMARK    4  A    between atoms: C_18  and  C_19
REMARK    5  A    between atoms: C_19  and  O_20
REMARK                            x       y       z     vdW  Elec       q    Type
REMARK                         _______ _______ _______ _____ _____    ______ ____
ROOT
ATOM      1  O   UNL     1       3.492   5.496  20.068  0.00  0.00    +0.000 OA
ATOM      2  C   UNL     1       3.345   6.120  19.016  0.00  0.00    +0.000 C 
ATOM      3  N   UNL     1       2.447   7.188  18.892  0.00  0.00    +0.000 N 
ATOM      4  C   UNL     1       2.186   7.956  17.668  0.00  0.00    +0.000 C 
ATOM      5  C   UNL     1       2.157   9.453  17.948  0.00  0.00    +0.000 C 
ATOM      6  C   UNL     1       1.169   9.823  19.060  0.00  0.00    +0.000 C 
ATOM      7  C   UNL     1       1.504   8.987  20.309  0.00  0.00    +0.000 C 
ATOM      8  C   UNL     1       1.566   7.483  20.019  0.00  0.00    +0.000 C 
ENDROOT
BRANCH   2   9
ATOM      9  C   UNL     1       4.244   5.745  17.901  0.00  0.00    +0.000 A 
ATOM     10  C   UNL     1       5.387   6.535  17.687  0.00  0.00    +0.000 A 
ATOM     11  C   UNL     1       6.255   6.244  16.630  0.00  0.00    +0.000 A 
ATOM     12  C   UNL     1       5.976   5.172  15.782  0.00  0.00    +0.000 A 
ATOM     13 CL   UNL     1       7.016   4.844  14.452  0.00  0.00    +0.000 Cl
ATOM     14  C   UNL     1       4.869   4.360  16.009  0.00  0.00    +0.000 A 
ATOM     15  C   UNL     1       4.034   4.630  17.092  0.00  0.00    +0.000 A 
ATOM     16  F   UNL     1       3.012   3.794  17.321  0.00  0.00    +0.000 F 
ENDBRANCH   2   9
BRANCH   6  17
ATOM     17  C   UNL     1      -0.309   9.643  18.663  0.00  0.00    +0.000 C 
BRANCH  17  18
ATOM     18  N   UNL     1      -1.146  10.789  18.944  0.00  0.00    +0.000 N 
ATOM     19  C   UNL     1      -1.009  11.703  19.943  0.00  0.00    +0.000 A 
ATOM     20  C   UNL     1      -2.158  12.462  19.857  0.00  0.00    +0.000 A 
ATOM     21  N   UNL     1      -2.915  12.010  18.807  0.00  0.00    +0.000 NA
ATOM     22  N   UNL     1      -2.282  10.984  18.253  0.00  0.00    +0.000 NA
BRANCH  20  23
ATOM     23  C   UNL     1      -2.644  13.557  20.728  0.00  0.00    +0.000 C 
BRANCH  23  24
ATOM     24  O   UNL     1      -3.903  14.058  20.280  0.00  0.00    +0.000 OA
ATOM     25  H   UNL     1      -4.565  13.697  20.897  0.00  0.00    +0.000 HD
ENDBRANCH  23  24
ENDBRANCH  20  23
ENDBRANCH  17  18
ENDBRANCH   6  17
TORSDOF 5
ENDMDL
