MODEL 1
REMARK VINA RESULT:      -9.9      0.000      0.000
REMARK  Name = 
REMARK  4 active torsions:
REMARK  status: ('A' for Active; 'I' for Inactive)
REMARK    1  A    between atoms: N_3  and  C_4
REMARK    2  A    between atoms: C_7  and  C_8
REMARK    3  A    between atoms: C_26  and  C_27
REMARK    4  A    between atoms: C_27  and  N_28
REMARK                            x       y       z     vdW  Elec       q    Type
REMARK                         _______ _______ _______ _____ _____    ______ ____
ROOT
ATOM      1  O   UNL     1       1.070  10.919  20.082  0.00  0.00    +0.000 OA
ATOM      2  C   UNL     1       0.519  10.348  21.027  0.00  0.00    +0.000 C 
ATOM      3  N   UNL     1       0.618   8.970  21.234  0.00  0.00    +0.000 N 
ATOM      4  N   UNL     1      -0.237  11.115  21.939  0.00  0.00    +0.000 N 
ATOM      5  C   UNL     1      -1.142  10.724  23.029  0.00  0.00    +0.000 C 
ATOM      6  C   UNL     1      -1.964  11.971  23.292  0.00  0.00    +0.000 A 
ATOM      7  C   UNL     1      -3.223  12.144  23.836  0.00  0.00    +0.000 A 
ATOM      8  C   UNL     1      -3.740  13.446  23.992  0.00  0.00    +0.000 A 
ATOM      9  C   UNL     1      -2.965  14.602  23.725  0.00  0.00    +0.000 A 
ATOM     10  C   UNL     1      -1.703  14.400  23.129  0.00  0.00    +0.000 A 
ATOM     11  C   UNL     1      -1.292  13.091  22.807  0.00  0.00    +0.000 A 
ATOM     12  C   UNL     1      -0.329  12.596  21.748  0.00  0.00    +0.000 C 
ATOM     13  H   UNL     1       0.164   8.613  22.071  0.00  0.00    +0.000 HD
ENDROOT
BRANCH   3  14
ATOM     14  C   UNL     1       1.284   7.953  20.411  0.00  0.00    +0.000 A 
ATOM     15  C   UNL     1       1.472   6.635  20.811  0.00  0.00    +0.000 A 
ATOM     16  C   UNL     1       2.208   5.692  20.009  0.00  0.00    +0.000 A 
ATOM     17  C   UNL     1       2.815   6.000  18.764  0.00  0.00    +0.000 A 
ATOM     18  C   UNL     1       2.579   7.300  18.319  0.00  0.00    +0.000 A 
ATOM     19  C   UNL     1       1.825   8.251  19.131  0.00  0.00    +0.000 A 
BRANCH  17  20
ATOM     20  C   UNL     1       3.844   4.957  18.208  0.00  0.00    +0.000 A 
ATOM     21  N   UNL     1       4.045   3.948  19.020  0.00  0.00    +0.000 NA
ATOM     22  N   UNL     1       5.391   3.710  19.316  0.00  0.00    +0.000 N 
ATOM     23  C   UNL     1       6.292   4.729  19.013  0.00  0.00    +0.000 A 
ATOM     24  O   UNL     1       7.135   5.190  19.752  0.00  0.00    +0.000 OA
ATOM     25  C   UNL     1       6.207   5.100  17.595  0.00  0.00    +0.000 A 
ATOM     26  C   UNL     1       7.369   4.842  16.835  0.00  0.00    +0.000 A 
ATOM     27  C   UNL     1       7.234   4.375  15.537  0.00  0.00    +0.000 A 
ATOM     28  C   UNL     1       5.945   4.182  15.033  0.00  0.00    +0.000 A 
ATOM     29  C   UNL     1       4.788   4.543  15.796  0.00  0.00    +0.000 A 
ATOM     30  C   UNL     1       4.899   5.093  17.093  0.00  0.00    +0.000 A 
ATOM     31  H   UNL     1       5.664   2.817  18.908  0.00  0.00    +0.000 HD
ENDBRANCH  17  20
ENDBRANCH   3  14
BRANCH   9  32
ATOM     32  C   UNL     1      -3.505  15.944  24.225  0.00  0.00    +0.000 C 
BRANCH  32  33
ATOM     33  N   UNL     1      -4.555  16.683  23.532  0.00  0.00    +0.000 NA
ATOM     34  C   UNL     1      -5.796  16.948  24.240  0.00  0.00    +0.000 C 
ATOM     35  C   UNL     1      -6.790  15.977  23.636  0.00  0.00    +0.000 C 
ATOM     36  C   UNL     1      -6.300  15.748  22.213  0.00  0.00    +0.000 C 
ATOM     37  C   UNL     1      -4.878  16.293  22.172  0.00  0.00    +0.000 C 
ENDBRANCH  32  33
ENDBRANCH   9  32
TORSDOF 4
ENDMDL
MODEL 2
REMARK VINA RESULT:      -9.8      1.157      2.011
REMARK  Name = 
REMARK  4 active torsions:
REMARK  status: ('A' for Active; 'I' for Inactive)
REMARK    1  A    between atoms: N_3  and  C_4
REMARK    2  A    between atoms: C_7  and  C_8
REMARK    3  A    between atoms: C_26  and  C_27
REMARK    4  A    between atoms: C_27  and  N_28
REMARK                            x       y       z     vdW  Elec       q    Type
REMARK                         _______ _______ _______ _____ _____    ______ ____
ROOT
ATOM      1  O   UNL     1       1.168  11.035  20.054  0.00  0.00    +0.000 OA
ATOM      2  C   UNL     1       0.593  10.472  20.990  0.00  0.00    +0.000 C 
ATOM      3  N   UNL     1       0.659   9.091  21.190  0.00  0.00    +0.000 N 
ATOM      4  N   UNL     1      -0.157  11.251  21.896  0.00  0.00    +0.000 N 
ATOM      5  C   UNL     1      -1.083  10.875  22.973  0.00  0.00    +0.000 C 
ATOM      6  C   UNL     1      -1.882  12.138  23.232  0.00  0.00    +0.000 A 
ATOM      7  C   UNL     1      -3.142  12.336  23.762  0.00  0.00    +0.000 A 
ATOM      8  C   UNL     1      -3.633  13.648  23.918  0.00  0.00    +0.000 A 
ATOM      9  C   UNL     1      -2.830  14.788  23.667  0.00  0.00    +0.000 A 
ATOM     10  C   UNL     1      -1.565  14.562  23.085  0.00  0.00    +0.000 A 
ATOM     11  C   UNL     1      -1.179  13.246  22.761  0.00  0.00    +0.000 A 
ATOM     12  C   UNL     1      -0.214  12.735  21.711  0.00  0.00    +0.000 C 
ATOM     13  H   UNL     1       0.187   8.740  22.020  0.00  0.00    +0.000 HD
ENDROOT
BRANCH   3  14
ATOM     14  C   UNL     1       1.313   8.064  20.370  0.00  0.00    +0.000 A 
ATOM     15  C   UNL     1       1.516   6.754  20.788  0.00  0.00    +0.000 A 
ATOM     16  C   UNL     1       2.239   5.801  19.985  0.00  0.00    +0.000 A 
ATOM     17  C   UNL     1       2.819   6.091  18.723  0.00  0.00    +0.000 A 
ATOM     18  C   UNL     1       2.567   7.383  18.262  0.00  0.00    +0.000 A 
ATOM     19  C   UNL     1       1.825   8.343  19.074  0.00  0.00    +0.000 A 
BRANCH  17  20
ATOM     20  C   UNL     1       3.841   5.045  18.162  0.00  0.00    +0.000 A 
ATOM     21  N   UNL     1       4.011   4.015  18.955  0.00  0.00    +0.000 NA
ATOM     22  N   UNL     1       5.348   3.748  19.270  0.00  0.00    +0.000 N 
ATOM     23  C   UNL     1       6.270   4.759  19.005  0.00  0.00    +0.000 A 
ATOM     24  O   UNL     1       7.107   5.190  19.769  0.00  0.00    +0.000 OA
ATOM     25  C   UNL     1       6.217   5.162  17.594  0.00  0.00    +0.000 A 
ATOM     26  C   UNL     1       7.388   4.902  16.850  0.00  0.00    +0.000 A 
ATOM     27  C   UNL     1       7.269   4.466  15.539  0.00  0.00    +0.000 A 
ATOM     28  C   UNL     1       5.986   4.304  15.009  0.00  0.00    +0.000 A 
ATOM     29  C   UNL     1       4.822   4.667  15.759  0.00  0.00    +0.000 A 
ATOM     30  C   UNL     1       4.917   5.188  17.069  0.00  0.00    +0.000 A 
ATOM     31  H   UNL     1       5.614   2.860  18.847  0.00  0.00    +0.000 HD
ENDBRANCH  17  20
ENDBRANCH   3  14
BRANCH   9  32
ATOM     32  C   UNL     1      -3.346  16.139  24.168  0.00  0.00    +0.000 C 
BRANCH  32  33
ATOM     33  N   UNL     1      -2.627  16.949  25.145  0.00  0.00    +0.000 NA
ATOM     34  C   UNL     1      -1.964  18.158  24.687  0.00  0.00    +0.000 C 
ATOM     35  C   UNL     1      -0.493  17.797  24.664  0.00  0.00    +0.000 C 
ATOM     36  C   UNL     1      -0.334  16.731  25.740  0.00  0.00    +0.000 C 
ATOM     37  C   UNL     1      -1.746  16.269  26.077  0.00  0.00    +0.000 C 
ENDBRANCH  32  33
ENDBRANCH   9  32
TORSDOF 4
ENDMDL
MODEL 3
REMARK VINA RESULT:      -9.6      1.092      1.696
REMARK  Name = 
REMARK  4 active torsions:
REMARK  status: ('A' for Active; 'I' for Inactive)
REMARK    1  A    between atoms: N_3  and  C_4
REMARK    2  A    between atoms: C_7  and  C_8
REMARK    3  A    between atoms: C_26  and  C_27
REMARK    4  A    between atoms: C_27  and  N_28
REMARK                            x       y       z     vdW  Elec       q    Type
REMARK                         _______ _______ _______ _____ _____    ______ ____
ROOT
ATOM      1  O   UNL     1      -0.470   9.190  22.022  0.00  0.00    +0.000 OA
ATOM      2  C   UNL     1      -0.088  10.159  21.360  0.00  0.00    +0.000 C 
ATOM      3  N   UNL     1       0.733  10.026  20.237  0.00  0.00    +0.000 N 
ATOM      4  N   UNL     1      -0.498  11.453  21.747  0.00  0.00    +0.000 N 
ATOM      5  C   UNL     1      -0.078  12.786  21.295  0.00  0.00    +0.000 C 
ATOM      6  C   UNL     1      -0.538  13.714  22.403  0.00  0.00    +0.000 A 
ATOM      7  C   UNL     1      -0.090  14.957  22.807  0.00  0.00    +0.000 A 
ATOM      8  C   UNL     1      -0.736  15.618  23.871  0.00  0.00    +0.000 A 
ATOM      9  C   UNL     1      -1.915  15.109  24.469  0.00  0.00    +0.000 A 
ATOM     10  C   UNL     1      -2.328  13.820  24.072  0.00  0.00    +0.000 A 
ATOM     11  C   UNL     1      -1.549  13.102  23.142  0.00  0.00    +0.000 A 
ATOM     12  C   UNL     1      -1.400  11.609  22.930  0.00  0.00    +0.000 C 
ATOM     13  H   UNL     1       0.947  10.886  19.740  0.00  0.00    +0.000 HD
ENDROOT
BRANCH   3  14
ATOM     14  C   UNL     1       1.338   8.816  19.668  0.00  0.00    +0.000 A 
ATOM     15  C   UNL     1       1.677   7.695  20.417  0.00  0.00    +0.000 A 
ATOM     16  C   UNL     1       2.350   6.563  19.833  0.00  0.00    +0.000 A 
ATOM     17  C   UNL     1       2.740   6.476  18.471  0.00  0.00    +0.000 A 
ATOM     18  C   UNL     1       2.348   7.565  17.694  0.00  0.00    +0.000 A 
ATOM     19  C   UNL     1       1.658   8.707  18.287  0.00  0.00    +0.000 A 
BRANCH  17  20
ATOM     20  C   UNL     1       3.746   5.333  18.100  0.00  0.00    +0.000 A 
ATOM     21  N   UNL     1       3.809   4.389  19.007  0.00  0.00    +0.000 NA
ATOM     22  N   UNL     1       5.106   4.102  19.447  0.00  0.00    +0.000 N 
ATOM     23  C   UNL     1       6.093   5.038  19.146  0.00  0.00    +0.000 A 
ATOM     24  O   UNL     1       6.896   5.514  19.921  0.00  0.00    +0.000 OA
ATOM     25  C   UNL     1       6.158   5.289  17.701  0.00  0.00    +0.000 A 
ATOM     26  C   UNL     1       7.363   4.901  17.077  0.00  0.00    +0.000 A 
ATOM     27  C   UNL     1       7.314   4.332  15.814  0.00  0.00    +0.000 A 
ATOM     28  C   UNL     1       6.065   4.168  15.209  0.00  0.00    +0.000 A 
ATOM     29  C   UNL     1       4.870   4.658  15.829  0.00  0.00    +0.000 A 
ATOM     30  C   UNL     1       4.901   5.312  17.081  0.00  0.00    +0.000 A 
ATOM     31  H   UNL     1       5.357   3.163  19.139  0.00  0.00    +0.000 HD
ENDBRANCH  17  20
ENDBRANCH   3  14
BRANCH   9  32
ATOM     32  C   UNL     1      -2.704  16.050  25.384  0.00  0.00    +0.000 C 
BRANCH  32  33
ATOM     33  N   UNL     1      -3.772  16.916  24.897  0.00  0.00    +0.000 NA
ATOM     34  C   UNL     1      -4.975  16.299  24.365  0.00  0.00    +0.000 C 
ATOM     35  C   UNL     1      -4.853  16.465  22.864  0.00  0.00    +0.000 C 
ATOM     36  C   UNL     1      -4.026  17.728  22.676  0.00  0.00    +0.000 C 
ATOM     37  C   UNL     1      -3.409  18.027  24.036  0.00  0.00    +0.000 C 
ENDBRANCH  32  33
ENDBRANCH   9  32
TORSDOF 4
ENDMDL
MODEL 4
REMARK VINA RESULT:      -9.6      2.714      3.398
REMARK  Name = 
REMARK  4 active torsions:
REMARK  status: ('A' for Active; 'I' for Inactive)
REMARK    1  A    between atoms: N_3  and  C_4
REMARK    2  A    between atoms: C_7  and  C_8
REMARK    3  A    between atoms: C_26  and  C_27
REMARK    4  A    between atoms: C_27  and  N_28
REMARK                            x       y       z     vdW  Elec       q    Type
REMARK                         _______ _______ _______ _____ _____    ______ ____
ROOT
ATOM      1  O   UNL     1      -1.781   9.584  17.686  0.00  0.00    +0.000 OA
ATOM      2  C   UNL     1      -1.447  10.344  18.599  0.00  0.00    +0.000 C 
ATOM      3  N   UNL     1      -0.200  10.263  19.225  0.00  0.00    +0.000 N 
ATOM      4  N   UNL     1      -2.354  11.337  19.025  0.00  0.00    +0.000 N 
ATOM      5  C   UNL     1      -2.333  12.249  20.177  0.00  0.00    +0.000 C 
ATOM      6  C   UNL     1      -3.772  12.706  20.313  0.00  0.00    +0.000 A 
ATOM      7  C   UNL     1      -4.488  13.179  21.397  0.00  0.00    +0.000 A 
ATOM      8  C   UNL     1      -5.833  13.565  21.228  0.00  0.00    +0.000 A 
ATOM      9  C   UNL     1      -6.450  13.606  19.953  0.00  0.00    +0.000 A 
ATOM     10  C   UNL     1      -5.716  13.077  18.871  0.00  0.00    +0.000 A 
ATOM     11  C   UNL     1      -4.444  12.519  19.106  0.00  0.00    +0.000 A 
ATOM     12  C   UNL     1      -3.681  11.455  18.345  0.00  0.00    +0.000 C 
ATOM     13  H   UNL     1      -0.013  10.970  19.932  0.00  0.00    +0.000 HD
ENDROOT
BRANCH   3  14
ATOM     14  C   UNL     1       0.884   9.297  19.014  0.00  0.00    +0.000 A 
ATOM     15  C   UNL     1       1.598   9.184  17.827  0.00  0.00    +0.000 A 
ATOM     16  C   UNL     1       2.596   8.164  17.632  0.00  0.00    +0.000 A 
ATOM     17  C   UNL     1       2.941   7.183  18.598  0.00  0.00    +0.000 A 
ATOM     18  C   UNL     1       2.279   7.326  19.817  0.00  0.00    +0.000 A 
ATOM     19  C   UNL     1       1.275   8.367  20.015  0.00  0.00    +0.000 A 
BRANCH  17  20
ATOM     20  C   UNL     1       3.791   5.968  18.093  0.00  0.00    +0.000 A 
ATOM     21  N   UNL     1       3.694   4.914  18.867  0.00  0.00    +0.000 NA
ATOM     22  N   UNL     1       4.923   4.393  19.283  0.00  0.00    +0.000 N 
ATOM     23  C   UNL     1       6.039   5.212  19.124  0.00  0.00    +0.000 A 
ATOM     24  O   UNL     1       6.874   5.465  19.967  0.00  0.00    +0.000 OA
ATOM     25  C   UNL     1       6.186   5.636  17.726  0.00  0.00    +0.000 A 
ATOM     26  C   UNL     1       7.346   5.166  17.074  0.00  0.00    +0.000 A 
ATOM     27  C   UNL     1       7.261   4.778  15.746  0.00  0.00    +0.000 A 
ATOM     28  C   UNL     1       6.022   4.871  15.107  0.00  0.00    +0.000 A 
ATOM     29  C   UNL     1       4.886   5.441  15.769  0.00  0.00    +0.000 A 
ATOM     30  C   UNL     1       4.965   5.916  17.097  0.00  0.00    +0.000 A 
ATOM     31  H   UNL     1       5.052   3.476  18.857  0.00  0.00    +0.000 HD
ENDBRANCH  17  20
ENDBRANCH   3  14
BRANCH   9  32
ATOM     32  C   UNL     1      -7.792  14.335  19.842  0.00  0.00    +0.000 C 
BRANCH  32  33
ATOM     33  N   UNL     1      -7.896  15.767  19.588  0.00  0.00    +0.000 NA
ATOM     34  C   UNL     1      -7.917  16.225  18.210  0.00  0.00    +0.000 C 
ATOM     35  C   UNL     1      -6.535  16.805  17.983  0.00  0.00    +0.000 C 
ATOM     36  C   UNL     1      -6.085  17.291  19.353  0.00  0.00    +0.000 C 
ATOM     37  C   UNL     1      -7.043  16.659  20.353  0.00  0.00    +0.000 C 
ENDBRANCH  32  33
ENDBRANCH   9  32
TORSDOF 4
ENDMDL
MODEL 5
REMARK VINA RESULT:      -9.6      1.252      1.690
REMARK  Name = 
REMARK  4 active torsions:
REMARK  status: ('A' for Active; 'I' for Inactive)
REMARK    1  A    between atoms: N_3  and  C_4
REMARK    2  A    between atoms: C_7  and  C_8
REMARK    3  A    between atoms: C_26  and  C_27
REMARK    4  A    between atoms: C_27  and  N_28
REMARK                            x       y       z     vdW  Elec       q    Type
REMARK                         _______ _______ _______ _____ _____    ______ ____
ROOT
ATOM      1  O   UNL     1      -0.551  10.505  18.874  0.00  0.00    +0.000 OA
ATOM      2  C   UNL     1      -0.318  10.418  20.082  0.00  0.00    +0.000 C 
ATOM      3  N   UNL     1       0.604   9.508  20.606  0.00  0.00    +0.000 N 
ATOM      4  N   UNL     1      -1.005  11.271  20.972  0.00  0.00    +0.000 N 
ATOM      5  C   UNL     1      -1.090  11.289  22.438  0.00  0.00    +0.000 C 
ATOM      6  C   UNL     1      -2.320  12.128  22.727  0.00  0.00    +0.000 A 
ATOM      7  C   UNL     1      -3.176  12.161  23.812  0.00  0.00    +0.000 A 
ATOM      8  C   UNL     1      -4.244  13.080  23.827  0.00  0.00    +0.000 A 
ATOM      9  C   UNL     1      -4.406  14.065  22.821  0.00  0.00    +0.000 A 
ATOM     10  C   UNL     1      -3.549  13.983  21.704  0.00  0.00    +0.000 A 
ATOM     11  C   UNL     1      -2.613  12.932  21.627  0.00  0.00    +0.000 A 
ATOM     12  C   UNL     1      -1.974  12.270  20.423  0.00  0.00    +0.000 C 
ATOM     13  H   UNL     1       0.751   9.556  21.612  0.00  0.00    +0.000 HD
ENDROOT
BRANCH   3  14
ATOM     14  C   UNL     1       1.395   8.484  19.913  0.00  0.00    +0.000 A 
ATOM     15  C   UNL     1       1.696   7.241  20.456  0.00  0.00    +0.000 A 
ATOM     16  C   UNL     1       2.548   6.298  19.777  0.00  0.00    +0.000 A 
ATOM     17  C   UNL     1       3.166   6.535  18.522  0.00  0.00    +0.000 A 
ATOM     18  C   UNL     1       2.820   7.752  17.936  0.00  0.00    +0.000 A 
ATOM     19  C   UNL     1       1.949   8.701  18.622  0.00  0.00    +0.000 A 
BRANCH  17  20
ATOM     20  C   UNL     1       4.311   5.549  18.106  0.00  0.00    +0.000 A 
ATOM     21  N   UNL     1       4.953   5.044  19.131  0.00  0.00    +0.000 NA
ATOM     22  N   UNL     1       6.343   5.194  19.067  0.00  0.00    +0.000 N 
ATOM     23  C   UNL     1       6.833   6.119  18.147  0.00  0.00    +0.000 A 
ATOM     24  O   UNL     1       7.645   6.993  18.366  0.00  0.00    +0.000 OA
ATOM     25  C   UNL     1       6.356   5.817  16.792  0.00  0.00    +0.000 A 
ATOM     26  C   UNL     1       7.360   5.459  15.866  0.00  0.00    +0.000 A 
ATOM     27  C   UNL     1       7.098   4.460  14.942  0.00  0.00    +0.000 A 
ATOM     28  C   UNL     1       5.842   3.848  14.967  0.00  0.00    +0.000 A 
ATOM     29  C   UNL     1       4.813   4.299  15.856  0.00  0.00    +0.000 A 
ATOM     30  C   UNL     1       5.029   5.367  16.755  0.00  0.00    +0.000 A 
ATOM     31  H   UNL     1       6.767   4.275  18.956  0.00  0.00    +0.000 HD
ENDBRANCH  17  20
ENDBRANCH   3  14
BRANCH   9  32
ATOM     32  C   UNL     1      -5.396  15.199  23.097  0.00  0.00    +0.000 C 
BRANCH  32  33
ATOM     33  N   UNL     1      -4.995  16.476  23.679  0.00  0.00    +0.000 NA
ATOM     34  C   UNL     1      -4.522  17.522  22.790  0.00  0.00    +0.000 C 
ATOM     35  C   UNL     1      -3.021  17.542  22.993  0.00  0.00    +0.000 C 
ATOM     36  C   UNL     1      -2.814  17.062  24.423  0.00  0.00    +0.000 C 
ATOM     37  C   UNL     1      -4.141  16.451  24.853  0.00  0.00    +0.000 C 
ENDBRANCH  32  33
ENDBRANCH   9  32
TORSDOF 4
ENDMDL
MODEL 6
REMARK VINA RESULT:      -9.5      1.301      1.898
REMARK  Name = 
REMARK  4 active torsions:
REMARK  status: ('A' for Active; 'I' for Inactive)
REMARK    1  A    between atoms: N_3  and  C_4
REMARK    2  A    between atoms: C_7  and  C_8
REMARK    3  A    between atoms: C_26  and  C_27
REMARK    4  A    between atoms: C_27  and  N_28
REMARK                            x       y       z     vdW  Elec       q    Type
REMARK                         _______ _______ _______ _____ _____    ______ ____
ROOT
ATOM      1  O   UNL     1      -1.131  10.370  18.960  0.00  0.00    +0.000 OA
ATOM      2  C   UNL     1      -0.447  10.697  19.933  0.00  0.00    +0.000 C 
ATOM      3  N   UNL     1       0.730  10.029  20.283  0.00  0.00    +0.000 N 
ATOM      4  N   UNL     1      -0.864  11.790  20.722  0.00  0.00    +0.000 N 
ATOM      5  C   UNL     1      -0.387  12.298  22.016  0.00  0.00    +0.000 C 
ATOM      6  C   UNL     1      -1.526  13.167  22.513  0.00  0.00    +0.000 A 
ATOM      7  C   UNL     1      -1.901  13.551  23.787  0.00  0.00    +0.000 A 
ATOM      8  C   UNL     1      -3.008  14.407  23.958  0.00  0.00    +0.000 A 
ATOM      9  C   UNL     1      -3.683  14.994  22.860  0.00  0.00    +0.000 A 
ATOM     10  C   UNL     1      -3.312  14.554  21.573  0.00  0.00    +0.000 A 
ATOM     11  C   UNL     1      -2.330  13.551  21.442  0.00  0.00    +0.000 A 
ATOM     12  C   UNL     1      -2.106  12.533  20.343  0.00  0.00    +0.000 C 
ATOM     13  H   UNL     1       1.238  10.413  21.076  0.00  0.00    +0.000 HD
ENDROOT
BRANCH   3  14
ATOM     14  C   UNL     1       1.341   8.842  19.673  0.00  0.00    +0.000 A 
ATOM     15  C   UNL     1       1.583   7.658  20.358  0.00  0.00    +0.000 A 
ATOM     16  C   UNL     1       2.265   6.548  19.743  0.00  0.00    +0.000 A 
ATOM     17  C   UNL     1       2.761   6.546  18.414  0.00  0.00    +0.000 A 
ATOM     18  C   UNL     1       2.466   7.704  17.694  0.00  0.00    +0.000 A 
ATOM     19  C   UNL     1       1.767   8.824  18.317  0.00  0.00    +0.000 A 
BRANCH  17  20
ATOM     20  C   UNL     1       3.757   5.397  18.036  0.00  0.00    +0.000 A 
ATOM     21  N   UNL     1       3.786   4.430  18.921  0.00  0.00    +0.000 NA
ATOM     22  N   UNL     1       5.069   4.112  19.380  0.00  0.00    +0.000 N 
ATOM     23  C   UNL     1       6.076   5.041  19.124  0.00  0.00    +0.000 A 
ATOM     24  O   UNL     1       6.869   5.485  19.927  0.00  0.00    +0.000 OA
ATOM     25  C   UNL     1       6.176   5.325  17.687  0.00  0.00    +0.000 A 
ATOM     26  C   UNL     1       7.388   4.934  17.079  0.00  0.00    +0.000 A 
ATOM     27  C   UNL     1       7.358   4.396  15.802  0.00  0.00    +0.000 A 
ATOM     28  C   UNL     1       6.119   4.266  15.167  0.00  0.00    +0.000 A 
ATOM     29  C   UNL     1       4.919   4.760  15.773  0.00  0.00    +0.000 A 
ATOM     30  C   UNL     1       4.933   5.383  17.042  0.00  0.00    +0.000 A 
ATOM     31  H   UNL     1       5.312   3.178  19.055  0.00  0.00    +0.000 HD
ENDBRANCH  17  20
ENDBRANCH   3  14
BRANCH   9  32
ATOM     32  C   UNL     1      -4.651  16.142  23.159  0.00  0.00    +0.000 C 
BRANCH  32  33
ATOM     33  N   UNL     1      -4.205  17.464  23.583  0.00  0.00    +0.000 NA
ATOM     34  C   UNL     1      -3.084  18.071  22.887  0.00  0.00    +0.000 C 
ATOM     35  C   UNL     1      -1.922  17.933  23.850  0.00  0.00    +0.000 C 
ATOM     36  C   UNL     1      -2.559  17.934  25.233  0.00  0.00    +0.000 C 
ATOM     37  C   UNL     1      -4.047  17.707  25.005  0.00  0.00    +0.000 C 
ENDBRANCH  32  33
ENDBRANCH   9  32
TORSDOF 4
ENDMDL
MODEL 7
REMARK VINA RESULT:      -9.5      1.387      2.246
REMARK  Name = 
REMARK  4 active torsions:
REMARK  status: ('A' for Active; 'I' for Inactive)
REMARK    1  A    between atoms: N_3  and  C_4
REMARK    2  A    between atoms: C_7  and  C_8
REMARK    3  A    between atoms: C_26  and  C_27
REMARK    4  A    between atoms: C_27  and  N_28
REMARK                            x       y       z     vdW  Elec       q    Type
REMARK                         _______ _______ _______ _____ _____    ______ ____
ROOT
ATOM      1  O   UNL     1       0.740   9.158  22.167  0.00  0.00    +0.000 OA
ATOM      2  C   UNL     1       0.240   9.682  21.168  0.00  0.00    +0.000 C 
ATOM      3  N   UNL     1       0.606   9.323  19.868  0.00  0.00    +0.000 N 
ATOM      4  N   UNL     1      -0.742  10.680  21.342  0.00  0.00    +0.000 N 
ATOM      5  C   UNL     1      -1.377  11.601  20.390  0.00  0.00    +0.000 C 
ATOM      6  C   UNL     1      -1.967  12.689  21.266  0.00  0.00    +0.000 A 
ATOM      7  C   UNL     1      -2.281  14.010  21.006  0.00  0.00    +0.000 A 
ATOM      8  C   UNL     1      -2.857  14.801  22.020  0.00  0.00    +0.000 A 
ATOM      9  C   UNL     1      -3.245  14.258  23.270  0.00  0.00    +0.000 A 
ATOM     10  C   UNL     1      -2.875  12.922  23.528  0.00  0.00    +0.000 A 
ATOM     11  C   UNL     1      -2.127  12.214  22.566  0.00  0.00    +0.000 A 
ATOM     12  C   UNL     1      -1.165  11.055  22.727  0.00  0.00    +0.000 C 
ATOM     13  H   UNL     1       0.096   9.785  19.120  0.00  0.00    +0.000 HD
ENDROOT
BRANCH   3  14
ATOM     14  C   UNL     1       1.630   8.371  19.421  0.00  0.00    +0.000 A 
ATOM     15  C   UNL     1       2.331   8.492  18.227  0.00  0.00    +0.000 A 
ATOM     16  C   UNL     1       3.265   7.488  17.786  0.00  0.00    +0.000 A 
ATOM     17  C   UNL     1       3.554   6.294  18.495  0.00  0.00    +0.000 A 
ATOM     18  C   UNL     1       2.908   6.191  19.727  0.00  0.00    +0.000 A 
ATOM     19  C   UNL     1       1.969   7.214  20.175  0.00  0.00    +0.000 A 
BRANCH  17  20
ATOM     20  C   UNL     1       4.328   5.181  17.710  0.00  0.00    +0.000 A 
ATOM     21  N   UNL     1       4.572   4.116  18.434  0.00  0.00    +0.000 NA
ATOM     22  N   UNL     1       5.915   3.723  18.442  0.00  0.00    +0.000 N 
ATOM     23  C   UNL     1       6.845   4.658  17.990  0.00  0.00    +0.000 A 
ATOM     24  O   UNL     1       7.866   4.989  18.555  0.00  0.00    +0.000 OA
ATOM     25  C   UNL     1       6.521   5.108  16.631  0.00  0.00    +0.000 A 
ATOM     26  C   UNL     1       7.471   4.770  15.643  0.00  0.00    +0.000 A 
ATOM     27  C   UNL     1       7.028   4.388  14.386  0.00  0.00    +0.000 A 
ATOM     28  C   UNL     1       5.651   4.356  14.151  0.00  0.00    +0.000 A 
ATOM     29  C   UNL     1       4.717   4.795  15.145  0.00  0.00    +0.000 A 
ATOM     30  C   UNL     1       5.146   5.264  16.407  0.00  0.00    +0.000 A 
ATOM     31  H   UNL     1       5.999   2.830  17.959  0.00  0.00    +0.000 HD
ENDBRANCH  17  20
ENDBRANCH   3  14
BRANCH   9  32
ATOM     32  C   UNL     1      -4.141  15.118  24.165  0.00  0.00    +0.000 C 
BRANCH  32  33
ATOM     33  N   UNL     1      -3.610  16.059  25.146  0.00  0.00    +0.000 NA
ATOM     34  C   UNL     1      -3.811  17.479  24.921  0.00  0.00    +0.000 C 
ATOM     35  C   UNL     1      -2.458  17.985  24.463  0.00  0.00    +0.000 C 
ATOM     36  C   UNL     1      -1.450  17.052  25.120  0.00  0.00    +0.000 C 
ATOM     37  C   UNL     1      -2.252  15.857  25.617  0.00  0.00    +0.000 C 
ENDBRANCH  32  33
ENDBRANCH   9  32
TORSDOF 4
ENDMDL
MODEL 8
REMARK VINA RESULT:      -9.4      2.021      3.027
REMARK  Name = 
REMARK  4 active torsions:
REMARK  status: ('A' for Active; 'I' for Inactive)
REMARK    1  A    between atoms: N_3  and  C_4
REMARK    2  A    between atoms: C_7  and  C_8
REMARK    3  A    between atoms: C_26  and  C_27
REMARK    4  A    between atoms: C_27  and  N_28
REMARK                            x       y       z     vdW  Elec       q    Type
REMARK                         _______ _______ _______ _____ _____    ______ ____
ROOT
ATOM      1  O   UNL     1      -0.067   9.459  22.141  0.00  0.00    +0.000 OA
ATOM      2  C   UNL     1       0.178  10.380  21.357  0.00  0.00    +0.000 C 
ATOM      3  N   UNL     1       0.840  10.178  20.143  0.00  0.00    +0.000 N 
ATOM      4  N   UNL     1      -0.229  11.688  21.694  0.00  0.00    +0.000 N 
ATOM      5  C   UNL     1       0.067  12.991  21.083  0.00  0.00    +0.000 C 
ATOM      6  C   UNL     1      -0.275  13.994  22.168  0.00  0.00    +0.000 A 
ATOM      7  C   UNL     1       0.171  15.281  22.405  0.00  0.00    +0.000 A 
ATOM      8  C   UNL     1      -0.349  16.009  23.494  0.00  0.00    +0.000 A 
ATOM      9  C   UNL     1      -1.411  15.516  24.290  0.00  0.00    +0.000 A 
ATOM     10  C   UNL     1      -1.819  14.186  24.059  0.00  0.00    +0.000 A 
ATOM     11  C   UNL     1      -1.147  13.416  23.089  0.00  0.00    +0.000 A 
ATOM     12  C   UNL     1      -0.965  11.916  22.977  0.00  0.00    +0.000 C 
ATOM     13  H   UNL     1       0.947  11.000  19.554  0.00  0.00    +0.000 HD
ENDROOT
BRANCH   3  14
ATOM     14  C   UNL     1       1.412   8.944  19.592  0.00  0.00    +0.000 A 
ATOM     15  C   UNL     1       1.711   7.821  20.355  0.00  0.00    +0.000 A 
ATOM     16  C   UNL     1       2.352   6.663  19.789  0.00  0.00    +0.000 A 
ATOM     17  C   UNL     1       2.750   6.549  18.432  0.00  0.00    +0.000 A 
ATOM     18  C   UNL     1       2.398   7.641  17.640  0.00  0.00    +0.000 A 
ATOM     19  C   UNL     1       1.739   8.810  18.215  0.00  0.00    +0.000 A 
BRANCH  17  20
ATOM     20  C   UNL     1       3.723   5.371  18.081  0.00  0.00    +0.000 A 
ATOM     21  N   UNL     1       3.759   4.441  19.004  0.00  0.00    +0.000 NA
ATOM     22  N   UNL     1       5.047   4.125  19.449  0.00  0.00    +0.000 N 
ATOM     23  C   UNL     1       6.060   5.028  19.133  0.00  0.00    +0.000 A 
ATOM     24  O   UNL     1       6.876   5.493  19.900  0.00  0.00    +0.000 OA
ATOM     25  C   UNL     1       6.133   5.252  17.684  0.00  0.00    +0.000 A 
ATOM     26  C   UNL     1       7.326   4.819  17.067  0.00  0.00    +0.000 A 
ATOM     27  C   UNL     1       7.261   4.229  15.815  0.00  0.00    +0.000 A 
ATOM     28  C   UNL     1       6.008   4.090  15.212  0.00  0.00    +0.000 A 
ATOM     29  C   UNL     1       4.828   4.625  15.822  0.00  0.00    +0.000 A 
ATOM     30  C   UNL     1       4.877   5.300  17.063  0.00  0.00    +0.000 A 
ATOM     31  H   UNL     1       5.271   3.174  19.158  0.00  0.00    +0.000 HD
ENDBRANCH  17  20
ENDBRANCH   3  14
BRANCH   9  32
ATOM     32  C   UNL     1      -2.106  16.505  25.230  0.00  0.00    +0.000 C 
BRANCH  32  33
ATOM     33  N   UNL     1      -1.453  17.074  26.404  0.00  0.00    +0.000 NA
ATOM     34  C   UNL     1      -1.042  18.466  26.360  0.00  0.00    +0.000 C 
ATOM     35  C   UNL     1       0.462  18.411  26.184  0.00  0.00    +0.000 C 
ATOM     36  C   UNL     1       0.885  17.104  26.839  0.00  0.00    +0.000 C 
ATOM     37  C   UNL     1      -0.396  16.305  27.035  0.00  0.00    +0.000 C 
ENDBRANCH  32  33
ENDBRANCH   9  32
TORSDOF 4
ENDMDL
MODEL 9
REMARK VINA RESULT:      -9.4      1.179      1.772
REMARK  Name = 
REMARK  4 active torsions:
REMARK  status: ('A' for Active; 'I' for Inactive)
REMARK    1  A    between atoms: N_3  and  C_4
REMARK    2  A    between atoms: C_7  and  C_8
REMARK    3  A    between atoms: C_26  and  C_27
REMARK    4  A    between atoms: C_27  and  N_28
REMARK                            x       y       z     vdW  Elec       q    Type
REMARK                         _______ _______ _______ _____ _____    ______ ____
ROOT
ATOM      1  O   UNL     1       0.802   9.298  22.182  0.00  0.00    +0.000 OA
ATOM      2  C   UNL     1       0.282   9.790  21.177  0.00  0.00    +0.000 C 
ATOM      3  N   UNL     1       0.618   9.386  19.882  0.00  0.00    +0.000 N 
ATOM      4  N   UNL     1      -0.693  10.797  21.339  0.00  0.00    +0.000 N 
ATOM      5  C   UNL     1      -1.346  11.688  20.370  0.00  0.00    +0.000 C 
ATOM      6  C   UNL     1      -1.913  12.808  21.222  0.00  0.00    +0.000 A 
ATOM      7  C   UNL     1      -2.229  14.120  20.925  0.00  0.00    +0.000 A 
ATOM      8  C   UNL     1      -2.780  14.947  21.924  0.00  0.00    +0.000 A 
ATOM      9  C   UNL     1      -3.142  14.448  23.199  0.00  0.00    +0.000 A 
ATOM     10  C   UNL     1      -2.771  13.119  23.495  0.00  0.00    +0.000 A 
ATOM     11  C   UNL     1      -2.046  12.376  22.541  0.00  0.00    +0.000 A 
ATOM     12  C   UNL     1      -1.085  11.220  22.719  0.00  0.00    +0.000 C 
ATOM     13  H   UNL     1       0.093   9.825  19.131  0.00  0.00    +0.000 HD
ENDROOT
BRANCH   3  14
ATOM     14  C   UNL     1       1.629   8.415  19.445  0.00  0.00    +0.000 A 
ATOM     15  C   UNL     1       2.346   8.526  18.260  0.00  0.00    +0.000 A 
ATOM     16  C   UNL     1       3.266   7.505  17.828  0.00  0.00    +0.000 A 
ATOM     17  C   UNL     1       3.524   6.304  18.538  0.00  0.00    +0.000 A 
ATOM     18  C   UNL     1       2.861   6.210  19.761  0.00  0.00    +0.000 A 
ATOM     19  C   UNL     1       1.936   7.251  20.200  0.00  0.00    +0.000 A 
BRANCH  17  20
ATOM     20  C   UNL     1       4.285   5.178  17.759  0.00  0.00    +0.000 A 
ATOM     21  N   UNL     1       4.521   4.116  18.490  0.00  0.00    +0.000 NA
ATOM     22  N   UNL     1       5.860   3.711  18.498  0.00  0.00    +0.000 N 
ATOM     23  C   UNL     1       6.798   4.634  18.037  0.00  0.00    +0.000 A 
ATOM     24  O   UNL     1       7.823   4.960  18.597  0.00  0.00    +0.000 OA
ATOM     25  C   UNL     1       6.475   5.077  16.675  0.00  0.00    +0.000 A 
ATOM     26  C   UNL     1       7.419   4.723  15.688  0.00  0.00    +0.000 A 
ATOM     27  C   UNL     1       6.969   4.335  14.435  0.00  0.00    +0.000 A 
ATOM     28  C   UNL     1       5.592   4.314  14.203  0.00  0.00    +0.000 A 
ATOM     29  C   UNL     1       4.665   4.769  15.196  0.00  0.00    +0.000 A 
ATOM     30  C   UNL     1       5.101   5.243  16.454  0.00  0.00    +0.000 A 
ATOM     31  H   UNL     1       5.935   2.813  18.022  0.00  0.00    +0.000 HD
ENDBRANCH  17  20
ENDBRANCH   3  14
BRANCH   9  32
ATOM     32  C   UNL     1      -4.015  15.341  24.085  0.00  0.00    +0.000 C 
BRANCH  32  33
ATOM     33  N   UNL     1      -5.472  15.350  24.009  0.00  0.00    +0.000 NA
ATOM     34  C   UNL     1      -6.125  14.376  23.151  0.00  0.00    +0.000 C 
ATOM     35  C   UNL     1      -6.569  15.175  21.942  0.00  0.00    +0.000 C 
ATOM     36  C   UNL     1      -6.795  16.586  22.467  0.00  0.00    +0.000 C 
ATOM     37  C   UNL     1      -6.137  16.629  23.840  0.00  0.00    +0.000 C 
ENDBRANCH  32  33
ENDBRANCH   9  32
TORSDOF 4
ENDMDL
