MODEL 1
REMARK VINA RESULT:      -8.7      0.000      0.000
REMARK  Name = 
REMARK  3 active torsions:
REMARK  status: ('A' for Active; 'I' for Inactive)
REMARK    1  A    between atoms: C_1  and  N_2
REMARK    2  A    between atoms: C_7  and  S_8
REMARK    3  A    between atoms: S_8  and  N_11
REMARK                            x       y       z     vdW  Elec       q    Type
REMARK                         _______ _______ _______ _____ _____    ______ ____
ROOT
ATOM      1  C   UNL     1       4.681   5.641  16.763  0.00  0.00    +0.000 C 
ATOM      2  N   UNL     1       3.782   5.856  17.874  0.00  0.00    +0.000 N 
ATOM      3  C   UNL     1       3.470   4.954  18.850  0.00  0.00    +0.000 A 
ATOM      4  C   UNL     1       2.512   5.505  19.679  0.00  0.00    +0.000 A 
ATOM      5  C   UNL     1       2.289   6.836  19.241  0.00  0.00    +0.000 A 
ATOM      6  C   UNL     1       1.496   7.897  19.718  0.00  0.00    +0.000 A 
ATOM      7  C   UNL     1       1.547   9.135  19.065  0.00  0.00    +0.000 A 
ATOM      8  C   UNL     1       2.376   9.332  17.958  0.00  0.00    +0.000 A 
ATOM      9  C   UNL     1       3.158   8.283  17.459  0.00  0.00    +0.000 A 
ATOM     10  C   UNL     1       3.104   7.043  18.119  0.00  0.00    +0.000 A 
ATOM     11  C   UNL     1       1.958   4.730  20.839  0.00  0.00    +0.000 C 
ATOM     12  C   UNL     1       0.832   3.785  20.470  0.00  0.00    +0.000 C 
ATOM     13  C   UNL     1       1.551   2.438  20.383  0.00  0.00    +0.000 C 
ATOM     14  C   UNL     1       3.064   2.741  20.069  0.00  0.00    +0.000 C 
ATOM     15  C   UNL     1       4.042   3.587  19.103  0.00  0.00    +0.000 C 
ATOM     16  N   UNL     1       2.996   3.737  21.200  0.00  0.00    +0.000 NA
ATOM     17  H   UNL     1       3.880   4.224  21.339  0.00  0.00    +0.000 HD
ENDROOT
BRANCH   7  18
ATOM     18  S   UNL     1       0.643  10.503  19.741  0.00  0.00    +0.000 S 
ATOM     19  O   UNL     1       0.257  10.180  21.102  0.00  0.00    +0.000 OA
ATOM     20  O   UNL     1       1.366  11.727  19.432  0.00  0.00    +0.000 OA
BRANCH  18  21
ATOM     21  N   UNL     1      -0.792  10.575  18.822  0.00  0.00    +0.000 N 
ATOM     22  C   UNL     1      -0.989   9.803  17.702  0.00  0.00    +0.000 A 
ATOM     23  C   UNL     1      -2.263  10.048  17.248  0.00  0.00    +0.000 A 
ATOM     24  C   UNL     1      -2.875  10.963  18.152  0.00  0.00    +0.000 A 
ATOM     25  C   UNL     1      -4.155  11.550  18.202  0.00  0.00    +0.000 A 
ATOM     26  C   UNL     1      -4.473  12.429  19.241  0.00  0.00    +0.000 A 
ATOM     27  C   UNL     1      -3.534  12.731  20.219  0.00  0.00    +0.000 A 
ATOM     28  C   UNL     1      -2.253  12.168  20.190  0.00  0.00    +0.000 A 
ATOM     29  C   UNL     1      -1.937  11.275  19.149  0.00  0.00    +0.000 A 
ENDBRANCH  18  21
ENDBRANCH   7  18
TORSDOF 2
ENDMDL
MODEL 2
REMARK VINA RESULT:      -8.6      1.631      2.222
REMARK  Name = 
REMARK  3 active torsions:
REMARK  status: ('A' for Active; 'I' for Inactive)
REMARK    1  A    between atoms: C_1  and  N_2
REMARK    2  A    between atoms: C_7  and  S_8
REMARK    3  A    between atoms: S_8  and  N_11
REMARK                            x       y       z     vdW  Elec       q    Type
REMARK                         _______ _______ _______ _____ _____    ______ ____
ROOT
ATOM      1  C   UNL     1       4.499   6.032  16.507  0.00  0.00    +0.000 C 
ATOM      2  N   UNL     1       3.761   5.771  17.722  0.00  0.00    +0.000 N 
ATOM      3  C   UNL     1       3.657   4.572  18.364  0.00  0.00    +0.000 A 
ATOM      4  C   UNL     1       2.797   4.712  19.437  0.00  0.00    +0.000 A 
ATOM      5  C   UNL     1       2.424   6.079  19.504  0.00  0.00    +0.000 A 
ATOM      6  C   UNL     1       1.641   6.831  20.401  0.00  0.00    +0.000 A 
ATOM      7  C   UNL     1       1.514   8.212  20.204  0.00  0.00    +0.000 A 
ATOM      8  C   UNL     1       2.156   8.850  19.140  0.00  0.00    +0.000 A 
ATOM      9  C   UNL     1       2.923   8.115  18.228  0.00  0.00    +0.000 A 
ATOM     10  C   UNL     1       3.050   6.730  18.431  0.00  0.00    +0.000 A 
ATOM     11  C   UNL     1       2.472   3.544  20.323  0.00  0.00    +0.000 C 
ATOM     12  C   UNL     1       1.369   2.652  19.789  0.00  0.00    +0.000 C 
ATOM     13  C   UNL     1       2.155   1.496  19.168  0.00  0.00    +0.000 C 
ATOM     14  C   UNL     1       3.582   2.052  18.801  0.00  0.00    +0.000 C 
ATOM     15  C   UNL     1       4.348   3.270  18.071  0.00  0.00    +0.000 C 
ATOM     16  N   UNL     1       3.615   2.610  20.202  0.00  0.00    +0.000 NA
ATOM     17  H   UNL     1       4.476   3.121  20.393  0.00  0.00    +0.000 HD
ENDROOT
BRANCH   7  18
ATOM     18  S   UNL     1       0.631   9.175  21.404  0.00  0.00    +0.000 S 
ATOM     19  O   UNL     1      -0.613   8.499  21.721  0.00  0.00    +0.000 OA
ATOM     20  O   UNL     1       1.562   9.571  22.448  0.00  0.00    +0.000 OA
BRANCH  18  21
ATOM     21  N   UNL     1       0.218  10.615  20.589  0.00  0.00    +0.000 N 
ATOM     22  C   UNL     1       0.797  11.824  20.890  0.00  0.00    +0.000 A 
ATOM     23  C   UNL     1       0.300  12.754  20.008  0.00  0.00    +0.000 A 
ATOM     24  C   UNL     1      -0.574  12.075  19.111  0.00  0.00    +0.000 A 
ATOM     25  C   UNL     1      -1.342  12.503  18.010  0.00  0.00    +0.000 A 
ATOM     26  C   UNL     1      -2.117  11.579  17.305  0.00  0.00    +0.000 A 
ATOM     27  C   UNL     1      -2.139  10.244  17.687  0.00  0.00    +0.000 A 
ATOM     28  C   UNL     1      -1.392   9.791  18.779  0.00  0.00    +0.000 A 
ATOM     29  C   UNL     1      -0.604  10.721  19.483  0.00  0.00    +0.000 A 
ENDBRANCH  18  21
ENDBRANCH   7  18
TORSDOF 2
ENDMDL
MODEL 3
REMARK VINA RESULT:      -8.5      1.275      1.675
REMARK  Name = 
REMARK  3 active torsions:
REMARK  status: ('A' for Active; 'I' for Inactive)
REMARK    1  A    between atoms: C_1  and  N_2
REMARK    2  A    between atoms: C_7  and  S_8
REMARK    3  A    between atoms: S_8  and  N_11
REMARK                            x       y       z     vdW  Elec       q    Type
REMARK                         _______ _______ _______ _____ _____    ______ ____
ROOT
ATOM      1  C   UNL     1       4.394   6.059  16.737  0.00  0.00    +0.000 C 
ATOM      2  N   UNL     1       3.585   6.092  17.935  0.00  0.00    +0.000 N 
ATOM      3  C   UNL     1       3.395   5.066  18.813  0.00  0.00    +0.000 A 
ATOM      4  C   UNL     1       2.489   5.462  19.777  0.00  0.00    +0.000 A 
ATOM      5  C   UNL     1       2.174   6.823  19.527  0.00  0.00    +0.000 A 
ATOM      6  C   UNL     1       1.382   7.777  20.193  0.00  0.00    +0.000 A 
ATOM      7  C   UNL     1       1.326   9.085  19.696  0.00  0.00    +0.000 A 
ATOM      8  C   UNL     1       2.049   9.456  18.560  0.00  0.00    +0.000 A 
ATOM      9  C   UNL     1       2.828   8.516  17.875  0.00  0.00    +0.000 A 
ATOM     10  C   UNL     1       2.882   7.205  18.377  0.00  0.00    +0.000 A 
ATOM     11  C   UNL     1       2.068   4.526  20.873  0.00  0.00    +0.000 C 
ATOM     12  C   UNL     1       0.955   3.576  20.480  0.00  0.00    +0.000 C 
ATOM     13  C   UNL     1       1.720   2.288  20.169  0.00  0.00    +0.000 C 
ATOM     14  C   UNL     1       3.186   2.704  19.776  0.00  0.00    +0.000 C 
ATOM     15  C   UNL     1       4.042   3.709  18.847  0.00  0.00    +0.000 C 
ATOM     16  N   UNL     1       3.174   3.552  21.024  0.00  0.00    +0.000 NA
ATOM     17  H   UNL     1       4.046   4.064  21.151  0.00  0.00    +0.000 HD
ENDROOT
BRANCH   7  18
ATOM     18  S   UNL     1       0.427  10.314  20.607  0.00  0.00    +0.000 S 
ATOM     19  O   UNL     1      -0.607   9.656  21.383  0.00  0.00    +0.000 OA
ATOM     20  O   UNL     1       1.385  11.211  21.234  0.00  0.00    +0.000 OA
BRANCH  18  21
ATOM     21  N   UNL     1      -0.363  11.247  19.418  0.00  0.00    +0.000 N 
ATOM     22  C   UNL     1       0.033  12.525  19.101  0.00  0.00    +0.000 A 
ATOM     23  C   UNL     1      -0.759  12.958  18.064  0.00  0.00    +0.000 A 
ATOM     24  C   UNL     1      -1.631  11.889  17.710  0.00  0.00    +0.000 A 
ATOM     25  C   UNL     1      -2.632  11.753  16.727  0.00  0.00    +0.000 A 
ATOM     26  C   UNL     1      -3.333  10.550  16.615  0.00  0.00    +0.000 A 
ATOM     27  C   UNL     1      -3.055   9.492  17.472  0.00  0.00    +0.000 A 
ATOM     28  C   UNL     1      -2.071   9.601  18.461  0.00  0.00    +0.000 A 
ATOM     29  C   UNL     1      -1.359  10.811  18.565  0.00  0.00    +0.000 A 
ENDBRANCH  18  21
ENDBRANCH   7  18
TORSDOF 2
ENDMDL
MODEL 4
REMARK VINA RESULT:      -8.2      1.060      2.783
REMARK  Name = 
REMARK  3 active torsions:
REMARK  status: ('A' for Active; 'I' for Inactive)
REMARK    1  A    between atoms: C_1  and  N_2
REMARK    2  A    between atoms: C_7  and  S_8
REMARK    3  A    between atoms: S_8  and  N_11
REMARK                            x       y       z     vdW  Elec       q    Type
REMARK                         _______ _______ _______ _____ _____    ______ ____
ROOT
ATOM      1  C   UNL     1       2.062   4.242  21.211  0.00  0.00    +0.000 C 
ATOM      2  N   UNL     1       2.412   5.225  20.211  0.00  0.00    +0.000 N 
ATOM      3  C   UNL     1       3.218   5.027  19.128  0.00  0.00    +0.000 A 
ATOM      4  C   UNL     1       3.378   6.227  18.462  0.00  0.00    +0.000 A 
ATOM      5  C   UNL     1       2.563   7.186  19.119  0.00  0.00    +0.000 A 
ATOM      6  C   UNL     1       2.259   8.538  18.870  0.00  0.00    +0.000 A 
ATOM      7  C   UNL     1       1.349   9.197  19.706  0.00  0.00    +0.000 A 
ATOM      8  C   UNL     1       0.738   8.534  20.772  0.00  0.00    +0.000 A 
ATOM      9  C   UNL     1       1.042   7.195  21.045  0.00  0.00    +0.000 A 
ATOM     10  C   UNL     1       1.955   6.536  20.203  0.00  0.00    +0.000 A 
ATOM     11  C   UNL     1       4.236   6.320  17.234  0.00  0.00    +0.000 C 
ATOM     12  C   UNL     1       5.713   6.495  17.524  0.00  0.00    +0.000 C 
ATOM     13  C   UNL     1       6.251   5.074  17.349  0.00  0.00    +0.000 C 
ATOM     14  C   UNL     1       5.049   4.090  17.605  0.00  0.00    +0.000 C 
ATOM     15  C   UNL     1       3.843   3.756  18.625  0.00  0.00    +0.000 C 
ATOM     16  N   UNL     1       4.264   4.958  16.652  0.00  0.00    +0.000 NA
ATOM     17  H   UNL     1       3.306   4.633  16.533  0.00  0.00    +0.000 HD
ENDROOT
BRANCH   7  18
ATOM     18  S   UNL     1       0.873  10.862  19.316  0.00  0.00    +0.000 S 
ATOM     19  O   UNL     1       0.666  11.590  20.554  0.00  0.00    +0.000 OA
ATOM     20  O   UNL     1       1.768  11.364  18.286  0.00  0.00    +0.000 OA
BRANCH  18  21
ATOM     21  N   UNL     1      -0.652  10.715  18.567  0.00  0.00    +0.000 N 
ATOM     22  C   UNL     1      -0.883   9.840  17.532  0.00  0.00    +0.000 A 
ATOM     23  C   UNL     1      -2.218   9.918  17.213  0.00  0.00    +0.000 A 
ATOM     24  C   UNL     1      -2.825  10.836  18.117  0.00  0.00    +0.000 A 
ATOM     25  C   UNL     1      -4.149  11.294  18.275  0.00  0.00    +0.000 A 
ATOM     26  C   UNL     1      -4.446  12.216  19.281  0.00  0.00    +0.000 A 
ATOM     27  C   UNL     1      -3.445  12.689  20.121  0.00  0.00    +0.000 A 
ATOM     28  C   UNL     1      -2.122  12.257  19.983  0.00  0.00    +0.000 A 
ATOM     29  C   UNL     1      -1.825  11.320  18.975  0.00  0.00    +0.000 A 
ENDBRANCH  18  21
ENDBRANCH   7  18
TORSDOF 2
ENDMDL
MODEL 5
REMARK VINA RESULT:      -8.2      1.855      2.369
REMARK  Name = 
REMARK  3 active torsions:
REMARK  status: ('A' for Active; 'I' for Inactive)
REMARK    1  A    between atoms: C_1  and  N_2
REMARK    2  A    between atoms: C_7  and  S_8
REMARK    3  A    between atoms: S_8  and  N_11
REMARK                            x       y       z     vdW  Elec       q    Type
REMARK                         _______ _______ _______ _____ _____    ______ ____
ROOT
ATOM      1  C   UNL     1       4.514   5.967  16.597  0.00  0.00    +0.000 C 
ATOM      2  N   UNL     1       3.722   5.841  17.799  0.00  0.00    +0.000 N 
ATOM      3  C   UNL     1       3.572   4.718  18.558  0.00  0.00    +0.000 A 
ATOM      4  C   UNL     1       2.669   4.977  19.571  0.00  0.00    +0.000 A 
ATOM      5  C   UNL     1       2.313   6.347  19.479  0.00  0.00    +0.000 A 
ATOM      6  C   UNL     1       1.503   7.196  20.257  0.00  0.00    +0.000 A 
ATOM      7  C   UNL     1       1.404   8.550  19.911  0.00  0.00    +0.000 A 
ATOM      8  C   UNL     1       2.099   9.067  18.816  0.00  0.00    +0.000 A 
ATOM      9  C   UNL     1       2.895   8.233  18.020  0.00  0.00    +0.000 A 
ATOM     10  C   UNL     1       2.993   6.876  18.372  0.00  0.00    +0.000 A 
ATOM     11  C   UNL     1       2.291   3.911  20.559  0.00  0.00    +0.000 C 
ATOM     12  C   UNL     1       1.199   2.979  20.073  0.00  0.00    +0.000 C 
ATOM     13  C   UNL     1       1.995   1.756  19.612  0.00  0.00    +0.000 C 
ATOM     14  C   UNL     1       3.444   2.257  19.252  0.00  0.00    +0.000 C 
ATOM     15  C   UNL     1       4.258   3.386  18.433  0.00  0.00    +0.000 C 
ATOM     16  N   UNL     1       3.425   2.960  20.587  0.00  0.00    +0.000 NA
ATOM     17  H   UNL     1       4.284   3.479  20.762  0.00  0.00    +0.000 HD
ENDROOT
BRANCH   7  18
ATOM     18  S   UNL     1       0.483   9.642  20.964  0.00  0.00    +0.000 S 
ATOM     19  O   UNL     1      -0.684   8.937  21.459  0.00  0.00    +0.000 OA
ATOM     20  O   UNL     1       1.413  10.293  21.872  0.00  0.00    +0.000 OA
BRANCH  18  21
ATOM     21  N   UNL     1      -0.083  10.872  19.927  0.00  0.00    +0.000 N 
ATOM     22  C   UNL     1      -1.255  10.758  19.219  0.00  0.00    +0.000 A 
ATOM     23  C   UNL     1      -1.451  11.941  18.548  0.00  0.00    +0.000 A 
ATOM     24  C   UNL     1      -0.387  12.820  18.900  0.00  0.00    +0.000 A 
ATOM     25  C   UNL     1      -0.078  14.146  18.539  0.00  0.00    +0.000 A 
ATOM     26  C   UNL     1       1.061  14.760  19.065  0.00  0.00    +0.000 A 
ATOM     27  C   UNL     1       1.894  14.068  19.936  0.00  0.00    +0.000 A 
ATOM     28  C   UNL     1       1.615  12.748  20.307  0.00  0.00    +0.000 A 
ATOM     29  C   UNL     1       0.462  12.134  19.784  0.00  0.00    +0.000 A 
ENDBRANCH  18  21
ENDBRANCH   7  18
TORSDOF 2
ENDMDL
MODEL 6
REMARK VINA RESULT:      -8.2      2.021      2.721
REMARK  Name = 
REMARK  3 active torsions:
REMARK  status: ('A' for Active; 'I' for Inactive)
REMARK    1  A    between atoms: C_1  and  N_2
REMARK    2  A    between atoms: C_7  and  S_8
REMARK    3  A    between atoms: S_8  and  N_11
REMARK                            x       y       z     vdW  Elec       q    Type
REMARK                         _______ _______ _______ _____ _____    ______ ____
ROOT
ATOM      1  C   UNL     1       5.791   4.671  17.106  0.00  0.00    +0.000 C 
ATOM      2  N   UNL     1       4.519   4.915  17.749  0.00  0.00    +0.000 N 
ATOM      3  C   UNL     1       3.774   4.006  18.442  0.00  0.00    +0.000 A 
ATOM      4  C   UNL     1       2.587   4.599  18.826  0.00  0.00    +0.000 A 
ATOM      5  C   UNL     1       2.643   5.959  18.423  0.00  0.00    +0.000 A 
ATOM      6  C   UNL     1       1.783   7.060  18.590  0.00  0.00    +0.000 A 
ATOM      7  C   UNL     1       2.174   8.312  18.101  0.00  0.00    +0.000 A 
ATOM      8  C   UNL     1       3.403   8.484  17.459  0.00  0.00    +0.000 A 
ATOM      9  C   UNL     1       4.263   7.397  17.268  0.00  0.00    +0.000 A 
ATOM     10  C   UNL     1       3.868   6.141  17.762  0.00  0.00    +0.000 A 
ATOM     11  C   UNL     1       1.552   3.828  19.594  0.00  0.00    +0.000 C 
ATOM     12  C   UNL     1       0.638   2.987  18.725  0.00  0.00    +0.000 C 
ATOM     13  C   UNL     1       1.252   1.592  18.861  0.00  0.00    +0.000 C 
ATOM     14  C   UNL     1       2.770   1.789  19.231  0.00  0.00    +0.000 C 
ATOM     15  C   UNL     1       4.110   2.591  18.822  0.00  0.00    +0.000 C 
ATOM     16  N   UNL     1       2.284   2.746  20.291  0.00  0.00    +0.000 NA
ATOM     17  H   UNL     1       3.052   3.158  20.820  0.00  0.00    +0.000 HD
ENDROOT
BRANCH   7  18
ATOM     18  S   UNL     1       1.145   9.722  18.423  0.00  0.00    +0.000 S 
ATOM     19  O   UNL     1       1.941  10.925  18.270  0.00  0.00    +0.000 OA
ATOM     20  O   UNL     1      -0.106   9.549  17.703  0.00  0.00    +0.000 OA
BRANCH  18  21
ATOM     21  N   UNL     1       0.743   9.600  20.076  0.00  0.00    +0.000 N 
ATOM     22  C   UNL     1       1.367   8.715  20.922  0.00  0.00    +0.000 A 
ATOM     23  C   UNL     1       0.864   8.923  22.184  0.00  0.00    +0.000 A 
ATOM     24  C   UNL     1      -0.061  10.004  22.108  0.00  0.00    +0.000 A 
ATOM     25  C   UNL     1      -0.856  10.656  23.072  0.00  0.00    +0.000 A 
ATOM     26  C   UNL     1      -1.681  11.715  22.686  0.00  0.00    +0.000 A 
ATOM     27  C   UNL     1      -1.727  12.123  21.359  0.00  0.00    +0.000 A 
ATOM     28  C   UNL     1      -0.954  11.490  20.380  0.00  0.00    +0.000 A 
ATOM     29  C   UNL     1      -0.115  10.429  20.772  0.00  0.00    +0.000 A 
ENDBRANCH  18  21
ENDBRANCH   7  18
TORSDOF 2
ENDMDL
MODEL 7
REMARK VINA RESULT:      -8.0      2.236      3.895
REMARK  Name = 
REMARK  3 active torsions:
REMARK  status: ('A' for Active; 'I' for Inactive)
REMARK    1  A    between atoms: C_1  and  N_2
REMARK    2  A    between atoms: C_7  and  S_8
REMARK    3  A    between atoms: S_8  and  N_11
REMARK                            x       y       z     vdW  Elec       q    Type
REMARK                         _______ _______ _______ _____ _____    ______ ____
ROOT
ATOM      1  C   UNL     1       3.238   2.366  18.300  0.00  0.00    +0.000 C 
ATOM      2  N   UNL     1       3.398   3.802  18.257  0.00  0.00    +0.000 N 
ATOM      3  C   UNL     1       4.208   4.502  17.411  0.00  0.00    +0.000 A 
ATOM      4  C   UNL     1       4.149   5.842  17.740  0.00  0.00    +0.000 A 
ATOM      5  C   UNL     1       3.194   5.980  18.780  0.00  0.00    +0.000 A 
ATOM      6  C   UNL     1       2.659   7.085  19.469  0.00  0.00    +0.000 A 
ATOM      7  C   UNL     1       1.664   6.872  20.432  0.00  0.00    +0.000 A 
ATOM      8  C   UNL     1       1.193   5.587  20.710  0.00  0.00    +0.000 A 
ATOM      9  C   UNL     1       1.727   4.475  20.047  0.00  0.00    +0.000 A 
ATOM     10  C   UNL     1       2.724   4.693  19.081  0.00  0.00    +0.000 A 
ATOM     11  C   UNL     1       4.957   6.858  16.986  0.00  0.00    +0.000 C 
ATOM     12  C   UNL     1       6.388   6.991  17.469  0.00  0.00    +0.000 C 
ATOM     13  C   UNL     1       7.158   6.155  16.445  0.00  0.00    +0.000 C 
ATOM     14  C   UNL     1       6.146   5.105  15.851  0.00  0.00    +0.000 C 
ATOM     15  C   UNL     1       5.032   4.008  16.255  0.00  0.00    +0.000 C 
ATOM     16  N   UNL     1       5.209   6.270  15.650  0.00  0.00    +0.000 NA
ATOM     17  H   UNL     1       4.318   5.984  15.246  0.00  0.00    +0.000 HD
ENDROOT
BRANCH   7  18
ATOM     18  S   UNL     1       0.904   8.275  21.209  0.00  0.00    +0.000 S 
ATOM     19  O   UNL     1      -0.455   7.925  21.576  0.00  0.00    +0.000 OA
ATOM     20  O   UNL     1       1.834   8.816  22.187  0.00  0.00    +0.000 OA
BRANCH  18  21
ATOM     21  N   UNL     1       0.798   9.450  19.978  0.00  0.00    +0.000 N 
ATOM     22  C   UNL     1       1.235   9.217  18.696  0.00  0.00    +0.000 A 
ATOM     23  C   UNL     1       0.940  10.331  17.947  0.00  0.00    +0.000 A 
ATOM     24  C   UNL     1       0.257  11.252  18.793  0.00  0.00    +0.000 A 
ATOM     25  C   UNL     1      -0.290  12.532  18.574  0.00  0.00    +0.000 A 
ATOM     26  C   UNL     1      -0.919  13.204  19.624  0.00  0.00    +0.000 A 
ATOM     27  C   UNL     1      -1.002  12.622  20.883  0.00  0.00    +0.000 A 
ATOM     28  C   UNL     1      -0.461  11.355  21.131  0.00  0.00    +0.000 A 
ATOM     29  C   UNL     1       0.164  10.675  20.069  0.00  0.00    +0.000 A 
ENDBRANCH  18  21
ENDBRANCH   7  18
TORSDOF 2
ENDMDL
MODEL 8
REMARK VINA RESULT:      -8.0      1.649      2.121
REMARK  Name = 
REMARK  3 active torsions:
REMARK  status: ('A' for Active; 'I' for Inactive)
REMARK    1  A    between atoms: C_1  and  N_2
REMARK    2  A    between atoms: C_7  and  S_8
REMARK    3  A    between atoms: S_8  and  N_11
REMARK                            x       y       z     vdW  Elec       q    Type
REMARK                         _______ _______ _______ _____ _____    ______ ____
ROOT
ATOM      1  C   UNL     1       4.432   6.568  16.561  0.00  0.00    +0.000 C 
ATOM      2  N   UNL     1       3.724   6.168  17.756  0.00  0.00    +0.000 N 
ATOM      3  C   UNL     1       3.724   4.927  18.321  0.00  0.00    +0.000 A 
ATOM      4  C   UNL     1       2.860   4.924  19.398  0.00  0.00    +0.000 A 
ATOM      5  C   UNL     1       2.371   6.247  19.552  0.00  0.00    +0.000 A 
ATOM      6  C   UNL     1       1.530   6.871  20.493  0.00  0.00    +0.000 A 
ATOM      7  C   UNL     1       1.285   8.245  20.384  0.00  0.00    +0.000 A 
ATOM      8  C   UNL     1       1.865   9.002  19.364  0.00  0.00    +0.000 A 
ATOM      9  C   UNL     1       2.690   8.395  18.408  0.00  0.00    +0.000 A 
ATOM     10  C   UNL     1       2.935   7.016  18.523  0.00  0.00    +0.000 A 
ATOM     11  C   UNL     1       2.639   3.678  20.208  0.00  0.00    +0.000 C 
ATOM     12  C   UNL     1       1.615   2.731  19.617  0.00  0.00    +0.000 C 
ATOM     13  C   UNL     1       2.495   1.688  18.925  0.00  0.00    +0.000 C 
ATOM     14  C   UNL     1       3.867   2.386  18.596  0.00  0.00    +0.000 C 
ATOM     15  C   UNL     1       4.524   3.710  17.946  0.00  0.00    +0.000 C 
ATOM     16  N   UNL     1       3.858   2.856  20.030  0.00  0.00    +0.000 NA
ATOM     17  H   UNL     1       4.673   3.425  20.255  0.00  0.00    +0.000 HD
ENDROOT
BRANCH   7  18
ATOM     18  S   UNL     1       0.327   9.051  21.641  0.00  0.00    +0.000 S 
ATOM     19  O   UNL     1      -0.706   8.140  22.096  0.00  0.00    +0.000 OA
ATOM     20  O   UNL     1       1.241   9.683  22.578  0.00  0.00    +0.000 OA
BRANCH  18  21
ATOM     21  N   UNL     1      -0.461  10.331  20.835  0.00  0.00    +0.000 N 
ATOM     22  C   UNL     1      -0.718  10.305  19.486  0.00  0.00    +0.000 A 
ATOM     23  C   UNL     1      -1.422  11.444  19.175  0.00  0.00    +0.000 A 
ATOM     24  C   UNL     1      -1.640  12.161  20.387  0.00  0.00    +0.000 A 
ATOM     25  C   UNL     1      -2.303  13.369  20.681  0.00  0.00    +0.000 A 
ATOM     26  C   UNL     1      -2.356  13.827  21.999  0.00  0.00    +0.000 A 
ATOM     27  C   UNL     1      -1.753  13.102  23.020  0.00  0.00    +0.000 A 
ATOM     28  C   UNL     1      -1.083  11.902  22.757  0.00  0.00    +0.000 A 
ATOM     29  C   UNL     1      -1.039  11.438  21.428  0.00  0.00    +0.000 A 
ENDBRANCH  18  21
ENDBRANCH   7  18
TORSDOF 2
ENDMDL
MODEL 9
REMARK VINA RESULT:      -7.9      3.008      8.943
REMARK  Name = 
REMARK  3 active torsions:
REMARK  status: ('A' for Active; 'I' for Inactive)
REMARK    1  A    between atoms: C_1  and  N_2
REMARK    2  A    between atoms: C_7  and  S_8
REMARK    3  A    between atoms: S_8  and  N_11
REMARK                            x       y       z     vdW  Elec       q    Type
REMARK                         _______ _______ _______ _____ _____    ______ ____
ROOT
ATOM      1  C   UNL     1      -6.421  11.377  17.944  0.00  0.00    +0.000 C 
ATOM      2  N   UNL     1      -5.599  11.805  19.053  0.00  0.00    +0.000 N 
ATOM      3  C   UNL     1      -6.036  12.153  20.298  0.00  0.00    +0.000 A 
ATOM      4  C   UNL     1      -4.958  12.587  21.046  0.00  0.00    +0.000 A 
ATOM      5  C   UNL     1      -3.796  12.417  20.251  0.00  0.00    +0.000 A 
ATOM      6  C   UNL     1      -2.421  12.611  20.484  0.00  0.00    +0.000 A 
ATOM      7  C   UNL     1      -1.506  12.287  19.474  0.00  0.00    +0.000 A 
ATOM      8  C   UNL     1      -1.936  11.770  18.250  0.00  0.00    +0.000 A 
ATOM      9  C   UNL     1      -3.300  11.587  17.995  0.00  0.00    +0.000 A 
ATOM     10  C   UNL     1      -4.215  11.912  19.011  0.00  0.00    +0.000 A 
ATOM     11  C   UNL     1      -5.140  13.056  22.461  0.00  0.00    +0.000 C 
ATOM     12  C   UNL     1      -5.572  14.504  22.581  0.00  0.00    +0.000 C 
ATOM     13  C   UNL     1      -7.079  14.377  22.815  0.00  0.00    +0.000 C 
ATOM     14  C   UNL     1      -7.528  13.000  22.198  0.00  0.00    +0.000 C 
ATOM     15  C   UNL     1      -7.420  12.075  20.879  0.00  0.00    +0.000 C 
ATOM     16  N   UNL     1      -6.370  12.396  22.955  0.00  0.00    +0.000 NA
ATOM     17  H   UNL     1      -6.289  11.392  22.799  0.00  0.00    +0.000 HD
ENDROOT
BRANCH   7  18
ATOM     18  S   UNL     1       0.231  12.415  19.814  0.00  0.00    +0.000 S 
ATOM     19  O   UNL     1       0.933  12.662  18.569  0.00  0.00    +0.000 OA
ATOM     20  O   UNL     1       0.410  13.284  20.966  0.00  0.00    +0.000 OA
BRANCH  18  21
ATOM     21  N   UNL     1       0.688  10.858  20.340  0.00  0.00    +0.000 N 
ATOM     22  C   UNL     1       0.414  10.398  21.606  0.00  0.00    +0.000 A 
ATOM     23  C   UNL     1       0.847   9.096  21.677  0.00  0.00    +0.000 A 
ATOM     24  C   UNL     1       1.357   8.739  20.396  0.00  0.00    +0.000 A 
ATOM     25  C   UNL     1       1.910   7.550  19.880  0.00  0.00    +0.000 A 
ATOM     26  C   UNL     1       2.326   7.501  18.548  0.00  0.00    +0.000 A 
ATOM     27  C   UNL     1       2.204   8.619  17.731  0.00  0.00    +0.000 A 
ATOM     28  C   UNL     1       1.664   9.815  18.218  0.00  0.00    +0.000 A 
ATOM     29  C   UNL     1       1.236   9.859  19.558  0.00  0.00    +0.000 A 
ENDBRANCH  18  21
ENDBRANCH   7  18
TORSDOF 2
ENDMDL
