MODEL 1
REMARK VINA RESULT:      -6.7      0.000      0.000
REMARK  Name = 
REMARK  3 active torsions:
REMARK  status: ('A' for Active; 'I' for Inactive)
REMARK    1  A    between atoms: C_2  and  C_3
REMARK    2  A    between atoms: C_3  and  N_4
REMARK    3  A    between atoms: N_11  and  C_12
REMARK                            x       y       z     vdW  Elec       q    Type
REMARK                         _______ _______ _______ _____ _____    ______ ____
ROOT
ATOM      1  O   UNL     1       4.456   5.397  16.460  0.00  0.00    +0.000 OA
ATOM      2  C   UNL     1       5.097   4.430  16.877  0.00  0.00    +0.000 C 
ATOM      3  N   UNL     1       5.935   3.635  16.120  0.00  0.00    +0.000 N 
ATOM      4  H   UNL     1       6.478   2.950  16.643  0.00  0.00    +0.000 HD
ENDROOT
BRANCH   3   5
ATOM      5  C   UNL     1       6.313   3.882  14.778  0.00  0.00    +0.000 A 
ATOM      6  C   UNL     1       5.766   3.189  13.693  0.00  0.00    +0.000 A 
ATOM      7  C   UNL     1       6.112   3.521  12.381  0.00  0.00    +0.000 A 
ATOM      8  C   UNL     1       7.013   4.553  12.131  0.00  0.00    +0.000 A 
ATOM      9  C   UNL     1       7.594   5.229  13.200  0.00  0.00    +0.000 A 
ATOM     10  C   UNL     1       7.254   4.886  14.510  0.00  0.00    +0.000 A 
ATOM     11  F   UNL     1       7.813   5.565  15.523  0.00  0.00    +0.000 F 
ENDBRANCH   3   5
BRANCH   2  12
ATOM     12  C   UNL     1       4.969   4.041  18.352  0.00  0.00    +0.000 C 
BRANCH  12  13
ATOM     13  N   UNL     1       3.570   3.892  18.843  0.00  0.00    +0.000 NA
ATOM     14  C   UNL     1       3.301   2.535  19.341  0.00  0.00    +0.000 C 
ATOM     15  C   UNL     1       1.818   2.189  19.159  0.00  0.00    +0.000 C 
ATOM     16  C   UNL     1       0.881   2.763  20.216  0.00  0.00    +0.000 C 
ATOM     17  C   UNL     1       0.924   4.282  20.343  0.00  0.00    +0.000 C 
ATOM     18  C   UNL     1       2.251   4.767  20.906  0.00  0.00    +0.000 C 
ATOM     19  C   UNL     1       3.358   4.945  19.863  0.00  0.00    +0.000 C 
ENDBRANCH  12  13
ENDBRANCH   2  12
TORSDOF 3
ENDMDL
MODEL 2
REMARK VINA RESULT:      -6.7      3.209      6.764
REMARK  Name = 
REMARK  3 active torsions:
REMARK  status: ('A' for Active; 'I' for Inactive)
REMARK    1  A    between atoms: C_2  and  C_3
REMARK    2  A    between atoms: C_3  and  N_4
REMARK    3  A    between atoms: N_11  and  C_12
REMARK                            x       y       z     vdW  Elec       q    Type
REMARK                         _______ _______ _______ _____ _____    ______ ____
ROOT
ATOM      1  O   UNL     1       1.639   4.836  18.512  0.00  0.00    +0.000 OA
ATOM      2  C   UNL     1       2.660   5.084  19.157  0.00  0.00    +0.000 C 
ATOM      3  N   UNL     1       2.988   6.309  19.705  0.00  0.00    +0.000 N 
ATOM      4  H   UNL     1       3.810   6.313  20.306  0.00  0.00    +0.000 HD
ENDROOT
BRANCH   3   5
ATOM      5  C   UNL     1       2.144   7.445  19.744  0.00  0.00    +0.000 A 
ATOM      6  C   UNL     1       1.395   7.798  20.871  0.00  0.00    +0.000 A 
ATOM      7  C   UNL     1       0.637   8.972  20.890  0.00  0.00    +0.000 A 
ATOM      8  C   UNL     1       0.615   9.813  19.781  0.00  0.00    +0.000 A 
ATOM      9  C   UNL     1       1.327   9.459  18.638  0.00  0.00    +0.000 A 
ATOM     10  C   UNL     1       2.073   8.279  18.619  0.00  0.00    +0.000 A 
ATOM     11  F   UNL     1       2.765   7.969  17.513  0.00  0.00    +0.000 F 
ENDBRANCH   3   5
BRANCH   2  12
ATOM     12  C   UNL     1       3.679   3.964  19.382  0.00  0.00    +0.000 C 
BRANCH  12  13
ATOM     13  N   UNL     1       4.874   4.015  18.493  0.00  0.00    +0.000 NA
ATOM     14  C   UNL     1       4.536   4.487  17.142  0.00  0.00    +0.000 C 
ATOM     15  C   UNL     1       5.502   3.885  16.114  0.00  0.00    +0.000 C 
ATOM     16  C   UNL     1       6.860   4.572  16.016  0.00  0.00    +0.000 C 
ATOM     17  C   UNL     1       7.643   4.615  17.322  0.00  0.00    +0.000 C 
ATOM     18  C   UNL     1       6.986   5.524  18.349  0.00  0.00    +0.000 C 
ATOM     19  C   UNL     1       5.882   4.857  19.175  0.00  0.00    +0.000 C 
ENDBRANCH  12  13
ENDBRANCH   2  12
TORSDOF 3
ENDMDL
MODEL 3
REMARK VINA RESULT:      -6.6      0.912      1.090
REMARK  Name = 
REMARK  3 active torsions:
REMARK  status: ('A' for Active; 'I' for Inactive)
REMARK    1  A    between atoms: C_2  and  C_3
REMARK    2  A    between atoms: C_3  and  N_4
REMARK    3  A    between atoms: N_11  and  C_12
REMARK                            x       y       z     vdW  Elec       q    Type
REMARK                         _______ _______ _______ _____ _____    ______ ____
ROOT
ATOM      1  O   UNL     1       4.840   6.663  15.894  0.00  0.00    +0.000 OA
ATOM      2  C   UNL     1       4.912   5.568  16.455  0.00  0.00    +0.000 C 
ATOM      3  N   UNL     1       5.345   4.393  15.872  0.00  0.00    +0.000 N 
ATOM      4  H   UNL     1       5.454   3.604  16.507  0.00  0.00    +0.000 HD
ENDROOT
BRANCH   3   5
ATOM      5  C   UNL     1       5.915   4.276  14.581  0.00  0.00    +0.000 A 
ATOM      6  C   UNL     1       5.298   3.580  13.537  0.00  0.00    +0.000 A 
ATOM      7  C   UNL     1       5.860   3.558  12.258  0.00  0.00    +0.000 A 
ATOM      8  C   UNL     1       7.051   4.232  12.001  0.00  0.00    +0.000 A 
ATOM      9  C   UNL     1       7.697   4.901  13.038  0.00  0.00    +0.000 A 
ATOM     10  C   UNL     1       7.137   4.910  14.317  0.00  0.00    +0.000 A 
ATOM     11  F   UNL     1       7.769   5.576  15.295  0.00  0.00    +0.000 F 
ENDBRANCH   3   5
BRANCH   2  12
ATOM     12  C   UNL     1       4.484   5.461  17.921  0.00  0.00    +0.000 C 
BRANCH  12  13
ATOM     13  N   UNL     1       3.418   4.455  18.191  0.00  0.00    +0.000 NA
ATOM     14  C   UNL     1       3.954   3.237  18.816  0.00  0.00    +0.000 C 
ATOM     15  C   UNL     1       3.090   2.026  18.441  0.00  0.00    +0.000 C 
ATOM     16  C   UNL     1       1.803   1.872  19.244  0.00  0.00    +0.000 C 
ATOM     17  C   UNL     1       0.864   3.071  19.171  0.00  0.00    +0.000 C 
ATOM     18  C   UNL     1       1.443   4.289  19.873  0.00  0.00    +0.000 C 
ATOM     19  C   UNL     1       2.388   5.131  19.012  0.00  0.00    +0.000 C 
ENDBRANCH  12  13
ENDBRANCH   2  12
TORSDOF 3
ENDMDL
MODEL 4
REMARK VINA RESULT:      -6.6      2.096      2.805
REMARK  Name = 
REMARK  3 active torsions:
REMARK  status: ('A' for Active; 'I' for Inactive)
REMARK    1  A    between atoms: C_2  and  C_3
REMARK    2  A    between atoms: C_3  and  N_4
REMARK    3  A    between atoms: N_11  and  C_12
REMARK                            x       y       z     vdW  Elec       q    Type
REMARK                         _______ _______ _______ _____ _____    ______ ____
ROOT
ATOM      1  O   UNL     1       7.916   4.377  16.629  0.00  0.00    +0.000 OA
ATOM      2  C   UNL     1       7.214   5.368  16.416  0.00  0.00    +0.000 C 
ATOM      3  N   UNL     1       6.612   5.684  15.213  0.00  0.00    +0.000 N 
ATOM      4  H   UNL     1       5.971   6.475  15.240  0.00  0.00    +0.000 HD
ENDROOT
BRANCH   3   5
ATOM      5  C   UNL     1       6.578   4.852  14.068  0.00  0.00    +0.000 A 
ATOM      6  C   UNL     1       5.560   3.922  13.833  0.00  0.00    +0.000 A 
ATOM      7  C   UNL     1       5.526   3.179  12.651  0.00  0.00    +0.000 A 
ATOM      8  C   UNL     1       6.510   3.353  11.681  0.00  0.00    +0.000 A 
ATOM      9  C   UNL     1       7.549   4.250  11.914  0.00  0.00    +0.000 A 
ATOM     10  C   UNL     1       7.586   4.981  13.102  0.00  0.00    +0.000 A 
ATOM     11  F   UNL     1       8.588   5.852  13.296  0.00  0.00    +0.000 F 
ENDBRANCH   3   5
BRANCH   2  12
ATOM     12  C   UNL     1       6.975   6.362  17.556  0.00  0.00    +0.000 C 
BRANCH  12  13
ATOM     13  N   UNL     1       5.652   6.236  18.232  0.00  0.00    +0.000 NA
ATOM     14  C   UNL     1       4.535   6.432  17.296  0.00  0.00    +0.000 C 
ATOM     15  C   UNL     1       3.318   7.001  18.037  0.00  0.00    +0.000 C 
ATOM     16  C   UNL     1       2.492   5.981  18.812  0.00  0.00    +0.000 C 
ATOM     17  C   UNL     1       3.273   5.203  19.865  0.00  0.00    +0.000 C 
ATOM     18  C   UNL     1       4.291   4.263  19.238  0.00  0.00    +0.000 C 
ATOM     19  C   UNL     1       5.635   4.915  18.899  0.00  0.00    +0.000 C 
ENDBRANCH  12  13
ENDBRANCH   2  12
TORSDOF 3
ENDMDL
MODEL 5
REMARK VINA RESULT:      -6.5      3.735      6.821
REMARK  Name = 
REMARK  3 active torsions:
REMARK  status: ('A' for Active; 'I' for Inactive)
REMARK    1  A    between atoms: C_2  and  C_3
REMARK    2  A    between atoms: C_3  and  N_4
REMARK    3  A    between atoms: N_11  and  C_12
REMARK                            x       y       z     vdW  Elec       q    Type
REMARK                         _______ _______ _______ _____ _____    ______ ____
ROOT
ATOM      1  O   UNL     1       1.591   5.152  18.033  0.00  0.00    +0.000 OA
ATOM      2  C   UNL     1       2.579   5.372  18.738  0.00  0.00    +0.000 C 
ATOM      3  N   UNL     1       2.948   6.604  19.242  0.00  0.00    +0.000 N 
ATOM      4  H   UNL     1       3.724   6.591  19.902  0.00  0.00    +0.000 HD
ENDROOT
BRANCH   3   5
ATOM      5  C   UNL     1       2.180   7.791  19.160  0.00  0.00    +0.000 A 
ATOM      6  C   UNL     1       2.073   8.548  17.988  0.00  0.00    +0.000 A 
ATOM      7  C   UNL     1       1.240   9.668  17.932  0.00  0.00    +0.000 A 
ATOM      8  C   UNL     1       0.500  10.052  19.047  0.00  0.00    +0.000 A 
ATOM      9  C   UNL     1       0.622   9.330  20.231  0.00  0.00    +0.000 A 
ATOM     10  C   UNL     1       1.464   8.219  20.286  0.00  0.00    +0.000 A 
ATOM     11  F   UNL     1       1.551   7.529  21.434  0.00  0.00    +0.000 F 
ENDBRANCH   3   5
BRANCH   2  12
ATOM     12  C   UNL     1       3.504   4.206  19.096  0.00  0.00    +0.000 C 
BRANCH  12  13
ATOM     13  N   UNL     1       4.783   4.163  18.332  0.00  0.00    +0.000 NA
ATOM     14  C   UNL     1       4.621   4.653  16.956  0.00  0.00    +0.000 C 
ATOM     15  C   UNL     1       5.639   3.975  16.029  0.00  0.00    +0.000 C 
ATOM     16  C   UNL     1       7.046   4.558  16.072  0.00  0.00    +0.000 C 
ATOM     17  C   UNL     1       7.694   4.549  17.451  0.00  0.00    +0.000 C 
ATOM     18  C   UNL     1       7.006   5.510  18.408  0.00  0.00    +0.000 C 
ATOM     19  C   UNL     1       5.776   4.932  19.116  0.00  0.00    +0.000 C 
ENDBRANCH  12  13
ENDBRANCH   2  12
TORSDOF 3
ENDMDL
MODEL 6
REMARK VINA RESULT:      -6.5      1.406      1.465
REMARK  Name = 
REMARK  3 active torsions:
REMARK  status: ('A' for Active; 'I' for Inactive)
REMARK    1  A    between atoms: C_2  and  C_3
REMARK    2  A    between atoms: C_3  and  N_4
REMARK    3  A    between atoms: N_11  and  C_12
REMARK                            x       y       z     vdW  Elec       q    Type
REMARK                         _______ _______ _______ _____ _____    ______ ____
ROOT
ATOM      1  O   UNL     1       7.854   4.173  16.946  0.00  0.00    +0.000 OA
ATOM      2  C   UNL     1       6.639   4.380  16.910  0.00  0.00    +0.000 C 
ATOM      3  N   UNL     1       5.887   4.562  15.765  0.00  0.00    +0.000 N 
ATOM      4  H   UNL     1       4.879   4.606  15.907  0.00  0.00    +0.000 HD
ENDROOT
BRANCH   3   5
ATOM      5  C   UNL     1       6.355   4.395  14.439  0.00  0.00    +0.000 A 
ATOM      6  C   UNL     1       5.808   3.464  13.551  0.00  0.00    +0.000 A 
ATOM      7  C   UNL     1       6.249   3.390  12.227  0.00  0.00    +0.000 A 
ATOM      8  C   UNL     1       7.247   4.246  11.769  0.00  0.00    +0.000 A 
ATOM      9  C   UNL     1       7.827   5.155  12.650  0.00  0.00    +0.000 A 
ATOM     10  C   UNL     1       7.391   5.217  13.974  0.00  0.00    +0.000 A 
ATOM     11  F   UNL     1       7.953   6.114  14.799  0.00  0.00    +0.000 F 
ENDBRANCH   3   5
BRANCH   2  12
ATOM     12  C   UNL     1       5.866   4.461  18.229  0.00  0.00    +0.000 C 
BRANCH  12  13
ATOM     13  N   UNL     1       4.460   3.969  18.163  0.00  0.00    +0.000 NA
ATOM     14  C   UNL     1       4.223   2.853  19.091  0.00  0.00    +0.000 C 
ATOM     15  C   UNL     1       3.118   1.939  18.546  0.00  0.00    +0.000 C 
ATOM     16  C   UNL     1       1.694   2.432  18.774  0.00  0.00    +0.000 C 
ATOM     17  C   UNL     1       1.399   3.808  18.186  0.00  0.00    +0.000 C 
ATOM     18  C   UNL     1       2.155   4.909  18.912  0.00  0.00    +0.000 C 
ATOM     19  C   UNL     1       3.585   5.136  18.412  0.00  0.00    +0.000 C 
ENDBRANCH  12  13
ENDBRANCH   2  12
TORSDOF 3
ENDMDL
MODEL 7
REMARK VINA RESULT:      -6.5      2.012      2.869
REMARK  Name = 
REMARK  3 active torsions:
REMARK  status: ('A' for Active; 'I' for Inactive)
REMARK    1  A    between atoms: C_2  and  C_3
REMARK    2  A    between atoms: C_3  and  N_4
REMARK    3  A    between atoms: N_11  and  C_12
REMARK                            x       y       z     vdW  Elec       q    Type
REMARK                         _______ _______ _______ _____ _____    ______ ____
ROOT
ATOM      1  O   UNL     1       7.871   4.150  16.882  0.00  0.00    +0.000 OA
ATOM      2  C   UNL     1       7.233   5.201  16.786  0.00  0.00    +0.000 C 
ATOM      3  N   UNL     1       6.731   5.733  15.614  0.00  0.00    +0.000 N 
ATOM      4  H   UNL     1       6.128   6.546  15.726  0.00  0.00    +0.000 HD
ENDROOT
BRANCH   3   5
ATOM      5  C   UNL     1       6.736   5.092  14.351  0.00  0.00    +0.000 A 
ATOM      6  C   UNL     1       7.698   5.353  13.369  0.00  0.00    +0.000 A 
ATOM      7  C   UNL     1       7.709   4.640  12.168  0.00  0.00    +0.000 A 
ATOM      8  C   UNL     1       6.758   3.651  11.928  0.00  0.00    +0.000 A 
ATOM      9  C   UNL     1       5.773   3.402  12.880  0.00  0.00    +0.000 A 
ATOM     10  C   UNL     1       5.759   4.126  14.073  0.00  0.00    +0.000 A 
ATOM     11  F   UNL     1       4.810   3.856  14.983  0.00  0.00    +0.000 F 
ENDBRANCH   3   5
BRANCH   2  12
ATOM     12  C   UNL     1       6.964   6.018  18.052  0.00  0.00    +0.000 C 
BRANCH  12  13
ATOM     13  N   UNL     1       5.588   5.878  18.608  0.00  0.00    +0.000 NA
ATOM     14  C   UNL     1       4.555   6.205  17.615  0.00  0.00    +0.000 C 
ATOM     15  C   UNL     1       3.301   6.746  18.313  0.00  0.00    +0.000 C 
ATOM     16  C   UNL     1       2.386   5.687  18.918  0.00  0.00    +0.000 C 
ATOM     17  C   UNL     1       3.056   4.782  19.945  0.00  0.00    +0.000 C 
ATOM     18  C   UNL     1       4.092   3.870  19.308  0.00  0.00    +0.000 C 
ATOM     19  C   UNL     1       5.478   4.501  19.139  0.00  0.00    +0.000 C 
ENDBRANCH  12  13
ENDBRANCH   2  12
TORSDOF 3
ENDMDL
MODEL 8
REMARK VINA RESULT:      -6.4      2.699      3.837
REMARK  Name = 
REMARK  3 active torsions:
REMARK  status: ('A' for Active; 'I' for Inactive)
REMARK    1  A    between atoms: C_2  and  C_3
REMARK    2  A    between atoms: C_3  and  N_4
REMARK    3  A    between atoms: N_11  and  C_12
REMARK                            x       y       z     vdW  Elec       q    Type
REMARK                         _______ _______ _______ _____ _____    ______ ____
ROOT
ATOM      1  O   UNL     1       5.840   3.911  15.981  0.00  0.00    +0.000 OA
ATOM      2  C   UNL     1       5.091   4.011  16.955  0.00  0.00    +0.000 C 
ATOM      3  N   UNL     1       5.268   4.873  18.020  0.00  0.00    +0.000 N 
ATOM      4  H   UNL     1       4.496   4.912  18.684  0.00  0.00    +0.000 HD
ENDROOT
BRANCH   3   5
ATOM      5  C   UNL     1       6.253   5.887  18.103  0.00  0.00    +0.000 A 
ATOM      6  C   UNL     1       7.348   5.815  18.970  0.00  0.00    +0.000 A 
ATOM      7  C   UNL     1       8.336   6.803  18.960  0.00  0.00    +0.000 A 
ATOM      8  C   UNL     1       8.246   7.881  18.083  0.00  0.00    +0.000 A 
ATOM      9  C   UNL     1       7.145   7.985  17.238  0.00  0.00    +0.000 A 
ATOM     10  C   UNL     1       6.154   7.003  17.259  0.00  0.00    +0.000 A 
ATOM     11  F   UNL     1       5.111   7.117  16.422  0.00  0.00    +0.000 F 
ENDBRANCH   3   5
BRANCH   2  12
ATOM     12  C   UNL     1       3.856   3.110  17.031  0.00  0.00    +0.000 C 
BRANCH  12  13
ATOM     13  N   UNL     1       3.028   3.283  18.258  0.00  0.00    +0.000 NA
ATOM     14  C   UNL     1       2.230   4.517  18.215  0.00  0.00    +0.000 C 
ATOM     15  C   UNL     1       1.984   5.038  19.637  0.00  0.00    +0.000 C 
ATOM     16  C   UNL     1       0.865   4.340  20.401  0.00  0.00    +0.000 C 
ATOM     17  C   UNL     1       1.045   2.834  20.554  0.00  0.00    +0.000 C 
ATOM     18  C   UNL     1       0.917   2.110  19.223  0.00  0.00    +0.000 C 
ATOM     19  C   UNL     1       2.208   2.059  18.399  0.00  0.00    +0.000 C 
ENDBRANCH  12  13
ENDBRANCH   2  12
TORSDOF 3
ENDMDL
MODEL 9
REMARK VINA RESULT:      -6.4      1.773      2.146
REMARK  Name = 
REMARK  3 active torsions:
REMARK  status: ('A' for Active; 'I' for Inactive)
REMARK    1  A    between atoms: C_2  and  C_3
REMARK    2  A    between atoms: C_3  and  N_4
REMARK    3  A    between atoms: N_11  and  C_12
REMARK                            x       y       z     vdW  Elec       q    Type
REMARK                         _______ _______ _______ _____ _____    ______ ____
ROOT
ATOM      1  O   UNL     1       7.950   4.217  16.960  0.00  0.00    +0.000 OA
ATOM      2  C   UNL     1       6.762   4.548  16.931  0.00  0.00    +0.000 C 
ATOM      3  N   UNL     1       6.052   4.901  15.800  0.00  0.00    +0.000 N 
ATOM      4  H   UNL     1       5.052   5.034  15.936  0.00  0.00    +0.000 HD
ENDROOT
BRANCH   3   5
ATOM      5  C   UNL     1       6.524   4.801  14.469  0.00  0.00    +0.000 A 
ATOM      6  C   UNL     1       7.625   5.523  13.995  0.00  0.00    +0.000 A 
ATOM      7  C   UNL     1       8.102   5.333  12.696  0.00  0.00    +0.000 A 
ATOM      8  C   UNL     1       7.486   4.417  11.847  0.00  0.00    +0.000 A 
ATOM      9  C   UNL     1       6.368   3.716  12.290  0.00  0.00    +0.000 A 
ATOM     10  C   UNL     1       5.888   3.918  13.585  0.00  0.00    +0.000 A 
ATOM     11  F   UNL     1       4.819   3.218  13.995  0.00  0.00    +0.000 F 
ENDBRANCH   3   5
BRANCH   2  12
ATOM     12  C   UNL     1       5.978   4.594  18.246  0.00  0.00    +0.000 C 
BRANCH  12  13
ATOM     13  N   UNL     1       4.572   4.109  18.154  0.00  0.00    +0.000 NA
ATOM     14  C   UNL     1       4.306   3.008  19.092  0.00  0.00    +0.000 C 
ATOM     15  C   UNL     1       3.208   2.092  18.534  0.00  0.00    +0.000 C 
ATOM     16  C   UNL     1       1.782   2.598  18.721  0.00  0.00    +0.000 C 
ATOM     17  C   UNL     1       1.509   3.966  18.108  0.00  0.00    +0.000 C 
ATOM     18  C   UNL     1       2.255   5.074  18.836  0.00  0.00    +0.000 C 
ATOM     19  C   UNL     1       3.698   5.285  18.366  0.00  0.00    +0.000 C 
ENDBRANCH  12  13
ENDBRANCH   2  12
TORSDOF 3
ENDMDL
