MODEL 1
REMARK VINA RESULT:      -6.8      0.000      0.000
REMARK  Name = 
REMARK  7 active torsions:
REMARK  status: ('A' for Active; 'I' for Inactive)
REMARK    1  A    between atoms: C_1  and  C_2
REMARK    2  A    between atoms: C_2  and  C_3
REMARK    3  A    between atoms: C_2  and  C_4
REMARK    4  A    between atoms: C_2  and  N_5
REMARK    5  A    between atoms: N_11  and  C_12
REMARK    6  A    between atoms: C_12  and  C_13
REMARK    7  A    between atoms: C_12  and  C_19
REMARK                            x       y       z     vdW  Elec       q    Type
REMARK                         _______ _______ _______ _____ _____    ______ ____
ROOT
ATOM      1  C   UNL     1       4.143   4.789  18.129  0.00  0.00    +0.000 C 
ENDROOT
BRANCH   1   8
ATOM      2  N   UNL     1       1.162   9.526  19.849  0.00  0.00    +0.000 N 
ATOM      3  C   UNL     1       1.351   8.322  20.477  0.00  0.00    +0.000 C 
ATOM      4  O   UNL     1       0.967   8.088  21.620  0.00  0.00    +0.000 OA
ATOM      5  N   UNL     1       1.979   7.369  19.701  0.00  0.00    +0.000 N 
ATOM      6  C   UNL     1       2.065   5.998  20.204  0.00  0.00    +0.000 C 
ATOM      7  C   UNL     1       1.855   4.979  19.062  0.00  0.00    +0.000 C 
ATOM      8  N   UNL     1       2.723   5.180  17.860  0.00  0.00    +0.000 NA
ATOM      9  C   UNL     1       2.552   6.595  17.437  0.00  0.00    +0.000 C 
ATOM     10  C   UNL     1       2.814   7.640  18.531  0.00  0.00    +0.000 C 
ATOM     11  H   UNL     1       0.989   9.419  18.860  0.00  0.00    +0.000 HD
BRANCH   2  13
ATOM     12  C   UNL     1       0.297  10.478  21.974  0.00  0.00    +0.000 C 
ATOM     13  C   UNL     1       0.455  10.664  20.456  0.00  0.00    +0.000 C 
ATOM     14  C   UNL     1      -0.916  10.868  19.790  0.00  0.00    +0.000 C 
ATOM     15  C   UNL     1       1.303  11.929  20.220  0.00  0.00    +0.000 C 
ENDBRANCH   2  13
ENDBRANCH   1   8
BRANCH   1  16
ATOM     16  C   UNL     1       5.068   4.855  16.909  0.00  0.00    +0.000 A 
ATOM     17  C   UNL     1       4.730   4.313  15.657  0.00  0.00    +0.000 A 
ATOM     18  C   UNL     1       5.586   4.459  14.561  0.00  0.00    +0.000 A 
ATOM     19  C   UNL     1       6.810   5.109  14.716  0.00  0.00    +0.000 A 
ATOM     20 CL   UNL     1       7.846   5.316  13.358  0.00  0.00    +0.000 Cl
ATOM     21  C   UNL     1       7.195   5.597  15.960  0.00  0.00    +0.000 A 
ATOM     22  C   UNL     1       6.325   5.464  17.039  0.00  0.00    +0.000 A 
ATOM     23  F   UNL     1       6.707   5.948  18.230  0.00  0.00    +0.000 F 
ENDBRANCH   1  16
BRANCH   1  24
ATOM     24  C   UNL     1       4.214   3.407  18.750  0.00  0.00    +0.000 A 
ATOM     25  C   UNL     1       4.865   3.146  19.941  0.00  0.00    +0.000 A 
ATOM     26  N   UNL     1       4.987   1.919  20.481  0.00  0.00    +0.000 NA
ATOM     27  C   UNL     1       4.433   0.918  19.779  0.00  0.00    +0.000 A 
ATOM     28  N   UNL     1       3.776   1.040  18.616  0.00  0.00    +0.000 NA
ATOM     29  C   UNL     1       3.676   2.292  18.129  0.00  0.00    +0.000 A 
ENDBRANCH   1  24
TORSDOF 4
ENDMDL
MODEL 2
REMARK VINA RESULT:      -6.7      0.087      1.214
REMARK  Name = 
REMARK  7 active torsions:
REMARK  status: ('A' for Active; 'I' for Inactive)
REMARK    1  A    between atoms: C_1  and  C_2
REMARK    2  A    between atoms: C_2  and  C_3
REMARK    3  A    between atoms: C_2  and  C_4
REMARK    4  A    between atoms: C_2  and  N_5
REMARK    5  A    between atoms: N_11  and  C_12
REMARK    6  A    between atoms: C_12  and  C_13
REMARK    7  A    between atoms: C_12  and  C_19
REMARK                            x       y       z     vdW  Elec       q    Type
REMARK                         _______ _______ _______ _____ _____    ______ ____
ROOT
ATOM      1  C   UNL     1       4.197   4.756  18.072  0.00  0.00    +0.000 C 
ENDROOT
BRANCH   1   8
ATOM      2  N   UNL     1       1.211   9.475  19.834  0.00  0.00    +0.000 N 
ATOM      3  C   UNL     1       1.414   8.270  20.458  0.00  0.00    +0.000 C 
ATOM      4  O   UNL     1       1.045   8.034  21.604  0.00  0.00    +0.000 OA
ATOM      5  N   UNL     1       2.038   7.322  19.673  0.00  0.00    +0.000 N 
ATOM      6  C   UNL     1       2.137   5.951  20.173  0.00  0.00    +0.000 C 
ATOM      7  C   UNL     1       1.920   4.932  19.032  0.00  0.00    +0.000 C 
ATOM      8  N   UNL     1       2.773   5.139  17.820  0.00  0.00    +0.000 NA
ATOM      9  C   UNL     1       2.588   6.554  17.401  0.00  0.00    +0.000 C 
ATOM     10  C   UNL     1       2.858   7.599  18.493  0.00  0.00    +0.000 C 
ATOM     11  H   UNL     1       1.028   9.368  18.846  0.00  0.00    +0.000 HD
BRANCH   2  13
ATOM     12  C   UNL     1       1.266  11.927  20.227  0.00  0.00    +0.000 C 
ATOM     13  C   UNL     1       0.505  10.608  20.450  0.00  0.00    +0.000 C 
ATOM     14  C   UNL     1       0.284  10.358  21.951  0.00  0.00    +0.000 C 
ATOM     15  C   UNL     1      -0.871  10.735  19.769  0.00  0.00    +0.000 C 
ENDBRANCH   2  13
ENDBRANCH   1   8
BRANCH   1  16
ATOM     16  C   UNL     1       5.108   4.833  16.843  0.00  0.00    +0.000 A 
ATOM     17  C   UNL     1       4.753   4.308  15.587  0.00  0.00    +0.000 A 
ATOM     18  C   UNL     1       5.598   4.464  14.484  0.00  0.00    +0.000 A 
ATOM     19  C   UNL     1       6.827   5.106  14.633  0.00  0.00    +0.000 A 
ATOM     20 CL   UNL     1       7.847   5.325  13.266  0.00  0.00    +0.000 Cl
ATOM     21  C   UNL     1       7.228   5.576  15.878  0.00  0.00    +0.000 A 
ATOM     22  C   UNL     1       6.370   5.433  16.965  0.00  0.00    +0.000 A 
ATOM     23  F   UNL     1       6.768   5.901  18.158  0.00  0.00    +0.000 F 
ENDBRANCH   1  16
BRANCH   1  24
ATOM     24  C   UNL     1       4.284   3.372  18.687  0.00  0.00    +0.000 A 
ATOM     25  C   UNL     1       3.722   2.250  18.106  0.00  0.00    +0.000 A 
ATOM     26  N   UNL     1       3.739   1.024  18.662  0.00  0.00    +0.000 NA
ATOM     27  C   UNL     1       4.344   0.937  19.856  0.00  0.00    +0.000 A 
ATOM     28  N   UNL     1       4.925   1.946  20.521  0.00  0.00    +0.000 NA
ATOM     29  C   UNL     1       4.886   3.147  19.913  0.00  0.00    +0.000 A 
ENDBRANCH   1  24
TORSDOF 4
ENDMDL
MODEL 3
REMARK VINA RESULT:      -6.3      1.457      1.894
REMARK  Name = 
REMARK  7 active torsions:
REMARK  status: ('A' for Active; 'I' for Inactive)
REMARK    1  A    between atoms: C_1  and  C_2
REMARK    2  A    between atoms: C_2  and  C_3
REMARK    3  A    between atoms: C_2  and  C_4
REMARK    4  A    between atoms: C_2  and  N_5
REMARK    5  A    between atoms: N_11  and  C_12
REMARK    6  A    between atoms: C_12  and  C_13
REMARK    7  A    between atoms: C_12  and  C_19
REMARK                            x       y       z     vdW  Elec       q    Type
REMARK                         _______ _______ _______ _____ _____    ______ ____
ROOT
ATOM      1  C   UNL     1       3.674   5.399  18.953  0.00  0.00    +0.000 C 
ENDROOT
BRANCH   1   8
ATOM      2  N   UNL     1       0.871  10.517  19.437  0.00  0.00    +0.000 N 
ATOM      3  C   UNL     1       1.070   9.525  20.363  0.00  0.00    +0.000 C 
ATOM      4  O   UNL     1       0.742   9.626  21.541  0.00  0.00    +0.000 OA
ATOM      5  N   UNL     1       1.640   8.377  19.851  0.00  0.00    +0.000 N 
ATOM      6  C   UNL     1       1.728   7.194  20.707  0.00  0.00    +0.000 C 
ATOM      7  C   UNL     1       1.442   5.909  19.900  0.00  0.00    +0.000 C 
ATOM      8  N   UNL     1       2.250   5.745  18.651  0.00  0.00    +0.000 NA
ATOM      9  C   UNL     1       2.081   6.995  17.863  0.00  0.00    +0.000 C 
ATOM     10  C   UNL     1       2.419   8.291  18.615  0.00  0.00    +0.000 C 
ATOM     11  H   UNL     1       0.645  10.149  18.524  0.00  0.00    +0.000 HD
BRANCH   2  13
ATOM     12  C   UNL     1       0.977  12.571  20.830  0.00  0.00    +0.000 C 
ATOM     13  C   UNL     1       0.217  11.799  19.737  0.00  0.00    +0.000 C 
ATOM     14  C   UNL     1      -1.248  11.577  20.152  0.00  0.00    +0.000 C 
ATOM     15  C   UNL     1       0.235  12.653  18.455  0.00  0.00    +0.000 C 
ENDBRANCH   2  13
ENDBRANCH   1   8
BRANCH   1  16
ATOM     16  C   UNL     1       4.598   5.367  17.732  0.00  0.00    +0.000 A 
ATOM     17  C   UNL     1       5.725   6.196  17.597  0.00  0.00    +0.000 A 
ATOM     18  C   UNL     1       6.571   6.078  16.490  0.00  0.00    +0.000 A 
ATOM     19  C   UNL     1       6.274   5.161  15.482  0.00  0.00    +0.000 A 
ATOM     20 CL   UNL     1       7.334   4.995  14.138  0.00  0.00    +0.000 Cl
ATOM     21  C   UNL     1       5.130   4.375  15.562  0.00  0.00    +0.000 A 
ATOM     22  C   UNL     1       4.307   4.487  16.679  0.00  0.00    +0.000 A 
ATOM     23  F   UNL     1       3.212   3.714  16.745  0.00  0.00    +0.000 F 
ENDBRANCH   1  16
BRANCH   1  24
ATOM     24  C   UNL     1       3.763   4.080  19.697  0.00  0.00    +0.000 A 
ATOM     25  C   UNL     1       2.798   3.647  20.588  0.00  0.00    +0.000 A 
ATOM     26  N   UNL     1       2.885   2.508  21.299  0.00  0.00    +0.000 NA
ATOM     27  C   UNL     1       3.998   1.784  21.103  0.00  0.00    +0.000 A 
ATOM     28  N   UNL     1       5.002   2.093  20.270  0.00  0.00    +0.000 NA
ATOM     29  C   UNL     1       4.857   3.239  19.577  0.00  0.00    +0.000 A 
ENDBRANCH   1  24
TORSDOF 4
ENDMDL
MODEL 4
REMARK VINA RESULT:      -6.3      5.661      8.387
REMARK  Name = 
REMARK  7 active torsions:
REMARK  status: ('A' for Active; 'I' for Inactive)
REMARK    1  A    between atoms: C_1  and  C_2
REMARK    2  A    between atoms: C_2  and  C_3
REMARK    3  A    between atoms: C_2  and  C_4
REMARK    4  A    between atoms: C_2  and  N_5
REMARK    5  A    between atoms: N_11  and  C_12
REMARK    6  A    between atoms: C_12  and  C_13
REMARK    7  A    between atoms: C_12  and  C_19
REMARK                            x       y       z     vdW  Elec       q    Type
REMARK                         _______ _______ _______ _____ _____    ______ ____
ROOT
ATOM      1  C   UNL     1      -0.004  11.199  19.100  0.00  0.00    +0.000 C 
ENDROOT
BRANCH   1   8
ATOM      2  N   UNL     1       2.982  15.722  21.315  0.00  0.00    +0.000 N 
ATOM      3  C   UNL     1       1.641  15.584  21.062  0.00  0.00    +0.000 C 
ATOM      4  O   UNL     1       0.804  16.425  21.379  0.00  0.00    +0.000 OA
ATOM      5  N   UNL     1       1.307  14.431  20.381  0.00  0.00    +0.000 N 
ATOM      6  C   UNL     1      -0.065  14.272  19.899  0.00  0.00    +0.000 C 
ATOM      7  C   UNL     1      -0.084  13.603  18.506  0.00  0.00    +0.000 C 
ATOM      8  N   UNL     1       0.688  12.326  18.400  0.00  0.00    +0.000 NA
ATOM      9  C   UNL     1       2.057  12.607  18.909  0.00  0.00    +0.000 C 
ATOM     10  C   UNL     1       2.119  13.215  20.318  0.00  0.00    +0.000 C 
ATOM     11  H   UNL     1       3.552  15.331  20.579  0.00  0.00    +0.000 HD
BRANCH   2  13
ATOM     12  C   UNL     1       3.030  17.085  23.391  0.00  0.00    +0.000 C 
ATOM     13  C   UNL     1       3.576  16.900  21.965  0.00  0.00    +0.000 C 
ATOM     14  C   UNL     1       3.332  18.164  21.124  0.00  0.00    +0.000 C 
ATOM     15  C   UNL     1       5.096  16.668  22.066  0.00  0.00    +0.000 C 
ENDBRANCH   2  13
ENDBRANCH   1   8
BRANCH   1  16
ATOM     16  C   UNL     1       0.784   9.886  19.135  0.00  0.00    +0.000 A 
ATOM     17  C   UNL     1       1.443   9.353  18.013  0.00  0.00    +0.000 A 
ATOM     18  C   UNL     1       2.202   8.183  18.120  0.00  0.00    +0.000 A 
ATOM     19  C   UNL     1       2.273   7.508  19.338  0.00  0.00    +0.000 A 
ATOM     20 CL   UNL     1       3.234   6.088  19.472  0.00  0.00    +0.000 Cl
ATOM     21  C   UNL     1       1.577   7.980  20.445  0.00  0.00    +0.000 A 
ATOM     22  C   UNL     1       0.842   9.157  20.333  0.00  0.00    +0.000 A 
ATOM     23  F   UNL     1       0.184   9.604  21.412  0.00  0.00    +0.000 F 
ENDBRANCH   1  16
BRANCH   1  24
ATOM     24  C   UNL     1      -1.378  10.955  18.502  0.00  0.00    +0.000 A 
ATOM     25  C   UNL     1      -1.592  10.135  17.410  0.00  0.00    +0.000 A 
ATOM     26  N   UNL     1      -2.793   9.949  16.831  0.00  0.00    +0.000 NA
ATOM     27  C   UNL     1      -3.813  10.629  17.378  0.00  0.00    +0.000 A 
ATOM     28  N   UNL     1      -3.735  11.451  18.434  0.00  0.00    +0.000 NA
ATOM     29  C   UNL     1      -2.511  11.591  18.979  0.00  0.00    +0.000 A 
ENDBRANCH   1  24
TORSDOF 4
ENDMDL
MODEL 5
REMARK VINA RESULT:      -6.2      5.673      8.417
REMARK  Name = 
REMARK  7 active torsions:
REMARK  status: ('A' for Active; 'I' for Inactive)
REMARK    1  A    between atoms: C_1  and  C_2
REMARK    2  A    between atoms: C_2  and  C_3
REMARK    3  A    between atoms: C_2  and  C_4
REMARK    4  A    between atoms: C_2  and  N_5
REMARK    5  A    between atoms: N_11  and  C_12
REMARK    6  A    between atoms: C_12  and  C_13
REMARK    7  A    between atoms: C_12  and  C_19
REMARK                            x       y       z     vdW  Elec       q    Type
REMARK                         _______ _______ _______ _____ _____    ______ ____
ROOT
ATOM      1  C   UNL     1       0.027  11.259  19.095  0.00  0.00    +0.000 C 
ENDROOT
BRANCH   1   8
ATOM      2  N   UNL     1       3.024  15.770  21.320  0.00  0.00    +0.000 N 
ATOM      3  C   UNL     1       1.685  15.643  21.051  0.00  0.00    +0.000 C 
ATOM      4  O   UNL     1       0.852  16.493  21.351  0.00  0.00    +0.000 OA
ATOM      5  N   UNL     1       1.350  14.488  20.373  0.00  0.00    +0.000 N 
ATOM      6  C   UNL     1      -0.017  14.338  19.874  0.00  0.00    +0.000 C 
ATOM      7  C   UNL     1      -0.024  13.660  18.486  0.00  0.00    +0.000 C 
ATOM      8  N   UNL     1       0.738  12.376  18.398  0.00  0.00    +0.000 NA
ATOM      9  C   UNL     1       2.103  12.648  18.922  0.00  0.00    +0.000 C 
ATOM     10  C   UNL     1       2.152  13.265  20.328  0.00  0.00    +0.000 C 
ATOM     11  H   UNL     1       3.601  15.370  20.594  0.00  0.00    +0.000 HD
BRANCH   2  13
ATOM     12  C   UNL     1       3.249  18.242  21.229  0.00  0.00    +0.000 C 
ATOM     13  C   UNL     1       3.620  16.947  21.970  0.00  0.00    +0.000 C 
ATOM     14  C   UNL     1       5.148  16.798  22.066  0.00  0.00    +0.000 C 
ATOM     15  C   UNL     1       3.050  17.039  23.399  0.00  0.00    +0.000 C 
ENDBRANCH   2  13
ENDBRANCH   1   8
BRANCH   1  16
ATOM     16  C   UNL     1       0.796   9.935  19.136  0.00  0.00    +0.000 A 
ATOM     17  C   UNL     1       1.452   9.391  18.017  0.00  0.00    +0.000 A 
ATOM     18  C   UNL     1       2.194   8.211  18.128  0.00  0.00    +0.000 A 
ATOM     19  C   UNL     1       2.251   7.537  19.348  0.00  0.00    +0.000 A 
ATOM     20 CL   UNL     1       3.191   6.104  19.488  0.00  0.00    +0.000 Cl
ATOM     21  C   UNL     1       1.558   8.021  20.451  0.00  0.00    +0.000 A 
ATOM     22  C   UNL     1       0.839   9.208  20.334  0.00  0.00    +0.000 A 
ATOM     23  F   UNL     1       0.184   9.666  21.411  0.00  0.00    +0.000 F 
ENDBRANCH   1  16
BRANCH   1  24
ATOM     24  C   UNL     1      -1.347  11.034  18.491  0.00  0.00    +0.000 A 
ATOM     25  C   UNL     1      -2.489  11.655  18.959  0.00  0.00    +0.000 A 
ATOM     26  N   UNL     1      -3.724  11.427  18.474  0.00  0.00    +0.000 NA
ATOM     27  C   UNL     1      -3.801  10.528  17.481  0.00  0.00    +0.000 A 
ATOM     28  N   UNL     1      -2.771   9.861  16.941  0.00  0.00    +0.000 NA
ATOM     29  C   UNL     1      -1.559  10.136  17.459  0.00  0.00    +0.000 A 
ENDBRANCH   1  24
TORSDOF 4
ENDMDL
MODEL 6
REMARK VINA RESULT:      -6.2      3.803      7.384
REMARK  Name = 
REMARK  7 active torsions:
REMARK  status: ('A' for Active; 'I' for Inactive)
REMARK    1  A    between atoms: C_1  and  C_2
REMARK    2  A    between atoms: C_2  and  C_3
REMARK    3  A    between atoms: C_2  and  C_4
REMARK    4  A    between atoms: C_2  and  N_5
REMARK    5  A    between atoms: N_11  and  C_12
REMARK    6  A    between atoms: C_12  and  C_13
REMARK    7  A    between atoms: C_12  and  C_19
REMARK                            x       y       z     vdW  Elec       q    Type
REMARK                         _______ _______ _______ _____ _____    ______ ____
ROOT
ATOM      1  C   UNL     1       2.986   6.079  18.200  0.00  0.00    +0.000 C 
ENDROOT
BRANCH   1   8
ATOM      2  N   UNL     1       6.898   5.558  13.874  0.00  0.00    +0.000 N 
ATOM      3  C   UNL     1       6.260   4.594  14.613  0.00  0.00    +0.000 C 
ATOM      4  O   UNL     1       6.360   3.392  14.385  0.00  0.00    +0.000 OA
ATOM      5  N   UNL     1       5.518   5.086  15.668  0.00  0.00    +0.000 N 
ATOM      6  C   UNL     1       4.949   4.140  16.628  0.00  0.00    +0.000 C 
ATOM      7  C   UNL     1       5.037   4.696  18.067  0.00  0.00    +0.000 C 
ATOM      8  N   UNL     1       4.482   6.072  18.255  0.00  0.00    +0.000 NA
ATOM      9  C   UNL     1       5.131   6.941  17.238  0.00  0.00    +0.000 C 
ATOM     10  C   UNL     1       5.009   6.452  15.787  0.00  0.00    +0.000 C 
ATOM     11  H   UNL     1       7.194   6.340  14.440  0.00  0.00    +0.000 HD
BRANCH   2  13
ATOM     12  C   UNL     1       7.413   3.946  12.056  0.00  0.00    +0.000 C 
ATOM     13  C   UNL     1       7.796   5.266  12.748  0.00  0.00    +0.000 C 
ATOM     14  C   UNL     1       9.260   5.225  13.218  0.00  0.00    +0.000 C 
ATOM     15  C   UNL     1       7.648   6.401  11.717  0.00  0.00    +0.000 C 
ENDBRANCH   2  13
ENDBRANCH   1   8
BRANCH   1  16
ATOM     16  C   UNL     1       2.322   7.230  18.962  0.00  0.00    +0.000 A 
ATOM     17  C   UNL     1       1.958   7.148  20.318  0.00  0.00    +0.000 A 
ATOM     18  C   UNL     1       1.414   8.253  20.979  0.00  0.00    +0.000 A 
ATOM     19  C   UNL     1       1.184   9.438  20.282  0.00  0.00    +0.000 A 
ATOM     20 CL   UNL     1       0.546  10.805  21.107  0.00  0.00    +0.000 Cl
ATOM     21  C   UNL     1       1.476   9.524  18.925  0.00  0.00    +0.000 A 
ATOM     22  C   UNL     1       2.037   8.424  18.282  0.00  0.00    +0.000 A 
ATOM     23  F   UNL     1       2.321   8.525  16.975  0.00  0.00    +0.000 F 
ENDBRANCH   1  16
BRANCH   1  24
ATOM     24  C   UNL     1       2.422   4.755  18.682  0.00  0.00    +0.000 A 
ATOM     25  C   UNL     1       2.816   4.150  19.860  0.00  0.00    +0.000 A 
ATOM     26  N   UNL     1       2.369   2.950  20.277  0.00  0.00    +0.000 NA
ATOM     27  C   UNL     1       1.496   2.340  19.462  0.00  0.00    +0.000 A 
ATOM     28  N   UNL     1       1.037   2.821  18.298  0.00  0.00    +0.000 NA
ATOM     29  C   UNL     1       1.510   4.028  17.935  0.00  0.00    +0.000 A 
ENDBRANCH   1  24
TORSDOF 4
ENDMDL
MODEL 7
REMARK VINA RESULT:      -6.2      3.816      7.433
REMARK  Name = 
REMARK  7 active torsions:
REMARK  status: ('A' for Active; 'I' for Inactive)
REMARK    1  A    between atoms: C_1  and  C_2
REMARK    2  A    between atoms: C_2  and  C_3
REMARK    3  A    between atoms: C_2  and  C_4
REMARK    4  A    between atoms: C_2  and  N_5
REMARK    5  A    between atoms: N_11  and  C_12
REMARK    6  A    between atoms: C_12  and  C_13
REMARK    7  A    between atoms: C_12  and  C_19
REMARK                            x       y       z     vdW  Elec       q    Type
REMARK                         _______ _______ _______ _____ _____    ______ ____
ROOT
ATOM      1  C   UNL     1       2.970   5.999  18.190  0.00  0.00    +0.000 C 
ENDROOT
BRANCH   1   8
ATOM      2  N   UNL     1       6.864   5.566  13.839  0.00  0.00    +0.000 N 
ATOM      3  C   UNL     1       6.243   4.588  14.572  0.00  0.00    +0.000 C 
ATOM      4  O   UNL     1       6.357   3.389  14.333  0.00  0.00    +0.000 OA
ATOM      5  N   UNL     1       5.501   5.060  15.635  0.00  0.00    +0.000 N 
ATOM      6  C   UNL     1       4.948   4.099  16.590  0.00  0.00    +0.000 C 
ATOM      7  C   UNL     1       5.038   4.642  18.033  0.00  0.00    +0.000 C 
ATOM      8  N   UNL     1       4.466   6.010  18.237  0.00  0.00    +0.000 NA
ATOM      9  C   UNL     1       5.099   6.896  17.224  0.00  0.00    +0.000 C 
ATOM     10  C   UNL     1       4.975   6.419  15.769  0.00  0.00    +0.000 C 
ATOM     11  H   UNL     1       7.154   6.347  14.410  0.00  0.00    +0.000 HD
BRANCH   2  13
ATOM     12  C   UNL     1       7.687   6.418  11.655  0.00  0.00    +0.000 C 
ATOM     13  C   UNL     1       7.760   5.295  12.705  0.00  0.00    +0.000 C 
ATOM     14  C   UNL     1       7.432   3.935  12.067  0.00  0.00    +0.000 C 
ATOM     15  C   UNL     1       9.203   5.244  13.243  0.00  0.00    +0.000 C 
ENDBRANCH   2  13
ENDBRANCH   1   8
BRANCH   1  16
ATOM     16  C   UNL     1       2.295   7.123  18.982  0.00  0.00    +0.000 A 
ATOM     17  C   UNL     1       1.940   7.004  20.337  0.00  0.00    +0.000 A 
ATOM     18  C   UNL     1       1.385   8.086  21.027  0.00  0.00    +0.000 A 
ATOM     19  C   UNL     1       1.137   9.285  20.359  0.00  0.00    +0.000 A 
ATOM     20 CL   UNL     1       0.485  10.624  21.220  0.00  0.00    +0.000 Cl
ATOM     21  C   UNL     1       1.420   9.405  19.004  0.00  0.00    +0.000 A 
ATOM     22  C   UNL     1       1.992   8.328  18.331  0.00  0.00    +0.000 A 
ATOM     23  F   UNL     1       2.268   8.464  17.026  0.00  0.00    +0.000 F 
ENDBRANCH   1  16
BRANCH   1  24
ATOM     24  C   UNL     1       2.426   4.656  18.643  0.00  0.00    +0.000 A 
ATOM     25  C   UNL     1       1.509   3.926  17.911  0.00  0.00    +0.000 A 
ATOM     26  N   UNL     1       0.973   2.761  18.322  0.00  0.00    +0.000 NA
ATOM     27  C   UNL     1       1.379   2.327  19.525  0.00  0.00    +0.000 A 
ATOM     28  N   UNL     1       2.260   2.940  20.328  0.00  0.00    +0.000 NA
ATOM     29  C   UNL     1       2.771   4.096  19.862  0.00  0.00    +0.000 A 
ENDBRANCH   1  24
TORSDOF 4
ENDMDL
MODEL 8
REMARK VINA RESULT:      -6.2      8.149     10.136
REMARK  Name = 
REMARK  7 active torsions:
REMARK  status: ('A' for Active; 'I' for Inactive)
REMARK    1  A    between atoms: C_1  and  C_2
REMARK    2  A    between atoms: C_2  and  C_3
REMARK    3  A    between atoms: C_2  and  C_4
REMARK    4  A    between atoms: C_2  and  N_5
REMARK    5  A    between atoms: N_11  and  C_12
REMARK    6  A    between atoms: C_12  and  C_13
REMARK    7  A    between atoms: C_12  and  C_19
REMARK                            x       y       z     vdW  Elec       q    Type
REMARK                         _______ _______ _______ _____ _____    ______ ____
ROOT
ATOM      1  C   UNL     1      -1.344  12.724  20.455  0.00  0.00    +0.000 C 
ENDROOT
BRANCH   1   8
ATOM      2  N   UNL     1       3.958  14.916  19.286  0.00  0.00    +0.000 N 
ATOM      3  C   UNL     1       3.316  14.742  20.486  0.00  0.00    +0.000 C 
ATOM      4  O   UNL     1       3.846  14.953  21.572  0.00  0.00    +0.000 OA
ATOM      5  N   UNL     1       1.999  14.344  20.372  0.00  0.00    +0.000 N 
ATOM      6  C   UNL     1       1.170  14.307  21.577  0.00  0.00    +0.000 C 
ATOM      7  C   UNL     1      -0.263  14.798  21.274  0.00  0.00    +0.000 C 
ATOM      8  N   UNL     1      -0.938  14.124  20.120  0.00  0.00    +0.000 NA
ATOM      9  C   UNL     1      -0.013  14.228  18.960  0.00  0.00    +0.000 C 
ATOM     10  C   UNL     1       1.405  13.691  19.206  0.00  0.00    +0.000 C 
ATOM     11  H   UNL     1       3.338  15.258  18.567  0.00  0.00    +0.000 HD
BRANCH   2  13
ATOM     12  C   UNL     1       6.215  14.905  20.324  0.00  0.00    +0.000 C 
ATOM     13  C   UNL     1       5.340  15.402  19.160  0.00  0.00    +0.000 C 
ATOM     14  C   UNL     1       5.370  16.937  19.078  0.00  0.00    +0.000 C 
ATOM     15  C   UNL     1       5.924  14.833  17.852  0.00  0.00    +0.000 C 
ENDBRANCH   2  13
ENDBRANCH   1   8
BRANCH   1  16
ATOM     16  C   UNL     1      -1.801  11.885  19.258  0.00  0.00    +0.000 A 
ATOM     17  C   UNL     1      -3.025  12.089  18.597  0.00  0.00    +0.000 A 
ATOM     18  C   UNL     1      -3.361  11.335  17.469  0.00  0.00    +0.000 A 
ATOM     19  C   UNL     1      -2.499  10.337  17.015  0.00  0.00    +0.000 A 
ATOM     20 CL   UNL     1      -2.901   9.435  15.607  0.00  0.00    +0.000 Cl
ATOM     21  C   UNL     1      -1.313  10.074  17.690  0.00  0.00    +0.000 A 
ATOM     22  C   UNL     1      -0.978  10.844  18.801  0.00  0.00    +0.000 A 
ATOM     23  F   UNL     1       0.174  10.583  19.436  0.00  0.00    +0.000 F 
ENDBRANCH   1  16
BRANCH   1  24
ATOM     24  C   UNL     1      -2.420  12.715  21.526  0.00  0.00    +0.000 A 
ATOM     25  C   UNL     1      -3.545  13.517  21.473  0.00  0.00    +0.000 A 
ATOM     26  N   UNL     1      -4.482  13.565  22.438  0.00  0.00    +0.000 NA
ATOM     27  C   UNL     1      -4.264  12.774  23.500  0.00  0.00    +0.000 A 
ATOM     28  N   UNL     1      -3.217  11.954  23.669  0.00  0.00    +0.000 NA
ATOM     29  C   UNL     1      -2.316  11.939  22.668  0.00  0.00    +0.000 A 
ENDBRANCH   1  24
TORSDOF 4
ENDMDL
MODEL 9
REMARK VINA RESULT:      -6.1      7.708      9.533
REMARK  Name = 
REMARK  7 active torsions:
REMARK  status: ('A' for Active; 'I' for Inactive)
REMARK    1  A    between atoms: C_1  and  C_2
REMARK    2  A    between atoms: C_2  and  C_3
REMARK    3  A    between atoms: C_2  and  C_4
REMARK    4  A    between atoms: C_2  and  N_5
REMARK    5  A    between atoms: N_11  and  C_12
REMARK    6  A    between atoms: C_12  and  C_13
REMARK    7  A    between atoms: C_12  and  C_19
REMARK                            x       y       z     vdW  Elec       q    Type
REMARK                         _______ _______ _______ _____ _____    ______ ____
ROOT
ATOM      1  C   UNL     1      -0.256  12.296  19.904  0.00  0.00    +0.000 C 
ENDROOT
BRANCH   1   8
ATOM      2  N   UNL     1       4.940  14.876  19.110  0.00  0.00    +0.000 N 
ATOM      3  C   UNL     1       4.246  14.617  20.264  0.00  0.00    +0.000 C 
ATOM      4  O   UNL     1       4.701  14.824  21.385  0.00  0.00    +0.000 OA
ATOM      5  N   UNL     1       2.968  14.136  20.063  0.00  0.00    +0.000 N 
ATOM      6  C   UNL     1       2.078  14.002  21.217  0.00  0.00    +0.000 C 
ATOM      7  C   UNL     1       0.634  14.407  20.848  0.00  0.00    +0.000 C 
ATOM      8  N   UNL     1       0.071  13.731  19.637  0.00  0.00    +0.000 NA
ATOM      9  C   UNL     1       1.049  13.937  18.536  0.00  0.00    +0.000 C 
ATOM     10  C   UNL     1       2.485  13.487  18.844  0.00  0.00    +0.000 C 
ATOM     11  H   UNL     1       4.338  15.201  18.367  0.00  0.00    +0.000 HD
BRANCH   2  13
ATOM     12  C   UNL     1       7.184  14.851  20.174  0.00  0.00    +0.000 C 
ATOM     13  C   UNL     1       6.290  15.457  19.078  0.00  0.00    +0.000 C 
ATOM     14  C   UNL     1       6.226  16.987  19.216  0.00  0.00    +0.000 C 
ATOM     15  C   UNL     1       6.920  15.117  17.713  0.00  0.00    +0.000 C 
ENDBRANCH   2  13
ENDBRANCH   1   8
BRANCH   1  16
ATOM     16  C   UNL     1      -1.012  11.590  18.774  0.00  0.00    +0.000 A 
ATOM     17  C   UNL     1      -2.150  12.133  18.152  0.00  0.00    +0.000 A 
ATOM     18  C   UNL     1      -2.762  11.474  17.082  0.00  0.00    +0.000 A 
ATOM     19  C   UNL     1      -2.272  10.242  16.651  0.00  0.00    +0.000 A 
ATOM     20 CL   UNL     1      -3.007   9.450  15.313  0.00  0.00    +0.000 Cl
ATOM     21  C   UNL     1      -1.188   9.654  17.292  0.00  0.00    +0.000 A 
ATOM     22  C   UNL     1      -0.573  10.329  18.343  0.00  0.00    +0.000 A 
ATOM     23  F   UNL     1       0.478   9.752  18.945  0.00  0.00    +0.000 F 
ENDBRANCH   1  16
BRANCH   1  24
ATOM     24  C   UNL     1      -1.026  12.150  21.204  0.00  0.00    +0.000 A 
ATOM     25  C   UNL     1      -0.613  11.334  22.240  0.00  0.00    +0.000 A 
ATOM     26  N   UNL     1      -1.310  11.149  23.377  0.00  0.00    +0.000 NA
ATOM     27  C   UNL     1      -2.473  11.813  23.460  0.00  0.00    +0.000 A 
ATOM     28  N   UNL     1      -2.981  12.632  22.528  0.00  0.00    +0.000 NA
ATOM     29  C   UNL     1      -2.237  12.787  21.416  0.00  0.00    +0.000 A 
ENDBRANCH   1  24
TORSDOF 4
ENDMDL
