MODEL 1
REMARK VINA RESULT:      -8.2      0.000      0.000
REMARK  Name = 
REMARK  8 active torsions:
REMARK  status: ('A' for Active; 'I' for Inactive)
REMARK    1  A    between atoms: C_2  and  C_3
REMARK    2  A    between atoms: C_3  and  O_4
REMARK    3  A    between atoms: O_4  and  C_5
REMARK    4  A    between atoms: C_10  and  C_11
REMARK    5  A    between atoms: C_11  and  N_12
REMARK    6  A    between atoms: N_12  and  C_13
REMARK    7  A    between atoms: N_16  and  C_17
REMARK    8  A    between atoms: C_17  and  C_18
REMARK                            x       y       z     vdW  Elec       q    Type
REMARK                         _______ _______ _______ _____ _____    ______ ____
ROOT
ATOM      1  N   UNL     1       4.180   2.657  18.311  0.00  0.00    +0.000 NA
ATOM      2  H   UNL     1       4.667   1.784  18.115  0.00  0.00    +0.000 HD
ENDROOT
BRANCH   1   3
ATOM      3  C   UNL     1       2.767   2.366  18.640  0.00  0.00    +0.000 C 
ATOM      4  C   UNL     1       1.863   3.255  17.768  0.00  0.00    +0.000 C 
ATOM      5  C   UNL     1       2.106   4.744  18.054  0.00  0.00    +0.000 C 
ATOM      6  N   UNL     1       2.108   5.137  19.483  0.00  0.00    +0.000 NA
ATOM      7  C   UNL     1       2.634   4.121  20.409  0.00  0.00    +0.000 C 
ATOM      8  C   UNL     1       2.331   2.671  20.072  0.00  0.00    +0.000 C 
BRANCH   6   9
ATOM      9  C   UNL     1       2.871   6.404  19.615  0.00  0.00    +0.000 C 
BRANCH   9  10
ATOM     10  C   UNL     1       2.103   7.698  19.392  0.00  0.00    +0.000 A 
ATOM     11  C   UNL     1       1.375   8.311  20.432  0.00  0.00    +0.000 A 
ATOM     12  C   UNL     1       0.755   9.549  20.251  0.00  0.00    +0.000 A 
ATOM     13  C   UNL     1       0.842  10.191  19.029  0.00  0.00    +0.000 A 
ATOM     14  C   UNL     1       1.535   9.583  17.978  0.00  0.00    +0.000 A 
ATOM     15  C   UNL     1       2.160   8.347  18.155  0.00  0.00    +0.000 A 
ENDBRANCH   9  10
ENDBRANCH   6   9
ENDBRANCH   1   3
BRANCH   1  16
ATOM     16  C   UNL     1       4.418   3.512  17.150  0.00  0.00    +0.000 C 
BRANCH  16  22
ATOM     17  C   UNL     1       6.123   5.357  16.491  0.00  0.00    +0.000 A 
ATOM     18  C   UNL     1       7.037   6.340  16.902  0.00  0.00    +0.000 A 
ATOM     19  C   UNL     1       7.484   6.395  18.216  0.00  0.00    +0.000 A 
ATOM     20  C   UNL     1       6.974   5.508  19.153  0.00  0.00    +0.000 A 
ATOM     21  C   UNL     1       5.981   4.599  18.782  0.00  0.00    +0.000 A 
ATOM     22  C   UNL     1       5.513   4.524  17.455  0.00  0.00    +0.000 A 
BRANCH  17  23
ATOM     23  O   UNL     1       5.819   5.221  15.156  0.00  0.00    +0.000 OA
BRANCH  23  24
ATOM     24  C   UNL     1       6.724   4.345  14.448  0.00  0.00    +0.000 C 
BRANCH  24  26
ATOM     25  C   UNL     1       5.530   3.245  12.138  0.00  0.00    +0.000 C 
ATOM     26  C   UNL     1       6.081   3.753  13.205  0.00  0.00    +0.000 C 
ENDBRANCH  24  26
ENDBRANCH  23  24
ENDBRANCH  17  23
ENDBRANCH  16  22
ENDBRANCH   1  16
TORSDOF 8
ENDMDL
MODEL 2
REMARK VINA RESULT:      -8.1      0.944      1.521
REMARK  Name = 
REMARK  8 active torsions:
REMARK  status: ('A' for Active; 'I' for Inactive)
REMARK    1  A    between atoms: C_2  and  C_3
REMARK    2  A    between atoms: C_3  and  O_4
REMARK    3  A    between atoms: O_4  and  C_5
REMARK    4  A    between atoms: C_10  and  C_11
REMARK    5  A    between atoms: C_11  and  N_12
REMARK    6  A    between atoms: N_12  and  C_13
REMARK    7  A    between atoms: N_16  and  C_17
REMARK    8  A    between atoms: C_17  and  C_18
REMARK                            x       y       z     vdW  Elec       q    Type
REMARK                         _______ _______ _______ _____ _____    ______ ____
ROOT
ATOM      1  N   UNL     1       3.669   3.763  17.123  0.00  0.00    +0.000 NA
ATOM      2  H   UNL     1       3.729   4.513  17.810  0.00  0.00    +0.000 HD
ENDROOT
BRANCH   1   3
ATOM      3  C   UNL     1       2.937   2.619  17.710  0.00  0.00    +0.000 C 
ATOM      4  C   UNL     1       1.481   3.042  17.969  0.00  0.00    +0.000 C 
ATOM      5  C   UNL     1       1.410   4.200  18.975  0.00  0.00    +0.000 C 
ATOM      6  N   UNL     1       2.198   4.028  20.219  0.00  0.00    +0.000 NA
ATOM      7  C   UNL     1       3.452   3.272  20.063  0.00  0.00    +0.000 C 
ATOM      8  C   UNL     1       3.436   2.125  19.068  0.00  0.00    +0.000 C 
BRANCH   6   9
ATOM      9  C   UNL     1       2.470   5.372  20.787  0.00  0.00    +0.000 C 
BRANCH   9  10
ATOM     10  C   UNL     1       2.502   6.539  19.812  0.00  0.00    +0.000 A 
ATOM     11  C   UNL     1       3.294   6.503  18.646  0.00  0.00    +0.000 A 
ATOM     12  C   UNL     1       3.244   7.531  17.704  0.00  0.00    +0.000 A 
ATOM     13  C   UNL     1       2.413   8.617  17.912  0.00  0.00    +0.000 A 
ATOM     14  C   UNL     1       1.642   8.683  19.077  0.00  0.00    +0.000 A 
ATOM     15  C   UNL     1       1.686   7.655  20.021  0.00  0.00    +0.000 A 
ENDBRANCH   9  10
ENDBRANCH   6   9
ENDBRANCH   1   3
BRANCH   1  16
ATOM     16  C   UNL     1       5.044   3.509  16.695  0.00  0.00    +0.000 C 
BRANCH  16  22
ATOM     17  C   UNL     1       6.431   5.674  16.328  0.00  0.00    +0.000 A 
ATOM     18  C   UNL     1       7.171   6.728  16.888  0.00  0.00    +0.000 A 
ATOM     19  C   UNL     1       7.593   6.680  18.209  0.00  0.00    +0.000 A 
ATOM     20  C   UNL     1       7.228   5.607  19.009  0.00  0.00    +0.000 A 
ATOM     21  C   UNL     1       6.398   4.608  18.496  0.00  0.00    +0.000 A 
ATOM     22  C   UNL     1       5.957   4.635  17.159  0.00  0.00    +0.000 A 
BRANCH  17  23
ATOM     23  O   UNL     1       6.162   5.668  14.978  0.00  0.00    +0.000 OA
BRANCH  23  24
ATOM     24  C   UNL     1       7.082   4.857  14.214  0.00  0.00    +0.000 C 
BRANCH  24  26
ATOM     25  C   UNL     1       5.741   3.251  12.317  0.00  0.00    +0.000 C 
ATOM     26  C   UNL     1       6.361   3.993  13.193  0.00  0.00    +0.000 C 
ENDBRANCH  24  26
ENDBRANCH  23  24
ENDBRANCH  17  23
ENDBRANCH  16  22
ENDBRANCH   1  16
TORSDOF 8
ENDMDL
MODEL 3
REMARK VINA RESULT:      -8.1      0.680      1.178
REMARK  Name = 
REMARK  8 active torsions:
REMARK  status: ('A' for Active; 'I' for Inactive)
REMARK    1  A    between atoms: C_2  and  C_3
REMARK    2  A    between atoms: C_3  and  O_4
REMARK    3  A    between atoms: O_4  and  C_5
REMARK    4  A    between atoms: C_10  and  C_11
REMARK    5  A    between atoms: C_11  and  N_12
REMARK    6  A    between atoms: N_12  and  C_13
REMARK    7  A    between atoms: N_16  and  C_17
REMARK    8  A    between atoms: C_17  and  C_18
REMARK                            x       y       z     vdW  Elec       q    Type
REMARK                         _______ _______ _______ _____ _____    ______ ____
ROOT
ATOM      1  N   UNL     1       3.760   2.739  18.911  0.00  0.00    +0.000 NA
ATOM      2  H   UNL     1       4.272   1.882  19.116  0.00  0.00    +0.000 HD
ENDROOT
BRANCH   1   3
ATOM      3  C   UNL     1       2.319   2.520  19.170  0.00  0.00    +0.000 C 
ATOM      4  C   UNL     1       1.505   3.442  18.247  0.00  0.00    +0.000 C 
ATOM      5  C   UNL     1       1.805   4.920  18.532  0.00  0.00    +0.000 C 
ATOM      6  N   UNL     1       1.755   5.328  19.957  0.00  0.00    +0.000 NA
ATOM      7  C   UNL     1       2.183   4.297  20.916  0.00  0.00    +0.000 C 
ATOM      8  C   UNL     1       1.827   2.861  20.576  0.00  0.00    +0.000 C 
BRANCH   6   9
ATOM      9  C   UNL     1       2.570   6.558  20.117  0.00  0.00    +0.000 C 
BRANCH   9  10
ATOM     10  C   UNL     1       1.937   7.868  19.673  0.00  0.00    +0.000 A 
ATOM     11  C   UNL     1       2.107   8.361  18.363  0.00  0.00    +0.000 A 
ATOM     12  C   UNL     1       1.444   9.510  17.929  0.00  0.00    +0.000 A 
ATOM     13  C   UNL     1       0.608  10.192  18.795  0.00  0.00    +0.000 A 
ATOM     14  C   UNL     1       0.450   9.733  20.107  0.00  0.00    +0.000 A 
ATOM     15  C   UNL     1       1.109   8.583  20.544  0.00  0.00    +0.000 A 
ENDBRANCH   9  10
ENDBRANCH   6   9
ENDBRANCH   1   3
BRANCH   1  16
ATOM     16  C   UNL     1       4.130   3.105  17.545  0.00  0.00    +0.000 C 
BRANCH  16  22
ATOM     17  C   UNL     1       6.181   4.277  16.467  0.00  0.00    +0.000 A 
ATOM     18  C   UNL     1       7.163   5.278  16.546  0.00  0.00    +0.000 A 
ATOM     19  C   UNL     1       7.406   5.947  17.738  0.00  0.00    +0.000 A 
ATOM     20  C   UNL     1       6.627   5.671  18.852  0.00  0.00    +0.000 A 
ATOM     21  C   UNL     1       5.574   4.759  18.756  0.00  0.00    +0.000 A 
ATOM     22  C   UNL     1       5.308   4.067  17.558  0.00  0.00    +0.000 A 
BRANCH  17  23
ATOM     23  O   UNL     1       6.067   3.518  15.324  0.00  0.00    +0.000 OA
BRANCH  23  24
ATOM     24  C   UNL     1       6.446   4.229  14.125  0.00  0.00    +0.000 C 
BRANCH  24  26
ATOM     25  C   UNL     1       5.208   3.147  11.829  0.00  0.00    +0.000 C 
ATOM     26  C   UNL     1       5.779   3.647  12.889  0.00  0.00    +0.000 C 
ENDBRANCH  24  26
ENDBRANCH  23  24
ENDBRANCH  17  23
ENDBRANCH  16  22
ENDBRANCH   1  16
TORSDOF 8
ENDMDL
MODEL 4
REMARK VINA RESULT:      -8.1      1.021      1.374
REMARK  Name = 
REMARK  8 active torsions:
REMARK  status: ('A' for Active; 'I' for Inactive)
REMARK    1  A    between atoms: C_2  and  C_3
REMARK    2  A    between atoms: C_3  and  O_4
REMARK    3  A    between atoms: O_4  and  C_5
REMARK    4  A    between atoms: C_10  and  C_11
REMARK    5  A    between atoms: C_11  and  N_12
REMARK    6  A    between atoms: N_12  and  C_13
REMARK    7  A    between atoms: N_16  and  C_17
REMARK    8  A    between atoms: C_17  and  C_18
REMARK                            x       y       z     vdW  Elec       q    Type
REMARK                         _______ _______ _______ _____ _____    ______ ____
ROOT
ATOM      1  N   UNL     1       3.450   3.725  17.329  0.00  0.00    +0.000 NA
ATOM      2  H   UNL     1       3.637   4.354  18.108  0.00  0.00    +0.000 HD
ENDROOT
BRANCH   1   3
ATOM      3  C   UNL     1       2.906   2.451  17.851  0.00  0.00    +0.000 C 
ATOM      4  C   UNL     1       1.427   2.658  18.220  0.00  0.00    +0.000 C 
ATOM      5  C   UNL     1       1.274   3.712  19.326  0.00  0.00    +0.000 C 
ATOM      6  N   UNL     1       2.153   3.544  20.508  0.00  0.00    +0.000 NA
ATOM      7  C   UNL     1       3.480   2.974  20.222  0.00  0.00    +0.000 C 
ATOM      8  C   UNL     1       3.546   1.918  19.132  0.00  0.00    +0.000 C 
BRANCH   6   9
ATOM      9  C   UNL     1       2.288   4.862  21.177  0.00  0.00    +0.000 C 
BRANCH   9  10
ATOM     10  C   UNL     1       2.166   6.098  20.299  0.00  0.00    +0.000 A 
ATOM     11  C   UNL     1       1.418   7.221  20.707  0.00  0.00    +0.000 A 
ATOM     12  C   UNL     1       1.391   8.390  19.945  0.00  0.00    +0.000 A 
ATOM     13  C   UNL     1       2.100   8.457  18.759  0.00  0.00    +0.000 A 
ATOM     14  C   UNL     1       2.825   7.342  18.325  0.00  0.00    +0.000 A 
ATOM     15  C   UNL     1       2.858   6.172  19.085  0.00  0.00    +0.000 A 
ENDBRANCH   9  10
ENDBRANCH   6   9
ENDBRANCH   1   3
BRANCH   1  16
ATOM     16  C   UNL     1       4.701   3.641  16.579  0.00  0.00    +0.000 C 
BRANCH  16  22
ATOM     17  C   UNL     1       6.341   5.638  16.317  0.00  0.00    +0.000 A 
ATOM     18  C   UNL     1       7.156   6.603  16.931  0.00  0.00    +0.000 A 
ATOM     19  C   UNL     1       7.484   6.508  18.276  0.00  0.00    +0.000 A 
ATOM     20  C   UNL     1       6.952   5.483  19.043  0.00  0.00    +0.000 A 
ATOM     21  C   UNL     1       6.051   4.582  18.471  0.00  0.00    +0.000 A 
ATOM     22  C   UNL     1       5.703   4.658  17.108  0.00  0.00    +0.000 A 
BRANCH  17  23
ATOM     23  O   UNL     1       6.160   5.663  14.953  0.00  0.00    +0.000 OA
BRANCH  23  24
ATOM     24  C   UNL     1       7.095   4.826  14.236  0.00  0.00    +0.000 C 
BRANCH  24  26
ATOM     25  C   UNL     1       5.803   3.238  12.290  0.00  0.00    +0.000 C 
ATOM     26  C   UNL     1       6.400   3.971  13.188  0.00  0.00    +0.000 C 
ENDBRANCH  24  26
ENDBRANCH  23  24
ENDBRANCH  17  23
ENDBRANCH  16  22
ENDBRANCH   1  16
TORSDOF 8
ENDMDL
MODEL 5
REMARK VINA RESULT:      -7.9      2.694      7.040
REMARK  Name = 
REMARK  8 active torsions:
REMARK  status: ('A' for Active; 'I' for Inactive)
REMARK    1  A    between atoms: C_2  and  C_3
REMARK    2  A    between atoms: C_3  and  O_4
REMARK    3  A    between atoms: O_4  and  C_5
REMARK    4  A    between atoms: C_10  and  C_11
REMARK    5  A    between atoms: C_11  and  N_12
REMARK    6  A    between atoms: N_12  and  C_13
REMARK    7  A    between atoms: N_16  and  C_17
REMARK    8  A    between atoms: C_17  and  C_18
REMARK                            x       y       z     vdW  Elec       q    Type
REMARK                         _______ _______ _______ _____ _____    ______ ____
ROOT
ATOM      1  N   UNL     1       6.013   5.483  19.422  0.00  0.00    +0.000 NA
ATOM      2  H   UNL     1       5.474   5.989  18.720  0.00  0.00    +0.000 HD
ENDROOT
BRANCH   1   3
ATOM      3  C   UNL     1       7.457   5.643  19.139  0.00  0.00    +0.000 C 
ATOM      4  C   UNL     1       7.669   6.965  18.382  0.00  0.00    +0.000 C 
ATOM      5  C   UNL     1       6.934   6.957  17.034  0.00  0.00    +0.000 C 
ATOM      6  N   UNL     1       7.145   5.758  16.188  0.00  0.00    +0.000 NA
ATOM      7  C   UNL     1       7.330   4.498  16.926  0.00  0.00    +0.000 C 
ATOM      8  C   UNL     1       8.089   4.583  18.238  0.00  0.00    +0.000 C 
BRANCH   6   9
ATOM      9  C   UNL     1       6.002   5.646  15.247  0.00  0.00    +0.000 C 
BRANCH   9  10
ATOM     10  C   UNL     1       6.207   4.783  14.011  0.00  0.00    +0.000 A 
ATOM     11  C   UNL     1       5.231   3.859  13.588  0.00  0.00    +0.000 A 
ATOM     12  C   UNL     1       5.378   3.142  12.399  0.00  0.00    +0.000 A 
ATOM     13  C   UNL     1       6.504   3.327  11.618  0.00  0.00    +0.000 A 
ATOM     14  C   UNL     1       7.496   4.219  12.037  0.00  0.00    +0.000 A 
ATOM     15  C   UNL     1       7.352   4.941  13.223  0.00  0.00    +0.000 A 
ENDBRANCH   9  10
ENDBRANCH   6   9
ENDBRANCH   1   3
BRANCH   1  16
ATOM     16  C   UNL     1       5.493   4.117  19.410  0.00  0.00    +0.000 C 
BRANCH  16  22
ATOM     17  C   UNL     1       3.037   4.852  18.991  0.00  0.00    +0.000 A 
ATOM     18  C   UNL     1       1.902   4.810  18.165  0.00  0.00    +0.000 A 
ATOM     19  C   UNL     1       1.800   3.880  17.139  0.00  0.00    +0.000 A 
ATOM     20  C   UNL     1       2.859   3.021  16.882  0.00  0.00    +0.000 A 
ATOM     21  C   UNL     1       4.038   3.129  17.623  0.00  0.00    +0.000 A 
ATOM     22  C   UNL     1       4.164   4.064  18.669  0.00  0.00    +0.000 A 
BRANCH  17  23
ATOM     23  O   UNL     1       3.049   5.670  20.098  0.00  0.00    +0.000 OA
BRANCH  23  24
ATOM     24  C   UNL     1       1.987   5.382  21.034  0.00  0.00    +0.000 C 
BRANCH  24  26
ATOM     25  C   UNL     1       1.846   2.629  21.650  0.00  0.00    +0.000 C 
ATOM     26  C   UNL     1       1.911   3.900  21.365  0.00  0.00    +0.000 C 
ENDBRANCH  24  26
ENDBRANCH  23  24
ENDBRANCH  17  23
ENDBRANCH  16  22
ENDBRANCH   1  16
TORSDOF 8
ENDMDL
MODEL 6
REMARK VINA RESULT:      -7.8      2.526      6.900
REMARK  Name = 
REMARK  8 active torsions:
REMARK  status: ('A' for Active; 'I' for Inactive)
REMARK    1  A    between atoms: C_2  and  C_3
REMARK    2  A    between atoms: C_3  and  O_4
REMARK    3  A    between atoms: O_4  and  C_5
REMARK    4  A    between atoms: C_10  and  C_11
REMARK    5  A    between atoms: C_11  and  N_12
REMARK    6  A    between atoms: N_12  and  C_13
REMARK    7  A    between atoms: N_16  and  C_17
REMARK    8  A    between atoms: C_17  and  C_18
REMARK                            x       y       z     vdW  Elec       q    Type
REMARK                         _______ _______ _______ _____ _____    ______ ____
ROOT
ATOM      1  N   UNL     1       2.311   5.407  20.588  0.00  0.00    +0.000 NA
ATOM      2  H   UNL     1       2.465   5.540  19.589  0.00  0.00    +0.000 HD
ENDROOT
BRANCH   1   3
ATOM      3  C   UNL     1       1.338   4.311  20.792  0.00  0.00    +0.000 C 
ATOM      4  C   UNL     1       2.058   3.129  21.464  0.00  0.00    +0.000 C 
ATOM      5  C   UNL     1       3.185   2.586  20.573  0.00  0.00    +0.000 C 
ATOM      6  N   UNL     1       2.824   2.322  19.160  0.00  0.00    +0.000 NA
ATOM      7  C   UNL     1       1.821   3.237  18.591  0.00  0.00    +0.000 C 
ATOM      8  C   UNL     1       0.723   3.711  19.528  0.00  0.00    +0.000 C 
BRANCH   6   9
ATOM      9  C   UNL     1       4.068   2.348  18.350  0.00  0.00    +0.000 C 
BRANCH   9  10
ATOM     10  C   UNL     1       4.645   3.715  18.015  0.00  0.00    +0.000 A 
ATOM     11  C   UNL     1       4.393   4.336  16.775  0.00  0.00    +0.000 A 
ATOM     12  C   UNL     1       4.839   5.632  16.509  0.00  0.00    +0.000 A 
ATOM     13  C   UNL     1       5.551   6.326  17.470  0.00  0.00    +0.000 A 
ATOM     14  C   UNL     1       5.834   5.714  18.696  0.00  0.00    +0.000 A 
ATOM     15  C   UNL     1       5.387   4.420  18.967  0.00  0.00    +0.000 A 
ENDBRANCH   9  10
ENDBRANCH   6   9
ENDBRANCH   1   3
BRANCH   1  16
ATOM     16  C   UNL     1       1.933   6.720  21.107  0.00  0.00    +0.000 C 
BRANCH  16  22
ATOM     17  C   UNL     1       1.122   8.946  20.043  0.00  0.00    +0.000 A 
ATOM     18  C   UNL     1       1.196   9.858  18.978  0.00  0.00    +0.000 A 
ATOM     19  C   UNL     1       1.814   9.511  17.784  0.00  0.00    +0.000 A 
ATOM     20  C   UNL     1       2.422   8.271  17.659  0.00  0.00    +0.000 A 
ATOM     21  C   UNL     1       2.453   7.399  18.750  0.00  0.00    +0.000 A 
ATOM     22  C   UNL     1       1.833   7.728  19.971  0.00  0.00    +0.000 A 
BRANCH  17  23
ATOM     23  O   UNL     1       0.368   9.252  21.154  0.00  0.00    +0.000 OA
BRANCH  23  24
ATOM     24  C   UNL     1       0.482  10.633  21.561  0.00  0.00    +0.000 C 
BRANCH  24  26
ATOM     25  C   UNL     1      -1.717  11.449  23.134  0.00  0.00    +0.000 C 
ATOM     26  C   UNL     1      -0.701  11.072  22.408  0.00  0.00    +0.000 C 
ENDBRANCH  24  26
ENDBRANCH  23  24
ENDBRANCH  17  23
ENDBRANCH  16  22
ENDBRANCH   1  16
TORSDOF 8
ENDMDL
MODEL 7
REMARK VINA RESULT:      -7.7      2.399      6.573
REMARK  Name = 
REMARK  8 active torsions:
REMARK  status: ('A' for Active; 'I' for Inactive)
REMARK    1  A    between atoms: C_2  and  C_3
REMARK    2  A    between atoms: C_3  and  O_4
REMARK    3  A    between atoms: O_4  and  C_5
REMARK    4  A    between atoms: C_10  and  C_11
REMARK    5  A    between atoms: C_11  and  N_12
REMARK    6  A    between atoms: N_12  and  C_13
REMARK    7  A    between atoms: N_16  and  C_17
REMARK    8  A    between atoms: C_17  and  C_18
REMARK                            x       y       z     vdW  Elec       q    Type
REMARK                         _______ _______ _______ _____ _____    ______ ____
ROOT
ATOM      1  N   UNL     1       3.336   6.805  17.727  0.00  0.00    +0.000 NA
ATOM      2  H   UNL     1       3.147   6.381  18.633  0.00  0.00    +0.000 HD
ENDROOT
BRANCH   1   3
ATOM      3  C   UNL     1       4.785   6.716  17.438  0.00  0.00    +0.000 C 
ATOM      4  C   UNL     1       4.985   5.896  16.152  0.00  0.00    +0.000 C 
ATOM      5  C   UNL     1       4.459   4.463  16.321  0.00  0.00    +0.000 C 
ATOM      6  N   UNL     1       4.902   3.750  17.543  0.00  0.00    +0.000 NA
ATOM      7  C   UNL     1       5.091   4.602  18.728  0.00  0.00    +0.000 C 
ATOM      8  C   UNL     1       5.638   5.998  18.483  0.00  0.00    +0.000 C 
BRANCH   6   9
ATOM      9  C   UNL     1       3.925   2.670  17.831  0.00  0.00    +0.000 C 
BRANCH   9  10
ATOM     10  C   UNL     1       2.984   2.887  19.006  0.00  0.00    +0.000 A 
ATOM     11  C   UNL     1       3.342   2.506  20.315  0.00  0.00    +0.000 A 
ATOM     12  C   UNL     1       2.520   2.796  21.405  0.00  0.00    +0.000 A 
ATOM     13  C   UNL     1       1.324   3.463  21.208  0.00  0.00    +0.000 A 
ATOM     14  C   UNL     1       0.940   3.824  19.913  0.00  0.00    +0.000 A 
ATOM     15  C   UNL     1       1.760   3.538  18.820  0.00  0.00    +0.000 A 
ENDBRANCH   9  10
ENDBRANCH   6   9
ENDBRANCH   1   3
BRANCH   1  16
ATOM     16  C   UNL     1       2.764   8.149  17.792  0.00  0.00    +0.000 C 
BRANCH  16  22
ATOM     17  C   UNL     1       1.092   9.406  19.331  0.00  0.00    +0.000 A 
ATOM     18  C   UNL     1       0.291   9.396  20.484  0.00  0.00    +0.000 A 
ATOM     19  C   UNL     1       0.451   8.417  21.455  0.00  0.00    +0.000 A 
ATOM     20  C   UNL     1       1.369   7.396  21.258  0.00  0.00    +0.000 A 
ATOM     21  C   UNL     1       2.091   7.331  20.064  0.00  0.00    +0.000 A 
ATOM     22  C   UNL     1       1.946   8.313  19.064  0.00  0.00    +0.000 A 
BRANCH  17  23
ATOM     23  O   UNL     1       1.028  10.471  18.462  0.00  0.00    +0.000 OA
BRANCH  23  24
ATOM     24  C   UNL     1      -0.229  11.182  18.518  0.00  0.00    +0.000 C 
BRANCH  24  26
ATOM     25  C   UNL     1      -2.245   9.866  17.043  0.00  0.00    +0.000 C 
ATOM     26  C   UNL     1      -1.314  10.474  17.724  0.00  0.00    +0.000 C 
ENDBRANCH  24  26
ENDBRANCH  23  24
ENDBRANCH  17  23
ENDBRANCH  16  22
ENDBRANCH   1  16
TORSDOF 8
ENDMDL
MODEL 8
REMARK VINA RESULT:      -7.7      2.391      6.962
REMARK  Name = 
REMARK  8 active torsions:
REMARK  status: ('A' for Active; 'I' for Inactive)
REMARK    1  A    between atoms: C_2  and  C_3
REMARK    2  A    between atoms: C_3  and  O_4
REMARK    3  A    between atoms: O_4  and  C_5
REMARK    4  A    between atoms: C_10  and  C_11
REMARK    5  A    between atoms: C_11  and  N_12
REMARK    6  A    between atoms: N_12  and  C_13
REMARK    7  A    between atoms: N_16  and  C_17
REMARK    8  A    between atoms: C_17  and  C_18
REMARK                            x       y       z     vdW  Elec       q    Type
REMARK                         _______ _______ _______ _____ _____    ______ ____
ROOT
ATOM      1  N   UNL     1       2.667   5.429  19.597  0.00  0.00    +0.000 NA
ATOM      2  H   UNL     1       2.527   5.819  18.667  0.00  0.00    +0.000 HD
ENDROOT
BRANCH   1   3
ATOM      3  C   UNL     1       2.041   4.090  19.666  0.00  0.00    +0.000 C 
ATOM      4  C   UNL     1       3.123   3.055  20.019  0.00  0.00    +0.000 C 
ATOM      5  C   UNL     1       4.212   3.000  18.938  0.00  0.00    +0.000 C 
ATOM      6  N   UNL     1       3.733   2.889  17.540  0.00  0.00    +0.000 NA
ATOM      7  C   UNL     1       2.462   3.577  17.260  0.00  0.00    +0.000 C 
ATOM      8  C   UNL     1       1.424   3.566  18.369  0.00  0.00    +0.000 C 
BRANCH   6   9
ATOM      9  C   UNL     1       4.803   3.391  16.641  0.00  0.00    +0.000 C 
BRANCH   9  10
ATOM     10  C   UNL     1       5.527   4.657  17.071  0.00  0.00    +0.000 A 
ATOM     11  C   UNL     1       6.803   4.609  17.670  0.00  0.00    +0.000 A 
ATOM     12  C   UNL     1       7.507   5.775  17.971  0.00  0.00    +0.000 A 
ATOM     13  C   UNL     1       6.949   7.009  17.689  0.00  0.00    +0.000 A 
ATOM     14  C   UNL     1       5.673   7.077  17.121  0.00  0.00    +0.000 A 
ATOM     15  C   UNL     1       4.966   5.912  16.815  0.00  0.00    +0.000 A 
ENDBRANCH   9  10
ENDBRANCH   6   9
ENDBRANCH   1   3
BRANCH   1  16
ATOM     16  C   UNL     1       2.160   6.436  20.528  0.00  0.00    +0.000 C 
BRANCH  16  22
ATOM     17  C   UNL     1       0.956   8.723  20.271  0.00  0.00    +0.000 A 
ATOM     18  C   UNL     1       0.812   9.923  19.557  0.00  0.00    +0.000 A 
ATOM     19  C   UNL     1       1.368  10.073  18.294  0.00  0.00    +0.000 A 
ATOM     20  C   UNL     1       2.132   9.049  17.753  0.00  0.00    +0.000 A 
ATOM     21  C   UNL     1       2.378   7.895  18.501  0.00  0.00    +0.000 A 
ATOM     22  C   UNL     1       1.823   7.720  19.784  0.00  0.00    +0.000 A 
BRANCH  17  23
ATOM     23  O   UNL     1       0.264   8.538  21.447  0.00  0.00    +0.000 OA
BRANCH  23  24
ATOM     24  C   UNL     1       0.639   9.471  22.485  0.00  0.00    +0.000 C 
BRANCH  24  26
ATOM     25  C   UNL     1      -1.476  11.225  23.135  0.00  0.00    +0.000 C 
ATOM     26  C   UNL     1      -0.500  10.415  22.835  0.00  0.00    +0.000 C 
ENDBRANCH  24  26
ENDBRANCH  23  24
ENDBRANCH  17  23
ENDBRANCH  16  22
ENDBRANCH   1  16
TORSDOF 8
ENDMDL
MODEL 9
REMARK VINA RESULT:      -7.6      2.318      6.633
REMARK  Name = 
REMARK  8 active torsions:
REMARK  status: ('A' for Active; 'I' for Inactive)
REMARK    1  A    between atoms: C_2  and  C_3
REMARK    2  A    between atoms: C_3  and  O_4
REMARK    3  A    between atoms: O_4  and  C_5
REMARK    4  A    between atoms: C_10  and  C_11
REMARK    5  A    between atoms: C_11  and  N_12
REMARK    6  A    between atoms: N_12  and  C_13
REMARK    7  A    between atoms: N_16  and  C_17
REMARK    8  A    between atoms: C_17  and  C_18
REMARK                            x       y       z     vdW  Elec       q    Type
REMARK                         _______ _______ _______ _____ _____    ______ ____
ROOT
ATOM      1  N   UNL     1       3.474   6.726  17.450  0.00  0.00    +0.000 NA
ATOM      2  H   UNL     1       3.235   6.272  18.330  0.00  0.00    +0.000 HD
ENDROOT
BRANCH   1   3
ATOM      3  C   UNL     1       4.927   6.585  17.206  0.00  0.00    +0.000 C 
ATOM      4  C   UNL     1       5.138   5.651  16.003  0.00  0.00    +0.000 C 
ATOM      5  C   UNL     1       4.579   4.248  16.283  0.00  0.00    +0.000 C 
ATOM      6  N   UNL     1       4.979   3.638  17.573  0.00  0.00    +0.000 NA
ATOM      7  C   UNL     1       5.159   4.587  18.684  0.00  0.00    +0.000 C 
ATOM      8  C   UNL     1       5.741   5.945  18.330  0.00  0.00    +0.000 C 
BRANCH   6   9
ATOM      9  C   UNL     1       3.973   2.606  17.931  0.00  0.00    +0.000 C 
BRANCH   9  10
ATOM     10  C   UNL     1       3.043   2.924  19.091  0.00  0.00    +0.000 A 
ATOM     11  C   UNL     1       1.790   3.537  18.884  0.00  0.00    +0.000 A 
ATOM     12  C   UNL     1       0.897   3.735  19.938  0.00  0.00    +0.000 A 
ATOM     13  C   UNL     1       1.240   3.334  21.217  0.00  0.00    +0.000 A 
ATOM     14  C   UNL     1       2.489   2.750  21.445  0.00  0.00    +0.000 A 
ATOM     15  C   UNL     1       3.385   2.547  20.394  0.00  0.00    +0.000 A 
ENDBRANCH   9  10
ENDBRANCH   6   9
ENDBRANCH   1   3
BRANCH   1  16
ATOM     16  C   UNL     1       2.960   8.090  17.557  0.00  0.00    +0.000 C 
BRANCH  16  22
ATOM     17  C   UNL     1       1.417   9.407  19.180  0.00  0.00    +0.000 A 
ATOM     18  C   UNL     1       0.616   9.403  20.333  0.00  0.00    +0.000 A 
ATOM     19  C   UNL     1       0.674   8.352  21.238  0.00  0.00    +0.000 A 
ATOM     20  C   UNL     1       1.485   7.259  20.972  0.00  0.00    +0.000 A 
ATOM     21  C   UNL     1       2.201   7.199  19.775  0.00  0.00    +0.000 A 
ATOM     22  C   UNL     1       2.158   8.253  18.841  0.00  0.00    +0.000 A 
BRANCH  17  23
ATOM     23  O   UNL     1       1.463  10.527  18.382  0.00  0.00    +0.000 OA
BRANCH  23  24
ATOM     24  C   UNL     1       1.213  11.754  19.102  0.00  0.00    +0.000 C 
BRANCH  24  26
ATOM     25  C   UNL     1       2.809  13.878  18.145  0.00  0.00    +0.000 C 
ATOM     26  C   UNL     1       2.073  12.897  18.587  0.00  0.00    +0.000 C 
ENDBRANCH  24  26
ENDBRANCH  23  24
ENDBRANCH  17  23
ENDBRANCH  16  22
ENDBRANCH   1  16
TORSDOF 8
ENDMDL
