MODEL 1
REMARK VINA RESULT:      -7.8      0.000      0.000
REMARK  Name = 
REMARK  7 active torsions:
REMARK  status: ('A' for Active; 'I' for Inactive)
REMARK    1  A    between atoms: C_1  and  C_2
REMARK    2  A    between atoms: N_4  and  S_5
REMARK    3  A    between atoms: S_5  and  C_8
REMARK    4  A    between atoms: C_11  and  N_12
REMARK    5  A    between atoms: C_13  and  C_15
REMARK    6  A    between atoms: C_15  and  S_16
REMARK    7  A    between atoms: S_16  and  C_17
REMARK                            x       y       z     vdW  Elec       q    Type
REMARK                         _______ _______ _______ _____ _____    ______ ____
ROOT
ATOM      1  C   UNL     1       0.765   9.952  19.102  0.00  0.00    +0.000 A 
ATOM      2  C   UNL     1       0.897   9.227  20.285  0.00  0.00    +0.000 A 
ATOM      3  C   UNL     1       1.690   8.075  20.308  0.00  0.00    +0.000 A 
ATOM      4  C   UNL     1       2.351   7.636  19.158  0.00  0.00    +0.000 A 
ATOM      5  C   UNL     1       2.232   8.389  17.981  0.00  0.00    +0.000 A 
ATOM      6  C   UNL     1       1.421   9.531  17.943  0.00  0.00    +0.000 A 
ENDROOT
BRANCH   4   7
ATOM      7  N   UNL     1       3.143   6.467  19.125  0.00  0.00    +0.000 N 
ATOM      8  C   UNL     1       2.779   5.213  19.598  0.00  0.00    +0.000 C 
ATOM      9  O   UNL     1       1.664   4.901  20.011  0.00  0.00    +0.000 OA
ATOM     10  H   UNL     1       4.048   6.544  18.675  0.00  0.00    +0.000 HD
BRANCH   8  11
ATOM     11  C   UNL     1       3.876   4.159  19.492  0.00  0.00    +0.000 C 
BRANCH  11  12
ATOM     12  S   UNL     1       5.482   4.983  19.253  0.00  0.00    +0.000 S 
BRANCH  12  13
ATOM     13  C   UNL     1       5.871   4.715  17.530  0.00  0.00    +0.000 A 
ATOM     14  C   UNL     1       7.081   5.029  16.901  0.00  0.00    +0.000 A 
ATOM     15  C   UNL     1       7.266   4.753  15.538  0.00  0.00    +0.000 A 
ATOM     16  C   UNL     1       6.243   4.163  14.797  0.00  0.00    +0.000 A 
ATOM     17 CL   UNL     1       6.477   3.813  13.131  0.00  0.00    +0.000 Cl
ATOM     18  C   UNL     1       5.032   3.855  15.405  0.00  0.00    +0.000 A 
ATOM     19  C   UNL     1       4.850   4.132  16.762  0.00  0.00    +0.000 A 
ENDBRANCH  12  13
ENDBRANCH  11  12
ENDBRANCH   8  11
ENDBRANCH   4   7
BRANCH   1  20
ATOM     20  S   UNL     1      -0.307  11.369  19.062  0.00  0.00    +0.000 S 
ATOM     21  O   UNL     1       0.533  12.548  18.984  0.00  0.00    +0.000 OA
ATOM     22  O   UNL     1      -1.302  11.241  20.099  0.00  0.00    +0.000 OA
BRANCH  20  26
ATOM     23  C   UNL     1      -2.587  10.547  15.840  0.00  0.00    +0.000 C 
ATOM     24  C   UNL     1      -2.109  10.427  17.260  0.00  0.00    +0.000 C 
ATOM     25  O   UNL     1      -2.611   9.644  18.052  0.00  0.00    +0.000 OA
ATOM     26  N   UNL     1      -1.026  11.255  17.569  0.00  0.00    +0.000 N 
ATOM     27  H   UNL     1      -0.622  11.881  16.880  0.00  0.00    +0.000 HD
ENDBRANCH  20  26
ENDBRANCH   1  20
TORSDOF 6
ENDMDL
MODEL 2
REMARK VINA RESULT:      -7.7      1.742      2.262
REMARK  Name = 
REMARK  7 active torsions:
REMARK  status: ('A' for Active; 'I' for Inactive)
REMARK    1  A    between atoms: C_1  and  C_2
REMARK    2  A    between atoms: N_4  and  S_5
REMARK    3  A    between atoms: S_5  and  C_8
REMARK    4  A    between atoms: C_11  and  N_12
REMARK    5  A    between atoms: C_13  and  C_15
REMARK    6  A    between atoms: C_15  and  S_16
REMARK    7  A    between atoms: S_16  and  C_17
REMARK                            x       y       z     vdW  Elec       q    Type
REMARK                         _______ _______ _______ _____ _____    ______ ____
ROOT
ATOM      1  C   UNL     1       1.004   9.815  19.325  0.00  0.00    +0.000 A 
ATOM      2  C   UNL     1       1.715   9.241  18.272  0.00  0.00    +0.000 A 
ATOM      3  C   UNL     1       2.303   7.984  18.435  0.00  0.00    +0.000 A 
ATOM      4  C   UNL     1       2.194   7.291  19.645  0.00  0.00    +0.000 A 
ATOM      5  C   UNL     1       1.454   7.867  20.688  0.00  0.00    +0.000 A 
ATOM      6  C   UNL     1       0.880   9.137  20.540  0.00  0.00    +0.000 A 
ENDROOT
BRANCH   4   7
ATOM      7  N   UNL     1       2.790   6.031  19.866  0.00  0.00    +0.000 N 
ATOM      8  C   UNL     1       2.355   4.814  19.357  0.00  0.00    +0.000 C 
ATOM      9  O   UNL     1       1.451   4.664  18.538  0.00  0.00    +0.000 OA
ATOM     10  H   UNL     1       3.643   6.021  20.416  0.00  0.00    +0.000 HD
BRANCH   8  11
ATOM     11  C   UNL     1       3.163   3.610  19.831  0.00  0.00    +0.000 C 
BRANCH  11  12
ATOM     12  S   UNL     1       4.236   3.035  18.477  0.00  0.00    +0.000 S 
BRANCH  12  13
ATOM     13  C   UNL     1       5.213   4.465  18.041  0.00  0.00    +0.000 A 
ATOM     14  C   UNL     1       5.023   5.281  16.920  0.00  0.00    +0.000 A 
ATOM     15  C   UNL     1       5.855   6.389  16.698  0.00  0.00    +0.000 A 
ATOM     16  C   UNL     1       6.880   6.686  17.594  0.00  0.00    +0.000 A 
ATOM     17 CL   UNL     1       7.889   8.052  17.328  0.00  0.00    +0.000 Cl
ATOM     18  C   UNL     1       7.088   5.879  18.706  0.00  0.00    +0.000 A 
ATOM     19  C   UNL     1       6.259   4.776  18.924  0.00  0.00    +0.000 A 
ENDBRANCH  12  13
ENDBRANCH  11  12
ENDBRANCH   8  11
ENDBRANCH   4   7
BRANCH   1  20
ATOM     20  S   UNL     1       0.326  11.446  19.135  0.00  0.00    +0.000 S 
ATOM     21  O   UNL     1       1.416  12.330  18.768  0.00  0.00    +0.000 OA
ATOM     22  O   UNL     1      -0.515  11.745  20.269  0.00  0.00    +0.000 OA
BRANCH  20  26
ATOM     23  C   UNL     1      -2.397  10.593  16.288  0.00  0.00    +0.000 C 
ATOM     24  C   UNL     1      -1.724  10.495  17.628  0.00  0.00    +0.000 C 
ATOM     25  O   UNL     1      -2.118   9.736  18.500  0.00  0.00    +0.000 OA
ATOM     26  N   UNL     1      -0.599  11.313  17.763  0.00  0.00    +0.000 N 
ATOM     27  H   UNL     1      -0.289  11.919  17.010  0.00  0.00    +0.000 HD
ENDBRANCH  20  26
ENDBRANCH   1  20
TORSDOF 6
ENDMDL
MODEL 3
REMARK VINA RESULT:      -7.6      2.295      3.050
REMARK  Name = 
REMARK  7 active torsions:
REMARK  status: ('A' for Active; 'I' for Inactive)
REMARK    1  A    between atoms: C_1  and  C_2
REMARK    2  A    between atoms: N_4  and  S_5
REMARK    3  A    between atoms: S_5  and  C_8
REMARK    4  A    between atoms: C_11  and  N_12
REMARK    5  A    between atoms: C_13  and  C_15
REMARK    6  A    between atoms: C_15  and  S_16
REMARK    7  A    between atoms: S_16  and  C_17
REMARK                            x       y       z     vdW  Elec       q    Type
REMARK                         _______ _______ _______ _____ _____    ______ ____
ROOT
ATOM      1  C   UNL     1       0.739   9.799  19.242  0.00  0.00    +0.000 A 
ATOM      2  C   UNL     1       0.703   9.210  20.505  0.00  0.00    +0.000 A 
ATOM      3  C   UNL     1       1.419   8.033  20.743  0.00  0.00    +0.000 A 
ATOM      4  C   UNL     1       2.172   7.433  19.729  0.00  0.00    +0.000 A 
ATOM      5  C   UNL     1       2.222   8.049  18.471  0.00  0.00    +0.000 A 
ATOM      6  C   UNL     1       1.489   9.216  18.217  0.00  0.00    +0.000 A 
ENDROOT
BRANCH   4   7
ATOM      7  N   UNL     1       2.892   6.233  19.914  0.00  0.00    +0.000 N 
ATOM      8  C   UNL     1       2.497   4.965  19.510  0.00  0.00    +0.000 C 
ATOM      9  O   UNL     1       1.511   4.709  18.822  0.00  0.00    +0.000 OA
ATOM     10  H   UNL     1       3.806   6.314  20.348  0.00  0.00    +0.000 HD
BRANCH   8  11
ATOM     11  C   UNL     1       3.454   3.849  19.916  0.00  0.00    +0.000 C 
BRANCH  11  12
ATOM     12  S   UNL     1       4.464   3.369  18.478  0.00  0.00    +0.000 S 
BRANCH  12  13
ATOM     13  C   UNL     1       5.431   4.825  18.105  0.00  0.00    +0.000 A 
ATOM     14  C   UNL     1       5.133   5.782  17.130  0.00  0.00    +0.000 A 
ATOM     15  C   UNL     1       5.971   6.893  16.945  0.00  0.00    +0.000 A 
ATOM     16  C   UNL     1       7.110   7.051  17.733  0.00  0.00    +0.000 A 
ATOM     17 CL   UNL     1       8.127   8.419  17.514  0.00  0.00    +0.000 Cl
ATOM     18  C   UNL     1       7.425   6.102  18.698  0.00  0.00    +0.000 A 
ATOM     19  C   UNL     1       6.590   4.997  18.879  0.00  0.00    +0.000 A 
ENDBRANCH  12  13
ENDBRANCH  11  12
ENDBRANCH   8  11
ENDBRANCH   4   7
BRANCH   1  20
ATOM     20  S   UNL     1      -0.237  11.249  18.926  0.00  0.00    +0.000 S 
ATOM     21  O   UNL     1      -0.612  11.809  20.210  0.00  0.00    +0.000 OA
ATOM     22  O   UNL     1      -1.240  10.940  17.935  0.00  0.00    +0.000 OA
BRANCH  20  26
ATOM     23  C   UNL     1       2.786  13.815  18.195  0.00  0.00    +0.000 C 
ATOM     24  C   UNL     1       1.910  12.912  19.018  0.00  0.00    +0.000 C 
ATOM     25  O   UNL     1       2.085  12.749  20.215  0.00  0.00    +0.000 OA
ATOM     26  N   UNL     1       0.868  12.319  18.299  0.00  0.00    +0.000 N 
ATOM     27  H   UNL     1       0.741  12.491  17.307  0.00  0.00    +0.000 HD
ENDBRANCH  20  26
ENDBRANCH   1  20
TORSDOF 6
ENDMDL
MODEL 4
REMARK VINA RESULT:      -7.6      5.982      8.351
REMARK  Name = 
REMARK  7 active torsions:
REMARK  status: ('A' for Active; 'I' for Inactive)
REMARK    1  A    between atoms: C_1  and  C_2
REMARK    2  A    between atoms: N_4  and  S_5
REMARK    3  A    between atoms: S_5  and  C_8
REMARK    4  A    between atoms: C_11  and  N_12
REMARK    5  A    between atoms: C_13  and  C_15
REMARK    6  A    between atoms: C_15  and  S_16
REMARK    7  A    between atoms: S_16  and  C_17
REMARK                            x       y       z     vdW  Elec       q    Type
REMARK                         _______ _______ _______ _____ _____    ______ ____
ROOT
ATOM      1  C   UNL     1       4.150   3.872  17.861  0.00  0.00    +0.000 A 
ATOM      2  C   UNL     1       4.788   4.454  18.955  0.00  0.00    +0.000 A 
ATOM      3  C   UNL     1       5.562   5.604  18.776  0.00  0.00    +0.000 A 
ATOM      4  C   UNL     1       5.710   6.180  17.511  0.00  0.00    +0.000 A 
ATOM      5  C   UNL     1       5.041   5.602  16.423  0.00  0.00    +0.000 A 
ATOM      6  C   UNL     1       4.282   4.435  16.590  0.00  0.00    +0.000 A 
ENDROOT
BRANCH   4   7
ATOM      7  N   UNL     1       6.498   7.327  17.276  0.00  0.00    +0.000 N 
ATOM      8  C   UNL     1       7.674   7.666  17.934  0.00  0.00    +0.000 C 
ATOM      9  O   UNL     1       8.272   6.957  18.740  0.00  0.00    +0.000 OA
ATOM     10  H   UNL     1       6.198   7.940  16.526  0.00  0.00    +0.000 HD
BRANCH   8  11
ATOM     11  C   UNL     1       8.266   9.007  17.512  0.00  0.00    +0.000 C 
BRANCH  11  12
ATOM     12  S   UNL     1       9.034   9.807  18.957  0.00  0.00    +0.000 S 
BRANCH  12  13
ATOM     13  C   UNL     1       9.549  11.410  18.361  0.00  0.00    +0.000 A 
ATOM     14  C   UNL     1       8.776  12.577  18.366  0.00  0.00    +0.000 A 
ATOM     15  C   UNL     1       9.305  13.782  17.880  0.00  0.00    +0.000 A 
ATOM     16  C   UNL     1      10.607  13.827  17.386  0.00  0.00    +0.000 A 
ATOM     17 CL   UNL     1      11.258  15.307  16.804  0.00  0.00    +0.000 Cl
ATOM     18  C   UNL     1      11.383  12.675  17.364  0.00  0.00    +0.000 A 
ATOM     19  C   UNL     1      10.854  11.476  17.848  0.00  0.00    +0.000 A 
ENDBRANCH  12  13
ENDBRANCH  11  12
ENDBRANCH   8  11
ENDBRANCH   4   7
BRANCH   1  20
ATOM     20  S   UNL     1       3.234   2.366  18.084  0.00  0.00    +0.000 S 
ATOM     21  O   UNL     1       4.169   1.265  17.957  0.00  0.00    +0.000 OA
ATOM     22  O   UNL     1       2.038   2.414  17.277  0.00  0.00    +0.000 OA
BRANCH  20  26
ATOM     23  C   UNL     1       1.608   2.958  21.726  0.00  0.00    +0.000 C 
ATOM     24  C   UNL     1       1.770   3.131  20.241  0.00  0.00    +0.000 C 
ATOM     25  O   UNL     1       1.051   3.873  19.590  0.00  0.00    +0.000 OA
ATOM     26  N   UNL     1       2.831   2.403  19.695  0.00  0.00    +0.000 N 
ATOM     27  H   UNL     1       3.421   1.810  20.270  0.00  0.00    +0.000 HD
ENDBRANCH  20  26
ENDBRANCH   1  20
TORSDOF 6
ENDMDL
MODEL 5
REMARK VINA RESULT:      -7.5      1.195      1.751
REMARK  Name = 
REMARK  7 active torsions:
REMARK  status: ('A' for Active; 'I' for Inactive)
REMARK    1  A    between atoms: C_1  and  C_2
REMARK    2  A    between atoms: N_4  and  S_5
REMARK    3  A    between atoms: S_5  and  C_8
REMARK    4  A    between atoms: C_11  and  N_12
REMARK    5  A    between atoms: C_13  and  C_15
REMARK    6  A    between atoms: C_15  and  S_16
REMARK    7  A    between atoms: S_16  and  C_17
REMARK                            x       y       z     vdW  Elec       q    Type
REMARK                         _______ _______ _______ _____ _____    ______ ____
ROOT
ATOM      1  C   UNL     1       0.544  10.021  19.373  0.00  0.00    +0.000 A 
ATOM      2  C   UNL     1       1.354   9.407  18.418  0.00  0.00    +0.000 A 
ATOM      3  C   UNL     1       2.015   8.216  18.730  0.00  0.00    +0.000 A 
ATOM      4  C   UNL     1       1.880   7.630  19.993  0.00  0.00    +0.000 A 
ATOM      5  C   UNL     1       1.042   8.242  20.935  0.00  0.00    +0.000 A 
ATOM      6  C   UNL     1       0.394   9.448  20.638  0.00  0.00    +0.000 A 
ENDROOT
BRANCH   4   7
ATOM      7  N   UNL     1       2.545   6.441  20.363  0.00  0.00    +0.000 N 
ATOM      8  C   UNL     1       1.958   5.199  20.568  0.00  0.00    +0.000 C 
ATOM      9  O   UNL     1       0.782   4.918  20.343  0.00  0.00    +0.000 OA
ATOM     10  H   UNL     1       3.554   6.491  20.445  0.00  0.00    +0.000 HD
BRANCH   8  11
ATOM     11  C   UNL     1       2.925   4.116  21.034  0.00  0.00    +0.000 C 
BRANCH  11  12
ATOM     12  S   UNL     1       3.099   2.861  19.726  0.00  0.00    +0.000 S 
BRANCH  12  13
ATOM     13  C   UNL     1       4.290   3.558  18.592  0.00  0.00    +0.000 A 
ATOM     14  C   UNL     1       5.504   4.160  18.941  0.00  0.00    +0.000 A 
ATOM     15  C   UNL     1       6.362   4.657  17.948  0.00  0.00    +0.000 A 
ATOM     16  C   UNL     1       6.010   4.557  16.603  0.00  0.00    +0.000 A 
ATOM     17 CL   UNL     1       7.069   5.154  15.388  0.00  0.00    +0.000 Cl
ATOM     18  C   UNL     1       4.803   3.971  16.242  0.00  0.00    +0.000 A 
ATOM     19  C   UNL     1       3.950   3.478  17.232  0.00  0.00    +0.000 A 
ENDBRANCH  12  13
ENDBRANCH  11  12
ENDBRANCH   8  11
ENDBRANCH   4   7
BRANCH   1  20
ATOM     20  S   UNL     1      -0.229  11.575  18.994  0.00  0.00    +0.000 S 
ATOM     21  O   UNL     1       0.826  12.523  18.690  0.00  0.00    +0.000 OA
ATOM     22  O   UNL     1      -1.218  11.872  20.002  0.00  0.00    +0.000 OA
BRANCH  20  26
ATOM     23  C   UNL     1      -2.558  10.364  15.934  0.00  0.00    +0.000 C 
ATOM     24  C   UNL     1      -2.055  10.416  17.350  0.00  0.00    +0.000 C 
ATOM     25  O   UNL     1      -2.535   9.728  18.237  0.00  0.00    +0.000 OA
ATOM     26  N   UNL     1      -0.973  11.282  17.539  0.00  0.00    +0.000 N 
ATOM     27  H   UNL     1      -0.586  11.824  16.773  0.00  0.00    +0.000 HD
ENDBRANCH  20  26
ENDBRANCH   1  20
TORSDOF 6
ENDMDL
MODEL 6
REMARK VINA RESULT:      -7.3      3.242      4.076
REMARK  Name = 
REMARK  7 active torsions:
REMARK  status: ('A' for Active; 'I' for Inactive)
REMARK    1  A    between atoms: C_1  and  C_2
REMARK    2  A    between atoms: N_4  and  S_5
REMARK    3  A    between atoms: S_5  and  C_8
REMARK    4  A    between atoms: C_11  and  N_12
REMARK    5  A    between atoms: C_13  and  C_15
REMARK    6  A    between atoms: C_15  and  S_16
REMARK    7  A    between atoms: S_16  and  C_17
REMARK                            x       y       z     vdW  Elec       q    Type
REMARK                         _______ _______ _______ _____ _____    ______ ____
ROOT
ATOM      1  C   UNL     1       1.284   8.516  20.345  0.00  0.00    +0.000 A 
ATOM      2  C   UNL     1       1.832   7.257  20.583  0.00  0.00    +0.000 A 
ATOM      3  C   UNL     1       2.548   6.609  19.572  0.00  0.00    +0.000 A 
ATOM      4  C   UNL     1       2.719   7.204  18.319  0.00  0.00    +0.000 A 
ATOM      5  C   UNL     1       2.187   8.482  18.100  0.00  0.00    +0.000 A 
ATOM      6  C   UNL     1       1.448   9.129  19.100  0.00  0.00    +0.000 A 
ENDROOT
BRANCH   4   7
ATOM      7  N   UNL     1       3.413   6.580  17.260  0.00  0.00    +0.000 N 
ATOM      8  C   UNL     1       4.792   6.480  17.124  0.00  0.00    +0.000 C 
ATOM      9  O   UNL     1       5.619   6.818  17.968  0.00  0.00    +0.000 OA
ATOM     10  H   UNL     1       2.847   6.124  16.552  0.00  0.00    +0.000 HD
BRANCH   8  11
ATOM     11  C   UNL     1       5.249   5.811  15.833  0.00  0.00    +0.000 C 
BRANCH  11  12
ATOM     12  S   UNL     1       5.536   4.039  16.142  0.00  0.00    +0.000 S 
BRANCH  12  13
ATOM     13  C   UNL     1       4.304   3.591  17.355  0.00  0.00    +0.000 A 
ATOM     14  C   UNL     1       2.955   3.324  17.098  0.00  0.00    +0.000 A 
ATOM     15  C   UNL     1       2.089   2.966  18.143  0.00  0.00    +0.000 A 
ATOM     16  C   UNL     1       2.568   2.874  19.449  0.00  0.00    +0.000 A 
ATOM     17 CL   UNL     1       1.509   2.422  20.725  0.00  0.00    +0.000 Cl
ATOM     18  C   UNL     1       3.903   3.146  19.721  0.00  0.00    +0.000 A 
ATOM     19  C   UNL     1       4.762   3.504  18.680  0.00  0.00    +0.000 A 
ENDBRANCH  12  13
ENDBRANCH  11  12
ENDBRANCH   8  11
ENDBRANCH   4   7
BRANCH   1  20
ATOM     20  S   UNL     1       0.310   9.298  21.609  0.00  0.00    +0.000 S 
ATOM     21  O   UNL     1       1.228   9.876  22.571  0.00  0.00    +0.000 OA
ATOM     22  O   UNL     1      -0.730   8.393  22.034  0.00  0.00    +0.000 OA
BRANCH  20  26
ATOM     23  C   UNL     1      -1.601  12.664  20.479  0.00  0.00    +0.000 C 
ATOM     24  C   UNL     1      -1.156  11.578  21.418  0.00  0.00    +0.000 C 
ATOM     25  O   UNL     1      -1.501  11.548  22.589  0.00  0.00    +0.000 OA
ATOM     26  N   UNL     1      -0.358  10.598  20.820  0.00  0.00    +0.000 N 
ATOM     27  H   UNL     1      -0.106  10.645  19.838  0.00  0.00    +0.000 HD
ENDBRANCH  20  26
ENDBRANCH   1  20
TORSDOF 6
ENDMDL
MODEL 7
REMARK VINA RESULT:      -7.3      2.372      3.257
REMARK  Name = 
REMARK  7 active torsions:
REMARK  status: ('A' for Active; 'I' for Inactive)
REMARK    1  A    between atoms: C_1  and  C_2
REMARK    2  A    between atoms: N_4  and  S_5
REMARK    3  A    between atoms: S_5  and  C_8
REMARK    4  A    between atoms: C_11  and  N_12
REMARK    5  A    between atoms: C_13  and  C_15
REMARK    6  A    between atoms: C_15  and  S_16
REMARK    7  A    between atoms: S_16  and  C_17
REMARK                            x       y       z     vdW  Elec       q    Type
REMARK                         _______ _______ _______ _____ _____    ______ ____
ROOT
ATOM      1  C   UNL     1       0.953   9.751  19.581  0.00  0.00    +0.000 A 
ATOM      2  C   UNL     1       1.607   9.225  18.468  0.00  0.00    +0.000 A 
ATOM      3  C   UNL     1       2.251   7.988  18.561  0.00  0.00    +0.000 A 
ATOM      4  C   UNL     1       2.253   7.268  19.760  0.00  0.00    +0.000 A 
ATOM      5  C   UNL     1       1.570   7.795  20.865  0.00  0.00    +0.000 A 
ATOM      6  C   UNL     1       0.941   9.045  20.786  0.00  0.00    +0.000 A 
ENDROOT
BRANCH   4   7
ATOM      7  N   UNL     1       2.909   6.027  19.910  0.00  0.00    +0.000 N 
ATOM      8  C   UNL     1       2.455   4.796  19.454  0.00  0.00    +0.000 C 
ATOM      9  O   UNL     1       1.467   4.616  18.745  0.00  0.00    +0.000 OA
ATOM     10  H   UNL     1       3.819   6.045  20.357  0.00  0.00    +0.000 HD
BRANCH   8  11
ATOM     11  C   UNL     1       3.348   3.618  19.831  0.00  0.00    +0.000 C 
BRANCH  11  12
ATOM     12  S   UNL     1       4.362   3.148  18.393  0.00  0.00    +0.000 S 
BRANCH  12  13
ATOM     13  C   UNL     1       5.326   4.607  18.028  0.00  0.00    +0.000 A 
ATOM     14  C   UNL     1       5.112   5.489  16.963  0.00  0.00    +0.000 A 
ATOM     15  C   UNL     1       5.936   6.612  16.794  0.00  0.00    +0.000 A 
ATOM     16  C   UNL     1       6.977   6.858  17.687  0.00  0.00    +0.000 A 
ATOM     17 CL   UNL     1       7.976   8.242  17.486  0.00  0.00    +0.000 Cl
ATOM     18  C   UNL     1       7.209   5.985  18.742  0.00  0.00    +0.000 A 
ATOM     19  C   UNL     1       6.388   4.867  18.908  0.00  0.00    +0.000 A 
ENDBRANCH  12  13
ENDBRANCH  11  12
ENDBRANCH   8  11
ENDBRANCH   4   7
BRANCH   1  20
ATOM     20  S   UNL     1       0.205  11.359  19.476  0.00  0.00    +0.000 S 
ATOM     21  O   UNL     1      -1.047  11.210  18.759  0.00  0.00    +0.000 OA
ATOM     22  O   UNL     1       1.194  12.315  19.041  0.00  0.00    +0.000 OA
BRANCH  20  26
ATOM     23  C   UNL     1      -1.232  12.824  22.946  0.00  0.00    +0.000 C 
ATOM     24  C   UNL     1      -0.932  12.808  21.474  0.00  0.00    +0.000 C 
ATOM     25  O   UNL     1      -1.244  13.729  20.735  0.00  0.00    +0.000 OA
ATOM     26  N   UNL     1      -0.235  11.674  21.046  0.00  0.00    +0.000 N 
ATOM     27  H   UNL     1       0.026  10.935  21.692  0.00  0.00    +0.000 HD
ENDBRANCH  20  26
ENDBRANCH   1  20
TORSDOF 6
ENDMDL
MODEL 8
REMARK VINA RESULT:      -7.3      1.472      1.786
REMARK  Name = 
REMARK  7 active torsions:
REMARK  status: ('A' for Active; 'I' for Inactive)
REMARK    1  A    between atoms: C_1  and  C_2
REMARK    2  A    between atoms: N_4  and  S_5
REMARK    3  A    between atoms: S_5  and  C_8
REMARK    4  A    between atoms: C_11  and  N_12
REMARK    5  A    between atoms: C_13  and  C_15
REMARK    6  A    between atoms: C_15  and  S_16
REMARK    7  A    between atoms: S_16  and  C_17
REMARK                            x       y       z     vdW  Elec       q    Type
REMARK                         _______ _______ _______ _____ _____    ______ ____
ROOT
ATOM      1  C   UNL     1       1.097   9.536  19.536  0.00  0.00    +0.000 A 
ATOM      2  C   UNL     1       1.573   9.259  18.256  0.00  0.00    +0.000 A 
ATOM      3  C   UNL     1       2.205   8.039  17.998  0.00  0.00    +0.000 A 
ATOM      4  C   UNL     1       2.372   7.089  19.011  0.00  0.00    +0.000 A 
ATOM      5  C   UNL     1       1.866   7.368  20.288  0.00  0.00    +0.000 A 
ATOM      6  C   UNL     1       1.251   8.598  20.560  0.00  0.00    +0.000 A 
ENDROOT
BRANCH   4   7
ATOM      7  N   UNL     1       3.024   5.854  18.807  0.00  0.00    +0.000 N 
ATOM      8  C   UNL     1       2.451   4.695  18.299  0.00  0.00    +0.000 C 
ATOM      9  O   UNL     1       1.314   4.602  17.840  0.00  0.00    +0.000 OA
ATOM     10  H   UNL     1       4.017   5.824  19.011  0.00  0.00    +0.000 HD
BRANCH   8  11
ATOM     11  C   UNL     1       3.390   3.494  18.262  0.00  0.00    +0.000 C 
BRANCH  11  12
ATOM     12  S   UNL     1       5.079   4.037  18.669  0.00  0.00    +0.000 S 
BRANCH  12  13
ATOM     13  C   UNL     1       5.840   4.360  17.085  0.00  0.00    +0.000 A 
ATOM     14  C   UNL     1       7.132   4.855  16.879  0.00  0.00    +0.000 A 
ATOM     15  C   UNL     1       7.619   5.051  15.578  0.00  0.00    +0.000 A 
ATOM     16  C   UNL     1       6.816   4.756  14.477  0.00  0.00    +0.000 A 
ATOM     17 CL   UNL     1       7.419   4.985  12.884  0.00  0.00    +0.000 Cl
ATOM     18  C   UNL     1       5.527   4.275  14.666  0.00  0.00    +0.000 A 
ATOM     19  C   UNL     1       5.044   4.081  15.963  0.00  0.00    +0.000 A 
ENDBRANCH  12  13
ENDBRANCH  11  12
ENDBRANCH   8  11
ENDBRANCH   4   7
BRANCH   1  20
ATOM     20  S   UNL     1       0.366  11.120  19.873  0.00  0.00    +0.000 S 
ATOM     21  O   UNL     1       1.072  12.103  19.074  0.00  0.00    +0.000 OA
ATOM     22  O   UNL     1       0.234  11.288  21.300  0.00  0.00    +0.000 OA
BRANCH  20  26
ATOM     23  C   UNL     1      -3.380  11.630  18.473  0.00  0.00    +0.000 C 
ATOM     24  C   UNL     1      -2.125  11.986  19.220  0.00  0.00    +0.000 C 
ATOM     25  O   UNL     1      -2.008  13.034  19.835  0.00  0.00    +0.000 OA
ATOM     26  N   UNL     1      -1.136  10.999  19.175  0.00  0.00    +0.000 N 
ATOM     27  H   UNL     1      -1.274  10.130  18.669  0.00  0.00    +0.000 HD
ENDBRANCH  20  26
ENDBRANCH   1  20
TORSDOF 6
ENDMDL
MODEL 9
REMARK VINA RESULT:      -7.3      4.453      8.978
REMARK  Name = 
REMARK  7 active torsions:
REMARK  status: ('A' for Active; 'I' for Inactive)
REMARK    1  A    between atoms: C_1  and  C_2
REMARK    2  A    between atoms: N_4  and  S_5
REMARK    3  A    between atoms: S_5  and  C_8
REMARK    4  A    between atoms: C_11  and  N_12
REMARK    5  A    between atoms: C_13  and  C_15
REMARK    6  A    between atoms: C_15  and  S_16
REMARK    7  A    between atoms: S_16  and  C_17
REMARK                            x       y       z     vdW  Elec       q    Type
REMARK                         _______ _______ _______ _____ _____    ______ ____
ROOT
ATOM      1  C   UNL     1       2.893   6.698  18.855  0.00  0.00    +0.000 A 
ATOM      2  C   UNL     1       2.759   7.691  17.886  0.00  0.00    +0.000 A 
ATOM      3  C   UNL     1       1.979   8.820  18.152  0.00  0.00    +0.000 A 
ATOM      4  C   UNL     1       1.324   8.968  19.378  0.00  0.00    +0.000 A 
ATOM      5  C   UNL     1       1.488   7.975  20.355  0.00  0.00    +0.000 A 
ATOM      6  C   UNL     1       2.250   6.829  20.088  0.00  0.00    +0.000 A 
ENDROOT
BRANCH   4   7
ATOM      7  N   UNL     1       0.507  10.077  19.685  0.00  0.00    +0.000 N 
ATOM      8  C   UNL     1       0.492  10.783  20.881  0.00  0.00    +0.000 C 
ATOM      9  O   UNL     1       1.275  10.623  21.815  0.00  0.00    +0.000 OA
ATOM     10  H   UNL     1      -0.097  10.416  18.944  0.00  0.00    +0.000 HD
BRANCH   8  11
ATOM     11  C   UNL     1      -0.553  11.892  20.944  0.00  0.00    +0.000 C 
BRANCH  11  12
ATOM     12  S   UNL     1      -0.868  12.518  19.263  0.00  0.00    +0.000 S 
BRANCH  12  13
ATOM     13  C   UNL     1      -2.538  11.998  18.897  0.00  0.00    +0.000 A 
ATOM     14  C   UNL     1      -2.923  11.135  17.865  0.00  0.00    +0.000 A 
ATOM     15  C   UNL     1      -4.273  10.792  17.693  0.00  0.00    +0.000 A 
ATOM     16  C   UNL     1      -5.243  11.311  18.548  0.00  0.00    +0.000 A 
ATOM     17 CL   UNL     1      -6.893  10.879  18.344  0.00  0.00    +0.000 Cl
ATOM     18  C   UNL     1      -4.876  12.178  19.570  0.00  0.00    +0.000 A 
ATOM     19  C   UNL     1      -3.532  12.519  19.740  0.00  0.00    +0.000 A 
ENDBRANCH  12  13
ENDBRANCH  11  12
ENDBRANCH   8  11
ENDBRANCH   4   7
BRANCH   1  20
ATOM     20  S   UNL     1       3.821   5.230  18.479  0.00  0.00    +0.000 S 
ATOM     21  O   UNL     1       4.920   5.157  19.422  0.00  0.00    +0.000 OA
ATOM     22  O   UNL     1       4.065   5.174  17.058  0.00  0.00    +0.000 OA
BRANCH  20  26
ATOM     23  C   UNL     1       0.881   2.498  18.860  0.00  0.00    +0.000 C 
ATOM     24  C   UNL     1       1.606   3.672  18.264  0.00  0.00    +0.000 C 
ATOM     25  O   UNL     1       1.167   4.290  17.307  0.00  0.00    +0.000 OA
ATOM     26  N   UNL     1       2.791   4.007  18.926  0.00  0.00    +0.000 N 
ATOM     27  H   UNL     1       3.117   3.482  19.731  0.00  0.00    +0.000 HD
ENDBRANCH  20  26
ENDBRANCH   1  20
TORSDOF 6
ENDMDL
