MODEL 1
REMARK VINA RESULT:      -7.4      0.000      0.000
REMARK  Name = 
REMARK  9 active torsions:
REMARK  status: ('A' for Active; 'I' for Inactive)
REMARK    1  A    between atoms: C_1  and  O_2
REMARK    2  A    between atoms: O_2  and  C_3
REMARK    3  A    between atoms: C_5  and  N_6
REMARK    4  A    between atoms: C_7  and  C_9
REMARK    5  A    between atoms: C_9  and  S_10
REMARK    6  A    between atoms: S_10  and  C_11
REMARK    7  A    between atoms: C_14  and  C_15
REMARK    8  A    between atoms: C_24  and  O_25
REMARK    9  A    between atoms: O_25  and  C_26
REMARK                            x       y       z     vdW  Elec       q    Type
REMARK                         _______ _______ _______ _____ _____    ______ ____
ROOT
ATOM      1  N   UNL     1       4.696   2.938  17.369  0.00  0.00    +0.000 N 
ATOM      2  C   UNL     1       3.310   2.875  17.460  0.00  0.00    +0.000 C 
ATOM      3  O   UNL     1       2.512   3.455  16.726  0.00  0.00    +0.000 OA
ATOM      4  H   UNL     1       5.219   2.296  17.952  0.00  0.00    +0.000 HD
ENDROOT
BRANCH   1   7
ATOM      5  C   UNL     1       6.894   5.588  15.887  0.00  0.00    +0.000 A 
ATOM      6  C   UNL     1       6.122   4.879  16.810  0.00  0.00    +0.000 A 
ATOM      7  C   UNL     1       5.446   3.715  16.448  0.00  0.00    +0.000 A 
ATOM      8  C   UNL     1       5.541   3.279  15.117  0.00  0.00    +0.000 A 
ATOM      9  C   UNL     1       6.311   3.985  14.181  0.00  0.00    +0.000 A 
ATOM     10  C   UNL     1       6.985   5.138  14.569  0.00  0.00    +0.000 A 
BRANCH   5  12
ATOM     11  C   UNL     1       7.524   6.841  17.810  0.00  0.00    +0.000 C 
ATOM     12  O   UNL     1       7.522   6.695  16.398  0.00  0.00    +0.000 OA
ENDBRANCH   5  12
BRANCH   9  13
ATOM     13  O   UNL     1       6.336   3.452  12.918  0.00  0.00    +0.000 OA
ATOM     14  C   UNL     1       5.095   3.391  12.216  0.00  0.00    +0.000 C 
ENDBRANCH   9  13
ENDBRANCH   1   7
BRANCH   2  15
ATOM     15  C   UNL     1       2.788   2.011  18.604  0.00  0.00    +0.000 C 
BRANCH  15  16
ATOM     16  S   UNL     1       3.478   2.624  20.174  0.00  0.00    +0.000 S 
BRANCH  16  17
ATOM     17  C   UNL     1       2.934   4.316  20.177  0.00  0.00    +0.000 A 
ATOM     18  C   UNL     1       3.737   5.256  19.556  0.00  0.00    +0.000 A 
ATOM     19  C   UNL     1       3.310   6.581  19.485  0.00  0.00    +0.000 A 
ATOM     20  C   UNL     1       2.089   6.938  20.042  0.00  0.00    +0.000 A 
ATOM     21  N   UNL     1       1.339   5.998  20.665  0.00  0.00    +0.000 NA
ATOM     22  N   UNL     1       1.761   4.675  20.728  0.00  0.00    +0.000 NA
BRANCH  20  23
ATOM     23  C   UNL     1       1.554   8.305  19.990  0.00  0.00    +0.000 A 
ATOM     24  C   UNL     1       1.545   9.075  18.815  0.00  0.00    +0.000 A 
ATOM     25  C   UNL     1       1.052  10.381  18.817  0.00  0.00    +0.000 A 
ATOM     26  C   UNL     1       0.570  10.893  20.008  0.00  0.00    +0.000 A 
ATOM     27  N   UNL     1       0.543  10.196  21.160  0.00  0.00    +0.000 NA
ATOM     28  C   UNL     1       1.026   8.927  21.123  0.00  0.00    +0.000 A 
ENDBRANCH  20  23
ENDBRANCH  16  17
ENDBRANCH  15  16
ENDBRANCH   2  15
TORSDOF 7
ENDMDL
MODEL 2
REMARK VINA RESULT:      -7.4      0.417      2.461
REMARK  Name = 
REMARK  9 active torsions:
REMARK  status: ('A' for Active; 'I' for Inactive)
REMARK    1  A    between atoms: C_1  and  O_2
REMARK    2  A    between atoms: O_2  and  C_3
REMARK    3  A    between atoms: C_5  and  N_6
REMARK    4  A    between atoms: C_7  and  C_9
REMARK    5  A    between atoms: C_9  and  S_10
REMARK    6  A    between atoms: S_10  and  C_11
REMARK    7  A    between atoms: C_14  and  C_15
REMARK    8  A    between atoms: C_24  and  O_25
REMARK    9  A    between atoms: O_25  and  C_26
REMARK                            x       y       z     vdW  Elec       q    Type
REMARK                         _______ _______ _______ _____ _____    ______ ____
ROOT
ATOM      1  N   UNL     1       4.622   2.890  17.469  0.00  0.00    +0.000 N 
ATOM      2  C   UNL     1       3.235   2.817  17.556  0.00  0.00    +0.000 C 
ATOM      3  O   UNL     1       2.436   3.314  16.765  0.00  0.00    +0.000 OA
ATOM      4  H   UNL     1       5.148   2.314  18.113  0.00  0.00    +0.000 HD
ENDROOT
BRANCH   1   7
ATOM      5  C   UNL     1       6.041   4.001  14.182  0.00  0.00    +0.000 A 
ATOM      6  C   UNL     1       5.336   3.257  15.131  0.00  0.00    +0.000 A 
ATOM      7  C   UNL     1       5.368   3.588  16.483  0.00  0.00    +0.000 A 
ATOM      8  C   UNL     1       6.151   4.684  16.880  0.00  0.00    +0.000 A 
ATOM      9  C   UNL     1       6.866   5.437  15.936  0.00  0.00    +0.000 A 
ATOM     10  C   UNL     1       6.810   5.093  14.590  0.00  0.00    +0.000 A 
BRANCH   5  12
ATOM     11  C   UNL     1       6.994   3.745  12.016  0.00  0.00    +0.000 C 
ATOM     12  O   UNL     1       5.889   3.571  12.889  0.00  0.00    +0.000 OA
ENDBRANCH   5  12
BRANCH   9  13
ATOM     13  O   UNL     1       7.581   6.491  16.445  0.00  0.00    +0.000 OA
ATOM     14  C   UNL     1       7.476   6.727  17.849  0.00  0.00    +0.000 C 
ENDBRANCH   9  13
ENDBRANCH   1   7
BRANCH   2  15
ATOM     15  C   UNL     1       2.716   2.057  18.772  0.00  0.00    +0.000 C 
BRANCH  15  16
ATOM     16  S   UNL     1       3.486   2.742  20.274  0.00  0.00    +0.000 S 
BRANCH  16  17
ATOM     17  C   UNL     1       2.930   4.430  20.232  0.00  0.00    +0.000 A 
ATOM     18  C   UNL     1       3.657   5.333  19.477  0.00  0.00    +0.000 A 
ATOM     19  C   UNL     1       3.214   6.650  19.371  0.00  0.00    +0.000 A 
ATOM     20  C   UNL     1       2.054   7.037  20.029  0.00  0.00    +0.000 A 
ATOM     21  N   UNL     1       1.380   6.135  20.781  0.00  0.00    +0.000 NA
ATOM     22  N   UNL     1       1.817   4.819  20.879  0.00  0.00    +0.000 NA
BRANCH  20  23
ATOM     23  C   UNL     1       1.505   8.397  19.951  0.00  0.00    +0.000 A 
ATOM     24  C   UNL     1       1.563   9.176  18.783  0.00  0.00    +0.000 A 
ATOM     25  C   UNL     1       1.053  10.476  18.762  0.00  0.00    +0.000 A 
ATOM     26  C   UNL     1       0.486  10.971  19.921  0.00  0.00    +0.000 A 
ATOM     27  N   UNL     1       0.392  10.265  21.064  0.00  0.00    +0.000 NA
ATOM     28  C   UNL     1       0.894   9.003  21.051  0.00  0.00    +0.000 A 
ENDBRANCH  20  23
ENDBRANCH  16  17
ENDBRANCH  15  16
ENDBRANCH   2  15
TORSDOF 7
ENDMDL
MODEL 3
REMARK VINA RESULT:      -7.4      1.003      1.379
REMARK  Name = 
REMARK  9 active torsions:
REMARK  status: ('A' for Active; 'I' for Inactive)
REMARK    1  A    between atoms: C_1  and  O_2
REMARK    2  A    between atoms: O_2  and  C_3
REMARK    3  A    between atoms: C_5  and  N_6
REMARK    4  A    between atoms: C_7  and  C_9
REMARK    5  A    between atoms: C_9  and  S_10
REMARK    6  A    between atoms: S_10  and  C_11
REMARK    7  A    between atoms: C_14  and  C_15
REMARK    8  A    between atoms: C_24  and  O_25
REMARK    9  A    between atoms: O_25  and  C_26
REMARK                            x       y       z     vdW  Elec       q    Type
REMARK                         _______ _______ _______ _____ _____    ______ ____
ROOT
ATOM      1  N   UNL     1       4.691   2.864  17.463  0.00  0.00    +0.000 N 
ATOM      2  C   UNL     1       3.320   2.681  17.605  0.00  0.00    +0.000 C 
ATOM      3  O   UNL     1       2.447   3.214  16.925  0.00  0.00    +0.000 OA
ATOM      4  H   UNL     1       5.290   2.250  18.000  0.00  0.00    +0.000 HD
ENDROOT
BRANCH   1   7
ATOM      5  C   UNL     1       6.850   5.558  16.001  0.00  0.00    +0.000 A 
ATOM      6  C   UNL     1       6.193   4.756  16.938  0.00  0.00    +0.000 A 
ATOM      7  C   UNL     1       5.334   3.734  16.543  0.00  0.00    +0.000 A 
ATOM      8  C   UNL     1       5.122   3.539  15.169  0.00  0.00    +0.000 A 
ATOM      9  C   UNL     1       5.774   4.339  14.219  0.00  0.00    +0.000 A 
ATOM     10  C   UNL     1       6.635   5.347  14.638  0.00  0.00    +0.000 A 
BRANCH   5  12
ATOM     11  C   UNL     1       7.079   7.567  17.257  0.00  0.00    +0.000 C 
ATOM     12  O   UNL     1       7.685   6.501  16.542  0.00  0.00    +0.000 OA
ENDBRANCH   5  12
BRANCH   9  13
ATOM     13  O   UNL     1       5.496   4.042  12.909  0.00  0.00    +0.000 OA
ATOM     14  C   UNL     1       6.416   3.188  12.230  0.00  0.00    +0.000 C 
ENDBRANCH   9  13
ENDBRANCH   1   7
BRANCH   2  15
ATOM     15  C   UNL     1       2.921   1.736  18.735  0.00  0.00    +0.000 C 
BRANCH  15  16
ATOM     16  S   UNL     1       3.497   2.428  20.318  0.00  0.00    +0.000 S 
BRANCH  16  17
ATOM     17  C   UNL     1       2.913   4.104  20.220  0.00  0.00    +0.000 A 
ATOM     18  C   UNL     1       1.691   4.399  20.797  0.00  0.00    +0.000 A 
ATOM     19  C   UNL     1       1.232   5.714  20.794  0.00  0.00    +0.000 A 
ATOM     20  C   UNL     1       2.005   6.708  20.209  0.00  0.00    +0.000 A 
ATOM     21  N   UNL     1       3.185   6.381  19.630  0.00  0.00    +0.000 NA
ATOM     22  N   UNL     1       3.647   5.070  19.640  0.00  0.00    +0.000 NA
BRANCH  20  23
ATOM     23  C   UNL     1       1.608   8.122  20.183  0.00  0.00    +0.000 A 
ATOM     24  C   UNL     1       1.170   8.810  21.327  0.00  0.00    +0.000 A 
ATOM     25  C   UNL     1       0.775  10.147  21.252  0.00  0.00    +0.000 A 
ATOM     26  C   UNL     1       0.832  10.774  20.021  0.00  0.00    +0.000 A 
ATOM     27  N   UNL     1       1.255  10.167  18.896  0.00  0.00    +0.000 NA
ATOM     28  C   UNL     1       1.636   8.868  19.003  0.00  0.00    +0.000 A 
ENDBRANCH  20  23
ENDBRANCH  16  17
ENDBRANCH  15  16
ENDBRANCH   2  15
TORSDOF 7
ENDMDL
MODEL 4
REMARK VINA RESULT:      -7.3      2.423      6.606
REMARK  Name = 
REMARK  9 active torsions:
REMARK  status: ('A' for Active; 'I' for Inactive)
REMARK    1  A    between atoms: C_1  and  O_2
REMARK    2  A    between atoms: O_2  and  C_3
REMARK    3  A    between atoms: C_5  and  N_6
REMARK    4  A    between atoms: C_7  and  C_9
REMARK    5  A    between atoms: C_9  and  S_10
REMARK    6  A    between atoms: S_10  and  C_11
REMARK    7  A    between atoms: C_14  and  C_15
REMARK    8  A    between atoms: C_24  and  O_25
REMARK    9  A    between atoms: O_25  and  C_26
REMARK                            x       y       z     vdW  Elec       q    Type
REMARK                         _______ _______ _______ _____ _____    ______ ____
ROOT
ATOM      1  N   UNL     1       2.502   5.835  20.776  0.00  0.00    +0.000 N 
ATOM      2  C   UNL     1       1.698   4.707  20.897  0.00  0.00    +0.000 C 
ATOM      3  O   UNL     1       0.628   4.519  20.321  0.00  0.00    +0.000 OA
ATOM      4  H   UNL     1       3.420   5.785  21.200  0.00  0.00    +0.000 HD
ENDROOT
BRANCH   1   7
ATOM      5  C   UNL     1       1.234   9.202  19.724  0.00  0.00    +0.000 A 
ATOM      6  C   UNL     1       1.448   8.052  20.488  0.00  0.00    +0.000 A 
ATOM      7  C   UNL     1       2.217   6.995  20.008  0.00  0.00    +0.000 A 
ATOM      8  C   UNL     1       2.760   7.100  18.718  0.00  0.00    +0.000 A 
ATOM      9  C   UNL     1       2.549   8.248  17.940  0.00  0.00    +0.000 A 
ATOM     10  C   UNL     1       1.786   9.295  18.445  0.00  0.00    +0.000 A 
BRANCH   5  12
ATOM     11  C   UNL     1      -0.821  10.399  19.826  0.00  0.00    +0.000 C 
ATOM     12  O   UNL     1       0.482  10.167  20.341  0.00  0.00    +0.000 OA
ENDBRANCH   5  12
BRANCH   9  13
ATOM     13  O   UNL     1       3.143   8.238  16.704  0.00  0.00    +0.000 OA
ATOM     14  C   UNL     1       4.220   7.322  16.510  0.00  0.00    +0.000 C 
ENDBRANCH   9  13
ENDBRANCH   1   7
BRANCH   2  15
ATOM     15  C   UNL     1       2.230   3.648  21.857  0.00  0.00    +0.000 C 
BRANCH  15  16
ATOM     16  S   UNL     1       2.468   2.088  20.948  0.00  0.00    +0.000 S 
BRANCH  16  17
ATOM     17  C   UNL     1       3.444   2.619  19.560  0.00  0.00    +0.000 A 
ATOM     18  C   UNL     1       2.854   2.604  18.309  0.00  0.00    +0.000 A 
ATOM     19  C   UNL     1       3.570   3.072  17.209  0.00  0.00    +0.000 A 
ATOM     20  C   UNL     1       4.864   3.543  17.384  0.00  0.00    +0.000 A 
ATOM     21  N   UNL     1       5.422   3.520  18.618  0.00  0.00    +0.000 NA
ATOM     22  N   UNL     1       4.705   3.061  19.717  0.00  0.00    +0.000 NA
BRANCH  20  23
ATOM     23  C   UNL     1       5.679   4.076  16.284  0.00  0.00    +0.000 A 
ATOM     24  C   UNL     1       5.432   3.768  14.935  0.00  0.00    +0.000 A 
ATOM     25  C   UNL     1       6.248   4.276  13.923  0.00  0.00    +0.000 A 
ATOM     26  C   UNL     1       7.303   5.093  14.286  0.00  0.00    +0.000 A 
ATOM     27  N   UNL     1       7.578   5.431  15.560  0.00  0.00    +0.000 NA
ATOM     28  C   UNL     1       6.763   4.924  16.521  0.00  0.00    +0.000 A 
ENDBRANCH  20  23
ENDBRANCH  16  17
ENDBRANCH  15  16
ENDBRANCH   2  15
TORSDOF 7
ENDMDL
MODEL 5
REMARK VINA RESULT:      -7.3      4.869      9.063
REMARK  Name = 
REMARK  9 active torsions:
REMARK  status: ('A' for Active; 'I' for Inactive)
REMARK    1  A    between atoms: C_1  and  O_2
REMARK    2  A    between atoms: O_2  and  C_3
REMARK    3  A    between atoms: C_5  and  N_6
REMARK    4  A    between atoms: C_7  and  C_9
REMARK    5  A    between atoms: C_9  and  S_10
REMARK    6  A    between atoms: S_10  and  C_11
REMARK    7  A    between atoms: C_14  and  C_15
REMARK    8  A    between atoms: C_24  and  O_25
REMARK    9  A    between atoms: O_25  and  C_26
REMARK                            x       y       z     vdW  Elec       q    Type
REMARK                         _______ _______ _______ _____ _____    ______ ____
ROOT
ATOM      1  N   UNL     1      -0.972  10.258  19.065  0.00  0.00    +0.000 N 
ATOM      2  C   UNL     1      -0.514  11.079  20.089  0.00  0.00    +0.000 C 
ATOM      3  O   UNL     1      -0.990  12.166  20.411  0.00  0.00    +0.000 OA
ATOM      4  H   UNL     1      -0.570   9.331  19.011  0.00  0.00    +0.000 HD
ENDROOT
BRANCH   1   7
ATOM      5  C   UNL     1      -4.183  11.555  17.630  0.00  0.00    +0.000 A 
ATOM      6  C   UNL     1      -3.178  11.248  18.551  0.00  0.00    +0.000 A 
ATOM      7  C   UNL     1      -2.039  10.541  18.172  0.00  0.00    +0.000 A 
ATOM      8  C   UNL     1      -1.932  10.121  16.837  0.00  0.00    +0.000 A 
ATOM      9  C   UNL     1      -2.936  10.421  15.904  0.00  0.00    +0.000 A 
ATOM     10  C   UNL     1      -4.059  11.137  16.304  0.00  0.00    +0.000 A 
BRANCH   5  12
ATOM     11  C   UNL     1      -5.320  12.364  19.559  0.00  0.00    +0.000 C 
ATOM     12  O   UNL     1      -5.227  12.280  18.144  0.00  0.00    +0.000 OA
ENDBRANCH   5  12
BRANCH   9  13
ATOM     13  O   UNL     1      -2.709   9.969  14.630  0.00  0.00    +0.000 OA
ATOM     14  C   UNL     1      -3.822   9.966  13.736  0.00  0.00    +0.000 C 
ENDBRANCH   9  13
ENDBRANCH   1   7
BRANCH   2  15
ATOM     15  C   UNL     1       0.703  10.542  20.836  0.00  0.00    +0.000 C 
BRANCH  15  16
ATOM     16  S   UNL     1       0.436   8.781  21.217  0.00  0.00    +0.000 S 
BRANCH  16  17
ATOM     17  C   UNL     1       1.559   7.988  20.091  0.00  0.00    +0.000 A 
ATOM     18  C   UNL     1       2.019   6.724  20.415  0.00  0.00    +0.000 A 
ATOM     19  C   UNL     1       2.850   6.048  19.525  0.00  0.00    +0.000 A 
ATOM     20  C   UNL     1       3.209   6.654  18.328  0.00  0.00    +0.000 A 
ATOM     21  N   UNL     1       2.762   7.902  18.052  0.00  0.00    +0.000 NA
ATOM     22  N   UNL     1       1.926   8.573  18.936  0.00  0.00    +0.000 NA
BRANCH  20  23
ATOM     23  C   UNL     1       4.060   6.003  17.324  0.00  0.00    +0.000 A 
ATOM     24  C   UNL     1       4.154   4.606  17.195  0.00  0.00    +0.000 A 
ATOM     25  C   UNL     1       4.997   4.029  16.244  0.00  0.00    +0.000 A 
ATOM     26  C   UNL     1       5.734   4.871  15.431  0.00  0.00    +0.000 A 
ATOM     27  N   UNL     1       5.675   6.215  15.503  0.00  0.00    +0.000 NA
ATOM     28  C   UNL     1       4.841   6.745  16.435  0.00  0.00    +0.000 A 
ENDBRANCH  20  23
ENDBRANCH  16  17
ENDBRANCH  15  16
ENDBRANCH   2  15
TORSDOF 7
ENDMDL
MODEL 6
REMARK VINA RESULT:      -7.2      5.135      9.821
REMARK  Name = 
REMARK  9 active torsions:
REMARK  status: ('A' for Active; 'I' for Inactive)
REMARK    1  A    between atoms: C_1  and  O_2
REMARK    2  A    between atoms: O_2  and  C_3
REMARK    3  A    between atoms: C_5  and  N_6
REMARK    4  A    between atoms: C_7  and  C_9
REMARK    5  A    between atoms: C_9  and  S_10
REMARK    6  A    between atoms: S_10  and  C_11
REMARK    7  A    between atoms: C_14  and  C_15
REMARK    8  A    between atoms: C_24  and  O_25
REMARK    9  A    between atoms: O_25  and  C_26
REMARK                            x       y       z     vdW  Elec       q    Type
REMARK                         _______ _______ _______ _____ _____    ______ ____
ROOT
ATOM      1  N   UNL     1      -1.198  11.307  18.737  0.00  0.00    +0.000 N 
ATOM      2  C   UNL     1      -0.233  12.308  18.775  0.00  0.00    +0.000 C 
ATOM      3  O   UNL     1      -0.354  13.445  18.321  0.00  0.00    +0.000 OA
ATOM      4  H   UNL     1      -1.007  10.472  19.275  0.00  0.00    +0.000 HD
ENDROOT
BRANCH   1   7
ATOM      5  C   UNL     1      -4.007  11.043  16.268  0.00  0.00    +0.000 A 
ATOM      6  C   UNL     1      -2.722  10.995  16.816  0.00  0.00    +0.000 A 
ATOM      7  C   UNL     1      -2.478  11.394  18.128  0.00  0.00    +0.000 A 
ATOM      8  C   UNL     1      -3.556  11.872  18.889  0.00  0.00    +0.000 A 
ATOM      9  C   UNL     1      -4.850  11.928  18.348  0.00  0.00    +0.000 A 
ATOM     10  C   UNL     1      -5.071  11.515  17.039  0.00  0.00    +0.000 A 
BRANCH   5  12
ATOM     11  C   UNL     1      -2.934   9.990  14.422  0.00  0.00    +0.000 C 
ATOM     12  O   UNL     1      -4.095  10.591  14.977  0.00  0.00    +0.000 OA
ENDBRANCH   5  12
BRANCH   9  13
ATOM     13  O   UNL     1      -5.820  12.400  19.194  0.00  0.00    +0.000 OA
ATOM     14  C   UNL     1      -5.468  13.499  20.034  0.00  0.00    +0.000 C 
ENDBRANCH   9  13
ENDBRANCH   1   7
BRANCH   2  15
ATOM     15  C   UNL     1       1.081  11.898  19.433  0.00  0.00    +0.000 C 
BRANCH  15  16
ATOM     16  S   UNL     1       0.736  10.665  20.728  0.00  0.00    +0.000 S 
BRANCH  16  17
ATOM     17  C   UNL     1       1.342   9.170  19.981  0.00  0.00    +0.000 A 
ATOM     18  C   UNL     1       1.637   9.194  18.630  0.00  0.00    +0.000 A 
ATOM     19  C   UNL     1       2.173   8.059  18.026  0.00  0.00    +0.000 A 
ATOM     20  C   UNL     1       2.399   6.920  18.788  0.00  0.00    +0.000 A 
ATOM     21  N   UNL     1       2.076   6.922  20.103  0.00  0.00    +0.000 NA
ATOM     22  N   UNL     1       1.549   8.057  20.707  0.00  0.00    +0.000 NA
BRANCH  20  23
ATOM     23  C   UNL     1       2.983   5.690  18.236  0.00  0.00    +0.000 A 
ATOM     24  C   UNL     1       2.202   4.619  17.771  0.00  0.00    +0.000 A 
ATOM     25  C   UNL     1       2.799   3.456  17.280  0.00  0.00    +0.000 A 
ATOM     26  C   UNL     1       4.180   3.392  17.262  0.00  0.00    +0.000 A 
ATOM     27  N   UNL     1       4.977   4.392  17.684  0.00  0.00    +0.000 NA
ATOM     28  C   UNL     1       4.365   5.511  18.151  0.00  0.00    +0.000 A 
ENDBRANCH  20  23
ENDBRANCH  16  17
ENDBRANCH  15  16
ENDBRANCH   2  15
TORSDOF 7
ENDMDL
MODEL 7
REMARK VINA RESULT:      -7.1      3.742      6.231
REMARK  Name = 
REMARK  9 active torsions:
REMARK  status: ('A' for Active; 'I' for Inactive)
REMARK    1  A    between atoms: C_1  and  O_2
REMARK    2  A    between atoms: O_2  and  C_3
REMARK    3  A    between atoms: C_5  and  N_6
REMARK    4  A    between atoms: C_7  and  C_9
REMARK    5  A    between atoms: C_9  and  S_10
REMARK    6  A    between atoms: S_10  and  C_11
REMARK    7  A    between atoms: C_14  and  C_15
REMARK    8  A    between atoms: C_24  and  O_25
REMARK    9  A    between atoms: O_25  and  C_26
REMARK                            x       y       z     vdW  Elec       q    Type
REMARK                         _______ _______ _______ _____ _____    ______ ____
ROOT
ATOM      1  N   UNL     1       2.456   6.800  19.911  0.00  0.00    +0.000 N 
ATOM      2  C   UNL     1       2.149   7.805  19.000  0.00  0.00    +0.000 C 
ATOM      3  O   UNL     1       2.360   7.770  17.789  0.00  0.00    +0.000 OA
ATOM      4  H   UNL     1       2.094   6.913  20.850  0.00  0.00    +0.000 HD
ENDROOT
BRANCH   1   7
ATOM      5  C   UNL     1       5.098   4.248  19.166  0.00  0.00    +0.000 A 
ATOM      6  C   UNL     1       4.481   5.481  19.391  0.00  0.00    +0.000 A 
ATOM      7  C   UNL     1       3.110   5.574  19.624  0.00  0.00    +0.000 A 
ATOM      8  C   UNL     1       2.352   4.393  19.603  0.00  0.00    +0.000 A 
ATOM      9  C   UNL     1       2.961   3.149  19.374  0.00  0.00    +0.000 A 
ATOM     10  C   UNL     1       4.332   3.081  19.155  0.00  0.00    +0.000 A 
BRANCH   5  12
ATOM     11  C   UNL     1       7.052   5.602  19.028  0.00  0.00    +0.000 C 
ATOM     12  O   UNL     1       6.455   4.314  18.982  0.00  0.00    +0.000 OA
ENDBRANCH   5  12
BRANCH   9  13
ATOM     13  O   UNL     1       2.117   2.069  19.393  0.00  0.00    +0.000 OA
ATOM     14  C   UNL     1       0.824   2.248  18.816  0.00  0.00    +0.000 C 
ENDBRANCH   9  13
ENDBRANCH   1   7
BRANCH   2  15
ATOM     15  C   UNL     1       1.512   9.047  19.616  0.00  0.00    +0.000 C 
BRANCH  15  16
ATOM     16  S   UNL     1       1.181   8.732  21.379  0.00  0.00    +0.000 S 
BRANCH  16  17
ATOM     17  C   UNL     1       0.086  10.070  21.790  0.00  0.00    +0.000 A 
ATOM     18  C   UNL     1      -0.470  10.796  20.752  0.00  0.00    +0.000 A 
ATOM     19  C   UNL     1      -1.381  11.811  21.037  0.00  0.00    +0.000 A 
ATOM     20  C   UNL     1      -1.714  12.081  22.358  0.00  0.00    +0.000 A 
ATOM     21  N   UNL     1      -1.133  11.369  23.352  0.00  0.00    +0.000 NA
ATOM     22  N   UNL     1      -0.230  10.351  23.068  0.00  0.00    +0.000 NA
BRANCH  20  23
ATOM     23  C   UNL     1      -2.683  13.116  22.744  0.00  0.00    +0.000 A 
ATOM     24  C   UNL     1      -2.857  14.305  22.016  0.00  0.00    +0.000 A 
ATOM     25  C   UNL     1      -3.770  15.275  22.435  0.00  0.00    +0.000 A 
ATOM     26  C   UNL     1      -4.499  15.029  23.584  0.00  0.00    +0.000 A 
ATOM     27  N   UNL     1      -4.382  13.903  24.313  0.00  0.00    +0.000 NA
ATOM     28  C   UNL     1      -3.488  12.977  23.876  0.00  0.00    +0.000 A 
ENDBRANCH  20  23
ENDBRANCH  16  17
ENDBRANCH  15  16
ENDBRANCH   2  15
TORSDOF 7
ENDMDL
MODEL 8
REMARK VINA RESULT:      -7.1      4.292      6.473
REMARK  Name = 
REMARK  9 active torsions:
REMARK  status: ('A' for Active; 'I' for Inactive)
REMARK    1  A    between atoms: C_1  and  O_2
REMARK    2  A    between atoms: O_2  and  C_3
REMARK    3  A    between atoms: C_5  and  N_6
REMARK    4  A    between atoms: C_7  and  C_9
REMARK    5  A    between atoms: C_9  and  S_10
REMARK    6  A    between atoms: S_10  and  C_11
REMARK    7  A    between atoms: C_14  and  C_15
REMARK    8  A    between atoms: C_24  and  O_25
REMARK    9  A    between atoms: O_25  and  C_26
REMARK                            x       y       z     vdW  Elec       q    Type
REMARK                         _______ _______ _______ _____ _____    ______ ____
ROOT
ATOM      1  N   UNL     1       2.399   7.247  19.107  0.00  0.00    +0.000 N 
ATOM      2  C   UNL     1       1.892   8.453  18.635  0.00  0.00    +0.000 C 
ATOM      3  O   UNL     1       1.849   8.807  17.459  0.00  0.00    +0.000 OA
ATOM      4  H   UNL     1       2.237   7.037  20.084  0.00  0.00    +0.000 HD
ENDROOT
BRANCH   1   7
ATOM      5  C   UNL     1       4.841   5.309  17.025  0.00  0.00    +0.000 A 
ATOM      6  C   UNL     1       4.257   6.358  17.740  0.00  0.00    +0.000 A 
ATOM      7  C   UNL     1       3.001   6.224  18.327  0.00  0.00    +0.000 A 
ATOM      8  C   UNL     1       2.317   5.009  18.164  0.00  0.00    +0.000 A 
ATOM      9  C   UNL     1       2.893   3.950  17.446  0.00  0.00    +0.000 A 
ATOM     10  C   UNL     1       4.153   4.104  16.878  0.00  0.00    +0.000 A 
BRANCH   5  12
ATOM     11  C   UNL     1       7.143   4.711  16.924  0.00  0.00    +0.000 C 
ATOM     12  O   UNL     1       6.091   5.580  16.532  0.00  0.00    +0.000 OA
ENDBRANCH   5  12
BRANCH   9  13
ATOM     13  O   UNL     1       2.134   2.810  17.369  0.00  0.00    +0.000 OA
ATOM     14  C   UNL     1       1.425   2.424  18.546  0.00  0.00    +0.000 C 
ENDBRANCH   9  13
ENDBRANCH   1   7
BRANCH   2  15
ATOM     15  C   UNL     1       1.375   9.391  19.721  0.00  0.00    +0.000 C 
BRANCH  15  16
ATOM     16  S   UNL     1       1.268  11.079  19.046  0.00  0.00    +0.000 S 
BRANCH  16  17
ATOM     17  C   UNL     1      -0.490  11.336  18.979  0.00  0.00    +0.000 A 
ATOM     18  C   UNL     1      -1.247  10.447  18.237  0.00  0.00    +0.000 A 
ATOM     19  C   UNL     1      -2.633  10.581  18.214  0.00  0.00    +0.000 A 
ATOM     20  C   UNL     1      -3.234  11.606  18.932  0.00  0.00    +0.000 A 
ATOM     21  N   UNL     1      -2.463  12.474  19.629  0.00  0.00    +0.000 NA
ATOM     22  N   UNL     1      -1.080  12.336  19.659  0.00  0.00    +0.000 NA
BRANCH  20  23
ATOM     23  C   UNL     1      -4.689  11.804  18.982  0.00  0.00    +0.000 A 
ATOM     24  C   UNL     1      -5.319  12.572  19.976  0.00  0.00    +0.000 A 
ATOM     25  C   UNL     1      -6.708  12.712  20.002  0.00  0.00    +0.000 A 
ATOM     26  C   UNL     1      -7.444  12.076  19.019  0.00  0.00    +0.000 A 
ATOM     27  N   UNL     1      -6.892  11.338  18.036  0.00  0.00    +0.000 NA
ATOM     28  C   UNL     1      -5.539  11.226  18.037  0.00  0.00    +0.000 A 
ENDBRANCH  20  23
ENDBRANCH  16  17
ENDBRANCH  15  16
ENDBRANCH   2  15
TORSDOF 7
ENDMDL
MODEL 9
REMARK VINA RESULT:      -7.1      4.310      6.405
REMARK  Name = 
REMARK  9 active torsions:
REMARK  status: ('A' for Active; 'I' for Inactive)
REMARK    1  A    between atoms: C_1  and  O_2
REMARK    2  A    between atoms: O_2  and  C_3
REMARK    3  A    between atoms: C_5  and  N_6
REMARK    4  A    between atoms: C_7  and  C_9
REMARK    5  A    between atoms: C_9  and  S_10
REMARK    6  A    between atoms: S_10  and  C_11
REMARK    7  A    between atoms: C_14  and  C_15
REMARK    8  A    between atoms: C_24  and  O_25
REMARK    9  A    between atoms: O_25  and  C_26
REMARK                            x       y       z     vdW  Elec       q    Type
REMARK                         _______ _______ _______ _____ _____    ______ ____
ROOT
ATOM      1  N   UNL     1       2.340   7.739  18.702  0.00  0.00    +0.000 N 
ATOM      2  C   UNL     1       1.694   7.894  19.924  0.00  0.00    +0.000 C 
ATOM      3  O   UNL     1       1.559   7.026  20.783  0.00  0.00    +0.000 OA
ATOM      4  H   UNL     1       2.496   8.580  18.160  0.00  0.00    +0.000 HD
ENDROOT
BRANCH   1   7
ATOM      5  C   UNL     1       4.811   5.230  17.417  0.00  0.00    +0.000 A 
ATOM      6  C   UNL     1       4.264   6.439  17.855  0.00  0.00    +0.000 A 
ATOM      7  C   UNL     1       2.919   6.543  18.200  0.00  0.00    +0.000 A 
ATOM      8  C   UNL     1       2.111   5.403  18.076  0.00  0.00    +0.000 A 
ATOM      9  C   UNL     1       2.648   4.184  17.634  0.00  0.00    +0.000 A 
ATOM     10  C   UNL     1       3.996   4.102  17.305  0.00  0.00    +0.000 A 
BRANCH   5  12
ATOM     11  C   UNL     1       6.757   6.559  17.084  0.00  0.00    +0.000 C 
ATOM     12  O   UNL     1       6.153   5.276  17.142  0.00  0.00    +0.000 OA
ENDBRANCH   5  12
BRANCH   9  13
ATOM     13  O   UNL     1       1.761   3.140  17.568  0.00  0.00    +0.000 OA
ATOM     14  C   UNL     1       1.976   2.051  18.464  0.00  0.00    +0.000 C 
ENDBRANCH   9  13
ENDBRANCH   1   7
BRANCH   2  15
ATOM     15  C   UNL     1       1.102   9.281  20.157  0.00  0.00    +0.000 C 
BRANCH  15  16
ATOM     16  S   UNL     1       1.078  10.188  18.578  0.00  0.00    +0.000 S 
BRANCH  16  17
ATOM     17  C   UNL     1      -0.615  10.723  18.489  0.00  0.00    +0.000 A 
ATOM     18  C   UNL     1      -1.447  10.093  17.581  0.00  0.00    +0.000 A 
ATOM     19  C   UNL     1      -2.794  10.443  17.529  0.00  0.00    +0.000 A 
ATOM     20  C   UNL     1      -3.281  11.421  18.386  0.00  0.00    +0.000 A 
ATOM     21  N   UNL     1      -2.435  12.036  19.246  0.00  0.00    +0.000 NA
ATOM     22  N   UNL     1      -1.092  11.681  19.304  0.00  0.00    +0.000 NA
BRANCH  20  23
ATOM     23  C   UNL     1      -4.691  11.833  18.414  0.00  0.00    +0.000 A 
ATOM     24  C   UNL     1      -5.457  12.005  17.248  0.00  0.00    +0.000 A 
ATOM     25  C   UNL     1      -6.787  12.424  17.320  0.00  0.00    +0.000 A 
ATOM     26  C   UNL     1      -7.328  12.661  18.570  0.00  0.00    +0.000 A 
ATOM     27  N   UNL     1      -6.644  12.502  19.720  0.00  0.00    +0.000 NA
ATOM     28  C   UNL     1      -5.355  12.088  19.616  0.00  0.00    +0.000 A 
ENDBRANCH  20  23
ENDBRANCH  16  17
ENDBRANCH  15  16
ENDBRANCH   2  15
TORSDOF 7
ENDMDL
