MODEL 1
REMARK VINA RESULT:      -6.4      0.000      0.000
REMARK  Name = 
REMARK  19 active torsions:
REMARK  status: ('A' for Active; 'I' for Inactive)
REMARK    1  A    between atoms: N_1  and  C_2
REMARK    2  A    between atoms: C_2  and  C_3
REMARK    3  A    between atoms: C_3  and  C_4
REMARK    4  A    between atoms: C_4  and  N_5
REMARK    5  A    between atoms: N_5  and  C_6
REMARK    6  A    between atoms: C_6  and  C_7
REMARK    7  A    between atoms: C_7  and  C_8
REMARK    8  A    between atoms: C_8  and  C_9
REMARK    9  A    between atoms: C_9  and  N_10
REMARK   10  A    between atoms: C_11  and  C_13
REMARK   11  A    between atoms: C_13  and  O_14
REMARK   12  A    between atoms: O_14  and  C_15
REMARK   13  A    between atoms: N_17  and  C_18
REMARK   14  A    between atoms: C_18  and  C_19
REMARK   15  A    between atoms: C_19  and  C_20
REMARK   16  A    between atoms: C_20  and  C_21
REMARK   17  A    between atoms: C_21  and  C_22
REMARK   18  A    between atoms: C_22  and  C_23
REMARK   19  A    between atoms: C_23  and  N_24
REMARK                            x       y       z     vdW  Elec       q    Type
REMARK                         _______ _______ _______ _____ _____    ______ ____
ROOT
ATOM      1  O   UNL     1       6.231   5.436  18.223  0.00  0.00    +0.000 OA
ENDROOT
BRANCH   1   2
ATOM      2  C   UNL     1       7.352   5.398  17.476  0.00  0.00    +0.000 C 
ATOM      3  O   UNL     1       8.049   4.413  17.292  0.00  0.00    +0.000 OA
ATOM      4  N   UNL     1       7.702   6.607  16.926  0.00  0.00    +0.000 N 
ATOM      5  H   UNL     1       8.525   6.543  16.342  0.00  0.00    +0.000 HD
BRANCH   4   6
ATOM      6  C   UNL     1       7.360   7.939  17.415  0.00  0.00    +0.000 C 
BRANCH   6   7
ATOM      7  C   UNL     1       8.352   8.554  18.397  0.00  0.00    +0.000 C 
BRANCH   7   8
ATOM      8  C   UNL     1       8.665  10.006  18.046  0.00  0.00    +0.000 C 
BRANCH   8   9
ATOM      9  C   UNL     1       9.785  10.586  18.908  0.00  0.00    +0.000 C 
BRANCH   9  10
ATOM     10  C   UNL     1       9.751  12.118  19.036  0.00  0.00    +0.000 C 
BRANCH  10  11
ATOM     11  C   UNL     1       9.590  12.821  17.691  0.00  0.00    +0.000 C 
BRANCH  11  12
ATOM     12  N   UNL     1      10.256  14.115  17.616  0.00  0.00    +0.000 NA
ATOM     13  C   UNL     1      11.284  14.176  16.850  0.00  0.00    +0.000 C 
ATOM     14  N   UNL     1      11.928  13.208  16.153  0.00  0.00    +0.000 N 
ATOM     15  N   UNL     1      11.868  15.375  16.646  0.00  0.00    +0.000 N 
ATOM     16  H   UNL     1      11.566  12.262  16.119  0.00  0.00    +0.000 HD
ATOM     17  H   UNL     1      12.570  13.452  15.418  0.00  0.00    +0.000 HD
ATOM     18  H   UNL     1      11.268  16.101  17.031  0.00  0.00    +0.000 HD
ATOM     19  H   UNL     1      12.123  15.591  15.705  0.00  0.00    +0.000 HD
ENDBRANCH  11  12
ENDBRANCH  10  11
ENDBRANCH   9  10
ENDBRANCH   8   9
ENDBRANCH   7   8
ENDBRANCH   6   7
ENDBRANCH   4   6
ENDBRANCH   1   2
BRANCH   1  20
ATOM     20  C   UNL     1       5.004   5.505  17.504  0.00  0.00    +0.000 C 
BRANCH  20  22
ATOM     21  N   UNL     1       3.765   5.559  19.650  0.00  0.00    +0.000 N 
ATOM     22  C   UNL     1       3.852   6.050  18.358  0.00  0.00    +0.000 C 
ATOM     23  O   UNL     1       3.048   6.868  17.913  0.00  0.00    +0.000 OA
ATOM     24  H   UNL     1       4.424   4.845  19.947  0.00  0.00    +0.000 HD
BRANCH  21  25
ATOM     25  C   UNL     1       2.642   5.924  20.500  0.00  0.00    +0.000 C 
BRANCH  25  26
ATOM     26  C   UNL     1       1.681   4.775  20.817  0.00  0.00    +0.000 C 
BRANCH  26  27
ATOM     27  C   UNL     1       1.099   4.070  19.599  0.00  0.00    +0.000 C 
BRANCH  27  28
ATOM     28  C   UNL     1       1.078   2.549  19.680  0.00  0.00    +0.000 C 
BRANCH  28  29
ATOM     29  N   UNL     1       1.563   1.768  18.530  0.00  0.00    +0.000 NA
ATOM     30  H   UNL     1       1.583   0.777  18.765  0.00  0.00    +0.000 HD
BRANCH  29  31
ATOM     31  C   UNL     1       2.931   2.223  18.205  0.00  0.00    +0.000 C 
BRANCH  31  32
ATOM     32  C   UNL     1       4.038   1.515  18.971  0.00  0.00    +0.000 C 
BRANCH  32  33
ATOM     33  C   UNL     1       4.250   2.161  20.350  0.00  0.00    +0.000 C 
BRANCH  33  34
ATOM     34  N   UNL     1       5.315   1.474  21.068  0.00  0.00    +0.000 NA
ATOM     35  H   UNL     1       6.177   1.488  20.526  0.00  0.00    +0.000 HD
ATOM     36  H   UNL     1       5.063   0.491  21.175  0.00  0.00    +0.000 HD
ENDBRANCH  33  34
ENDBRANCH  32  33
ENDBRANCH  31  32
ENDBRANCH  29  31
ENDBRANCH  28  29
ENDBRANCH  27  28
ENDBRANCH  26  27
ENDBRANCH  25  26
ENDBRANCH  21  25
ENDBRANCH  20  22
ENDBRANCH   1  20
TORSDOF 19
ENDMDL
MODEL 2
REMARK VINA RESULT:      -6.1      1.809     10.663
REMARK  Name = 
REMARK  19 active torsions:
REMARK  status: ('A' for Active; 'I' for Inactive)
REMARK    1  A    between atoms: N_1  and  C_2
REMARK    2  A    between atoms: C_2  and  C_3
REMARK    3  A    between atoms: C_3  and  C_4
REMARK    4  A    between atoms: C_4  and  N_5
REMARK    5  A    between atoms: N_5  and  C_6
REMARK    6  A    between atoms: C_6  and  C_7
REMARK    7  A    between atoms: C_7  and  C_8
REMARK    8  A    between atoms: C_8  and  C_9
REMARK    9  A    between atoms: C_9  and  N_10
REMARK   10  A    between atoms: C_11  and  C_13
REMARK   11  A    between atoms: C_13  and  O_14
REMARK   12  A    between atoms: O_14  and  C_15
REMARK   13  A    between atoms: N_17  and  C_18
REMARK   14  A    between atoms: C_18  and  C_19
REMARK   15  A    between atoms: C_19  and  C_20
REMARK   16  A    between atoms: C_20  and  C_21
REMARK   17  A    between atoms: C_21  and  C_22
REMARK   18  A    between atoms: C_22  and  C_23
REMARK   19  A    between atoms: C_23  and  N_24
REMARK                            x       y       z     vdW  Elec       q    Type
REMARK                         _______ _______ _______ _____ _____    ______ ____
ROOT
ATOM      1  O   UNL     1       7.435   5.009  16.274  0.00  0.00    +0.000 OA
ENDROOT
BRANCH   1   2
ATOM      2  C   UNL     1       6.490   4.243  15.695  0.00  0.00    +0.000 C 
ATOM      3  O   UNL     1       6.473   3.901  14.523  0.00  0.00    +0.000 OA
ATOM      4  N   UNL     1       5.473   3.870  16.540  0.00  0.00    +0.000 N 
ATOM      5  H   UNL     1       4.797   3.266  16.089  0.00  0.00    +0.000 HD
BRANCH   4   6
ATOM      6  C   UNL     1       5.022   4.556  17.746  0.00  0.00    +0.000 C 
BRANCH   6   7
ATOM      7  C   UNL     1       3.915   5.587  17.541  0.00  0.00    +0.000 C 
BRANCH   7   8
ATOM      8  C   UNL     1       2.543   5.017  17.892  0.00  0.00    +0.000 C 
BRANCH   8   9
ATOM      9  C   UNL     1       2.104   5.386  19.307  0.00  0.00    +0.000 C 
BRANCH   9  10
ATOM     10  C   UNL     1       1.500   4.216  20.103  0.00  0.00    +0.000 C 
BRANCH  10  11
ATOM     11  C   UNL     1       2.514   3.116  20.399  0.00  0.00    +0.000 C 
BRANCH  11  12
ATOM     12  N   UNL     1       2.712   2.182  19.298  0.00  0.00    +0.000 NA
ATOM     13  C   UNL     1       3.880   1.658  19.207  0.00  0.00    +0.000 C 
ATOM     14  N   UNL     1       5.013   1.891  19.913  0.00  0.00    +0.000 N 
ATOM     15  N   UNL     1       4.087   0.696  18.282  0.00  0.00    +0.000 N 
ATOM     16  H   UNL     1       5.011   2.518  20.710  0.00  0.00    +0.000 HD
ATOM     17  H   UNL     1       5.777   1.237  19.881  0.00  0.00    +0.000 HD
ATOM     18  H   UNL     1       3.190   0.419  17.892  0.00  0.00    +0.000 HD
ATOM     19  H   UNL     1       4.604  -0.104  18.582  0.00  0.00    +0.000 HD
ENDBRANCH  11  12
ENDBRANCH  10  11
ENDBRANCH   9  10
ENDBRANCH   8   9
ENDBRANCH   7   8
ENDBRANCH   6   7
ENDBRANCH   4   6
ENDBRANCH   1   2
BRANCH   1  20
ATOM     20  C   UNL     1       7.167   6.406  16.314  0.00  0.00    +0.000 C 
BRANCH  20  22
ATOM     21  N   UNL     1       7.966   8.433  17.496  0.00  0.00    +0.000 N 
ATOM     22  C   UNL     1       7.714   7.074  17.583  0.00  0.00    +0.000 C 
ATOM     23  O   UNL     1       7.926   6.433  18.611  0.00  0.00    +0.000 OA
ATOM     24  H   UNL     1       7.824   8.901  16.606  0.00  0.00    +0.000 HD
BRANCH  21  25
ATOM     25  C   UNL     1       8.595   9.135  18.604  0.00  0.00    +0.000 C 
BRANCH  25  26
ATOM     26  C   UNL     1       9.071  10.553  18.275  0.00  0.00    +0.000 C 
BRANCH  26  27
ATOM     27  C   UNL     1       9.864  11.236  19.381  0.00  0.00    +0.000 C 
BRANCH  27  28
ATOM     28  C   UNL     1      11.343  11.444  19.083  0.00  0.00    +0.000 C 
BRANCH  28  29
ATOM     29  N   UNL     1      12.113  12.384  19.915  0.00  0.00    +0.000 NA
ATOM     30  H   UNL     1      11.753  12.382  20.868  0.00  0.00    +0.000 HD
BRANCH  29  31
ATOM     31  C   UNL     1      11.969  13.737  19.339  0.00  0.00    +0.000 C 
BRANCH  31  32
ATOM     32  C   UNL     1      12.121  13.806  17.827  0.00  0.00    +0.000 C 
BRANCH  32  33
ATOM     33  C   UNL     1      10.990  14.639  17.201  0.00  0.00    +0.000 C 
BRANCH  33  34
ATOM     34  N   UNL     1      11.543  15.786  16.493  0.00  0.00    +0.000 NA
ATOM     35  H   UNL     1      12.356  15.508  15.946  0.00  0.00    +0.000 HD
ATOM     36  H   UNL     1      11.879  16.467  17.174  0.00  0.00    +0.000 HD
ENDBRANCH  33  34
ENDBRANCH  32  33
ENDBRANCH  31  32
ENDBRANCH  29  31
ENDBRANCH  28  29
ENDBRANCH  27  28
ENDBRANCH  26  27
ENDBRANCH  25  26
ENDBRANCH  21  25
ENDBRANCH  20  22
ENDBRANCH   1  20
TORSDOF 19
ENDMDL
MODEL 3
REMARK VINA RESULT:      -6.1      1.671      2.238
REMARK  Name = 
REMARK  19 active torsions:
REMARK  status: ('A' for Active; 'I' for Inactive)
REMARK    1  A    between atoms: N_1  and  C_2
REMARK    2  A    between atoms: C_2  and  C_3
REMARK    3  A    between atoms: C_3  and  C_4
REMARK    4  A    between atoms: C_4  and  N_5
REMARK    5  A    between atoms: N_5  and  C_6
REMARK    6  A    between atoms: C_6  and  C_7
REMARK    7  A    between atoms: C_7  and  C_8
REMARK    8  A    between atoms: C_8  and  C_9
REMARK    9  A    between atoms: C_9  and  N_10
REMARK   10  A    between atoms: C_11  and  C_13
REMARK   11  A    between atoms: C_13  and  O_14
REMARK   12  A    between atoms: O_14  and  C_15
REMARK   13  A    between atoms: N_17  and  C_18
REMARK   14  A    between atoms: C_18  and  C_19
REMARK   15  A    between atoms: C_19  and  C_20
REMARK   16  A    between atoms: C_20  and  C_21
REMARK   17  A    between atoms: C_21  and  C_22
REMARK   18  A    between atoms: C_22  and  C_23
REMARK   19  A    between atoms: C_23  and  N_24
REMARK                            x       y       z     vdW  Elec       q    Type
REMARK                         _______ _______ _______ _____ _____    ______ ____
ROOT
ATOM      1  O   UNL     1       7.944   5.666  17.584  0.00  0.00    +0.000 OA
ENDROOT
BRANCH   1   2
ATOM      2  C   UNL     1       8.084   6.197  18.814  0.00  0.00    +0.000 C 
ATOM      3  O   UNL     1       7.964   5.592  19.867  0.00  0.00    +0.000 OA
ATOM      4  N   UNL     1       8.357   7.544  18.817  0.00  0.00    +0.000 N 
ATOM      5  H   UNL     1       8.493   7.909  19.750  0.00  0.00    +0.000 HD
BRANCH   4   6
ATOM      6  C   UNL     1       8.028   8.520  17.783  0.00  0.00    +0.000 C 
BRANCH   6   7
ATOM      7  C   UNL     1       8.423   9.961  18.091  0.00  0.00    +0.000 C 
BRANCH   7   8
ATOM      8  C   UNL     1       9.255  10.057  19.367  0.00  0.00    +0.000 C 
BRANCH   8   9
ATOM      9  C   UNL     1      10.437  11.012  19.222  0.00  0.00    +0.000 C 
BRANCH   9  10
ATOM     10  C   UNL     1      10.460  12.147  20.261  0.00  0.00    +0.000 C 
BRANCH  10  11
ATOM     11  C   UNL     1      10.990  13.459  19.693  0.00  0.00    +0.000 C 
BRANCH  11  12
ATOM     12  N   UNL     1       9.947  14.391  19.283  0.00  0.00    +0.000 NA
ATOM     13  C   UNL     1       9.800  14.551  18.018  0.00  0.00    +0.000 C 
ATOM     14  N   UNL     1      10.516  14.066  16.974  0.00  0.00    +0.000 N 
ATOM     15  N   UNL     1       8.773  15.307  17.577  0.00  0.00    +0.000 N 
ATOM     16  H   UNL     1      11.269  13.402  17.122  0.00  0.00    +0.000 HD
ATOM     17  H   UNL     1      10.137  14.088  16.043  0.00  0.00    +0.000 HD
ATOM     18  H   UNL     1       8.156  15.510  18.360  0.00  0.00    +0.000 HD
ATOM     19  H   UNL     1       8.254  14.945  16.804  0.00  0.00    +0.000 HD
ENDBRANCH  11  12
ENDBRANCH  10  11
ENDBRANCH   9  10
ENDBRANCH   8   9
ENDBRANCH   7   8
ENDBRANCH   6   7
ENDBRANCH   4   6
ENDBRANCH   1   2
BRANCH   1  20
ATOM     20  C   UNL     1       7.194   4.458  17.507  0.00  0.00    +0.000 C 
BRANCH  20  22
ATOM     21  N   UNL     1       5.276   6.024  17.409  0.00  0.00    +0.000 N 
ATOM     22  C   UNL     1       5.695   4.709  17.299  0.00  0.00    +0.000 C 
ATOM     23  O   UNL     1       4.912   3.789  17.059  0.00  0.00    +0.000 OA
ATOM     24  H   UNL     1       5.956   6.734  17.661  0.00  0.00    +0.000 HD
BRANCH  21  25
ATOM     25  C   UNL     1       3.860   6.351  17.345  0.00  0.00    +0.000 C 
BRANCH  25  26
ATOM     26  C   UNL     1       3.097   6.150  18.658  0.00  0.00    +0.000 C 
BRANCH  26  27
ATOM     27  C   UNL     1       1.705   5.553  18.506  0.00  0.00    +0.000 C 
BRANCH  27  28
ATOM     28  C   UNL     1       1.627   4.303  17.640  0.00  0.00    +0.000 C 
BRANCH  28  29
ATOM     29  N   UNL     1       1.061   3.071  18.215  0.00  0.00    +0.000 NA
ATOM     30  H   UNL     1       0.065   3.015  18.010  0.00  0.00    +0.000 HD
BRANCH  29  31
ATOM     31  C   UNL     1       1.260   3.110  19.679  0.00  0.00    +0.000 C 
BRANCH  31  32
ATOM     32  C   UNL     1       2.348   2.185  20.200  0.00  0.00    +0.000 C 
BRANCH  32  33
ATOM     33  C   UNL     1       3.691   2.927  20.310  0.00  0.00    +0.000 C 
BRANCH  33  34
ATOM     34  N   UNL     1       4.740   2.170  19.641  0.00  0.00    +0.000 NA
ATOM     35  H   UNL     1       5.527   2.775  19.415  0.00  0.00    +0.000 HD
ATOM     36  H   UNL     1       4.383   1.824  18.750  0.00  0.00    +0.000 HD
ENDBRANCH  33  34
ENDBRANCH  32  33
ENDBRANCH  31  32
ENDBRANCH  29  31
ENDBRANCH  28  29
ENDBRANCH  27  28
ENDBRANCH  26  27
ENDBRANCH  25  26
ENDBRANCH  21  25
ENDBRANCH  20  22
ENDBRANCH   1  20
TORSDOF 19
ENDMDL
MODEL 4
REMARK VINA RESULT:      -6.1      4.600      7.487
REMARK  Name = 
REMARK  19 active torsions:
REMARK  status: ('A' for Active; 'I' for Inactive)
REMARK    1  A    between atoms: N_1  and  C_2
REMARK    2  A    between atoms: C_2  and  C_3
REMARK    3  A    between atoms: C_3  and  C_4
REMARK    4  A    between atoms: C_4  and  N_5
REMARK    5  A    between atoms: N_5  and  C_6
REMARK    6  A    between atoms: C_6  and  C_7
REMARK    7  A    between atoms: C_7  and  C_8
REMARK    8  A    between atoms: C_8  and  C_9
REMARK    9  A    between atoms: C_9  and  N_10
REMARK   10  A    between atoms: C_11  and  C_13
REMARK   11  A    between atoms: C_13  and  O_14
REMARK   12  A    between atoms: O_14  and  C_15
REMARK   13  A    between atoms: N_17  and  C_18
REMARK   14  A    between atoms: C_18  and  C_19
REMARK   15  A    between atoms: C_19  and  C_20
REMARK   16  A    between atoms: C_20  and  C_21
REMARK   17  A    between atoms: C_21  and  C_22
REMARK   18  A    between atoms: C_22  and  C_23
REMARK   19  A    between atoms: C_23  and  N_24
REMARK                            x       y       z     vdW  Elec       q    Type
REMARK                         _______ _______ _______ _____ _____    ______ ____
ROOT
ATOM      1  O   UNL     1       2.544   2.318  19.686  0.00  0.00    +0.000 OA
ENDROOT
BRANCH   1   2
ATOM      2  C   UNL     1       1.502   2.951  19.114  0.00  0.00    +0.000 C 
ATOM      3  O   UNL     1       0.969   2.635  18.063  0.00  0.00    +0.000 OA
ATOM      4  N   UNL     1       1.067   4.056  19.806  0.00  0.00    +0.000 N 
ATOM      5  H   UNL     1       0.262   4.490  19.374  0.00  0.00    +0.000 HD
BRANCH   4   6
ATOM      6  C   UNL     1       1.835   4.888  20.726  0.00  0.00    +0.000 C 
BRANCH   6   7
ATOM      7  C   UNL     1       2.518   6.101  20.100  0.00  0.00    +0.000 C 
BRANCH   7   8
ATOM      8  C   UNL     1       2.032   6.348  18.674  0.00  0.00    +0.000 C 
BRANCH   8   9
ATOM      9  C   UNL     1       2.666   7.588  18.049  0.00  0.00    +0.000 C 
BRANCH   9  10
ATOM     10  C   UNL     1       1.692   8.763  17.857  0.00  0.00    +0.000 C 
BRANCH  10  11
ATOM     11  C   UNL     1       1.367   9.482  19.162  0.00  0.00    +0.000 C 
BRANCH  11  12
ATOM     12  N   UNL     1       0.525  10.659  18.997  0.00  0.00    +0.000 NA
ATOM     13  C   UNL     1       1.082  11.678  18.449  0.00  0.00    +0.000 C 
ATOM     14  N   UNL     1       2.366  11.888  18.070  0.00  0.00    +0.000 N 
ATOM     15  N   UNL     1       0.320  12.753  18.160  0.00  0.00    +0.000 N 
ATOM     16  H   UNL     1       3.055  11.146  18.129  0.00  0.00    +0.000 HD
ATOM     17  H   UNL     1       2.595  12.641  17.444  0.00  0.00    +0.000 HD
ATOM     18  H   UNL     1      -0.658  12.506  18.288  0.00  0.00    +0.000 HD
ATOM     19  H   UNL     1       0.463  13.171  17.264  0.00  0.00    +0.000 HD
ENDBRANCH  11  12
ENDBRANCH  10  11
ENDBRANCH   9  10
ENDBRANCH   8   9
ENDBRANCH   7   8
ENDBRANCH   6   7
ENDBRANCH   4   6
ENDBRANCH   1   2
BRANCH   1  20
ATOM     20  C   UNL     1       3.668   2.078  18.846  0.00  0.00    +0.000 C 
BRANCH  20  22
ATOM     21  N   UNL     1       5.307   3.860  19.373  0.00  0.00    +0.000 N 
ATOM     22  C   UNL     1       4.395   3.371  18.453  0.00  0.00    +0.000 C 
ATOM     23  O   UNL     1       4.169   3.942  17.386  0.00  0.00    +0.000 OA
ATOM     24  H   UNL     1       5.415   3.377  20.260  0.00  0.00    +0.000 HD
BRANCH  21  25
ATOM     25  C   UNL     1       5.962   5.140  19.148  0.00  0.00    +0.000 C 
BRANCH  25  26
ATOM     26  C   UNL     1       7.231   5.068  18.295  0.00  0.00    +0.000 C 
BRANCH  26  27
ATOM     27  C   UNL     1       7.313   6.099  17.177  0.00  0.00    +0.000 C 
BRANCH  27  28
ATOM     28  C   UNL     1       6.581   5.725  15.896  0.00  0.00    +0.000 C 
BRANCH  28  29
ATOM     29  N   UNL     1       7.345   5.128  14.787  0.00  0.00    +0.000 NA
ATOM     30  H   UNL     1       7.571   5.840  14.096  0.00  0.00    +0.000 HD
BRANCH  29  31
ATOM     31  C   UNL     1       6.511   4.082  14.159  0.00  0.00    +0.000 C 
BRANCH  31  32
ATOM     32  C   UNL     1       6.518   4.088  12.639  0.00  0.00    +0.000 C 
BRANCH  32  33
ATOM     33  C   UNL     1       5.800   2.847  12.083  0.00  0.00    +0.000 C 
BRANCH  33  34
ATOM     34  N   UNL     1       4.476   3.210  11.594  0.00  0.00    +0.000 NA
ATOM     35  H   UNL     1       4.094   3.980  12.140  0.00  0.00    +0.000 HD
ATOM     36  H   UNL     1       3.843   2.422  11.734  0.00  0.00    +0.000 HD
ENDBRANCH  33  34
ENDBRANCH  32  33
ENDBRANCH  31  32
ENDBRANCH  29  31
ENDBRANCH  28  29
ENDBRANCH  27  28
ENDBRANCH  26  27
ENDBRANCH  25  26
ENDBRANCH  21  25
ENDBRANCH  20  22
ENDBRANCH   1  20
TORSDOF 19
ENDMDL
MODEL 5
REMARK VINA RESULT:      -6.0      1.852      2.962
REMARK  Name = 
REMARK  19 active torsions:
REMARK  status: ('A' for Active; 'I' for Inactive)
REMARK    1  A    between atoms: N_1  and  C_2
REMARK    2  A    between atoms: C_2  and  C_3
REMARK    3  A    between atoms: C_3  and  C_4
REMARK    4  A    between atoms: C_4  and  N_5
REMARK    5  A    between atoms: N_5  and  C_6
REMARK    6  A    between atoms: C_6  and  C_7
REMARK    7  A    between atoms: C_7  and  C_8
REMARK    8  A    between atoms: C_8  and  C_9
REMARK    9  A    between atoms: C_9  and  N_10
REMARK   10  A    between atoms: C_11  and  C_13
REMARK   11  A    between atoms: C_13  and  O_14
REMARK   12  A    between atoms: O_14  and  C_15
REMARK   13  A    between atoms: N_17  and  C_18
REMARK   14  A    between atoms: C_18  and  C_19
REMARK   15  A    between atoms: C_19  and  C_20
REMARK   16  A    between atoms: C_20  and  C_21
REMARK   17  A    between atoms: C_21  and  C_22
REMARK   18  A    between atoms: C_22  and  C_23
REMARK   19  A    between atoms: C_23  and  N_24
REMARK                            x       y       z     vdW  Elec       q    Type
REMARK                         _______ _______ _______ _____ _____    ______ ____
ROOT
ATOM      1  O   UNL     1       8.101   7.006  18.617  0.00  0.00    +0.000 OA
ENDROOT
BRANCH   1   2
ATOM      2  C   UNL     1       7.718   8.003  17.797  0.00  0.00    +0.000 C 
ATOM      3  O   UNL     1       7.048   7.873  16.785  0.00  0.00    +0.000 OA
ATOM      4  N   UNL     1       8.174   9.245  18.169  0.00  0.00    +0.000 N 
ATOM      5  H   UNL     1       7.842   9.979  17.557  0.00  0.00    +0.000 HD
BRANCH   4   6
ATOM      6  C   UNL     1       9.355   9.555  18.967  0.00  0.00    +0.000 C 
BRANCH   6   7
ATOM      7  C   UNL     1       9.169  10.642  20.023  0.00  0.00    +0.000 C 
BRANCH   7   8
ATOM      8  C   UNL     1      10.021  11.872  19.721  0.00  0.00    +0.000 C 
BRANCH   8   9
ATOM      9  C   UNL     1       9.187  13.053  19.229  0.00  0.00    +0.000 C 
BRANCH   9  10
ATOM     10  C   UNL     1       9.553  14.396  19.883  0.00  0.00    +0.000 C 
BRANCH  10  11
ATOM     11  C   UNL     1      10.841  14.994  19.326  0.00  0.00    +0.000 C 
BRANCH  11  12
ATOM     12  N   UNL     1      10.920  14.981  17.871  0.00  0.00    +0.000 NA
ATOM     13  C   UNL     1      10.487  16.031  17.273  0.00  0.00    +0.000 C 
ATOM     14  N   UNL     1       9.873  17.137  17.760  0.00  0.00    +0.000 N 
ATOM     15  N   UNL     1      10.645  16.125  15.936  0.00  0.00    +0.000 N 
ATOM     16  H   UNL     1       9.759  17.273  18.758  0.00  0.00    +0.000 HD
ATOM     17  H   UNL     1       9.809  17.970  17.200  0.00  0.00    +0.000 HD
ATOM     18  H   UNL     1      11.258  15.375  15.626  0.00  0.00    +0.000 HD
ATOM     19  H   UNL     1      10.962  17.006  15.588  0.00  0.00    +0.000 HD
ENDBRANCH  11  12
ENDBRANCH  10  11
ENDBRANCH   9  10
ENDBRANCH   8   9
ENDBRANCH   7   8
ENDBRANCH   6   7
ENDBRANCH   4   6
ENDBRANCH   1   2
BRANCH   1  20
ATOM     20  C   UNL     1       7.678   5.698  18.250  0.00  0.00    +0.000 C 
BRANCH  20  22
ATOM     21  N   UNL     1       5.362   5.271  17.477  0.00  0.00    +0.000 N 
ATOM     22  C   UNL     1       6.197   5.447  18.567  0.00  0.00    +0.000 C 
ATOM     23  O   UNL     1       5.780   5.417  19.725  0.00  0.00    +0.000 OA
ATOM     24  H   UNL     1       5.751   5.360  16.543  0.00  0.00    +0.000 HD
BRANCH  21  25
ATOM     25  C   UNL     1       3.925   5.145  17.667  0.00  0.00    +0.000 C 
BRANCH  25  26
ATOM     26  C   UNL     1       3.321   3.845  17.129  0.00  0.00    +0.000 C 
BRANCH  26  27
ATOM     27  C   UNL     1       3.909   2.571  17.721  0.00  0.00    +0.000 C 
BRANCH  27  28
ATOM     28  C   UNL     1       2.933   1.719  18.521  0.00  0.00    +0.000 C 
BRANCH  28  29
ATOM     29  N   UNL     1       1.491   2.002  18.421  0.00  0.00    +0.000 NA
ATOM     30  H   UNL     1       1.330   2.766  17.767  0.00  0.00    +0.000 HD
BRANCH  29  31
ATOM     31  C   UNL     1       1.002   2.391  19.760  0.00  0.00    +0.000 C 
BRANCH  31  32
ATOM     32  C   UNL     1       1.047   3.884  20.047  0.00  0.00    +0.000 C 
BRANCH  32  33
ATOM     33  C   UNL     1       2.142   4.211  21.076  0.00  0.00    +0.000 C 
BRANCH  33  34
ATOM     34  N   UNL     1       2.191   3.179  22.103  0.00  0.00    +0.000 NA
ATOM     35  H   UNL     1       3.136   2.809  22.191  0.00  0.00    +0.000 HD
ATOM     36  H   UNL     1       1.606   2.395  21.814  0.00  0.00    +0.000 HD
ENDBRANCH  33  34
ENDBRANCH  32  33
ENDBRANCH  31  32
ENDBRANCH  29  31
ENDBRANCH  28  29
ENDBRANCH  27  28
ENDBRANCH  26  27
ENDBRANCH  25  26
ENDBRANCH  21  25
ENDBRANCH  20  22
ENDBRANCH   1  20
TORSDOF 19
ENDMDL
MODEL 6
REMARK VINA RESULT:      -5.9      1.904     10.383
REMARK  Name = 
REMARK  19 active torsions:
REMARK  status: ('A' for Active; 'I' for Inactive)
REMARK    1  A    between atoms: N_1  and  C_2
REMARK    2  A    between atoms: C_2  and  C_3
REMARK    3  A    between atoms: C_3  and  C_4
REMARK    4  A    between atoms: C_4  and  N_5
REMARK    5  A    between atoms: N_5  and  C_6
REMARK    6  A    between atoms: C_6  and  C_7
REMARK    7  A    between atoms: C_7  and  C_8
REMARK    8  A    between atoms: C_8  and  C_9
REMARK    9  A    between atoms: C_9  and  N_10
REMARK   10  A    between atoms: C_11  and  C_13
REMARK   11  A    between atoms: C_13  and  O_14
REMARK   12  A    between atoms: O_14  and  C_15
REMARK   13  A    between atoms: N_17  and  C_18
REMARK   14  A    between atoms: C_18  and  C_19
REMARK   15  A    between atoms: C_19  and  C_20
REMARK   16  A    between atoms: C_20  and  C_21
REMARK   17  A    between atoms: C_21  and  C_22
REMARK   18  A    between atoms: C_22  and  C_23
REMARK   19  A    between atoms: C_23  and  N_24
REMARK                            x       y       z     vdW  Elec       q    Type
REMARK                         _______ _______ _______ _____ _____    ______ ____
ROOT
ATOM      1  O   UNL     1       5.009   5.329  18.239  0.00  0.00    +0.000 OA
ENDROOT
BRANCH   1   2
ATOM      2  C   UNL     1       3.923   4.964  17.531  0.00  0.00    +0.000 C 
ATOM      3  O   UNL     1       3.891   4.087  16.683  0.00  0.00    +0.000 OA
ATOM      4  N   UNL     1       2.796   5.696  17.813  0.00  0.00    +0.000 N 
ATOM      5  H   UNL     1       1.988   5.378  17.294  0.00  0.00    +0.000 HD
BRANCH   4   6
ATOM      6  C   UNL     1       2.726   7.053  18.346  0.00  0.00    +0.000 C 
BRANCH   6   7
ATOM      7  C   UNL     1       2.540   7.157  19.857  0.00  0.00    +0.000 C 
BRANCH   7   8
ATOM      8  C   UNL     1       1.488   6.173  20.363  0.00  0.00    +0.000 C 
BRANCH   8   9
ATOM      9  C   UNL     1       2.104   4.882  20.895  0.00  0.00    +0.000 C 
BRANCH   9  10
ATOM     10  C   UNL     1       1.222   3.637  20.701  0.00  0.00    +0.000 C 
BRANCH  10  11
ATOM     11  C   UNL     1       2.027   2.342  20.661  0.00  0.00    +0.000 C 
BRANCH  11  12
ATOM     12  N   UNL     1       2.444   1.944  19.322  0.00  0.00    +0.000 NA
ATOM     13  C   UNL     1       3.709   1.838  19.134  0.00  0.00    +0.000 C 
ATOM     14  N   UNL     1       4.753   2.123  19.950  0.00  0.00    +0.000 N 
ATOM     15  N   UNL     1       4.148   1.357  17.952  0.00  0.00    +0.000 N 
ATOM     16  H   UNL     1       4.600   2.407  20.911  0.00  0.00    +0.000 HD
ATOM     17  H   UNL     1       5.670   1.765  19.746  0.00  0.00    +0.000 HD
ATOM     18  H   UNL     1       3.354   0.989  17.433  0.00  0.00    +0.000 HD
ATOM     19  H   UNL     1       4.885   0.684  17.993  0.00  0.00    +0.000 HD
ENDBRANCH  11  12
ENDBRANCH  10  11
ENDBRANCH   9  10
ENDBRANCH   8   9
ENDBRANCH   7   8
ENDBRANCH   6   7
ENDBRANCH   4   6
ENDBRANCH   1   2
BRANCH   1  20
ATOM     20  C   UNL     1       6.267   4.928  17.706  0.00  0.00    +0.000 C 
BRANCH  20  22
ATOM     21  N   UNL     1       7.300   7.154  18.050  0.00  0.00    +0.000 N 
ATOM     22  C   UNL     1       7.082   6.111  17.166  0.00  0.00    +0.000 C 
ATOM     23  O   UNL     1       7.504   6.131  16.010  0.00  0.00    +0.000 OA
ATOM     24  H   UNL     1       6.882   7.108  18.974  0.00  0.00    +0.000 HD
BRANCH  21  25
ATOM     25  C   UNL     1       7.958   8.371  17.600  0.00  0.00    +0.000 C 
BRANCH  25  26
ATOM     26  C   UNL     1       8.654   9.168  18.707  0.00  0.00    +0.000 C 
BRANCH  26  27
ATOM     27  C   UNL     1       9.132  10.555  18.296  0.00  0.00    +0.000 C 
BRANCH  27  28
ATOM     28  C   UNL     1      10.259  11.128  19.145  0.00  0.00    +0.000 C 
BRANCH  28  29
ATOM     29  N   UNL     1      10.859  12.416  18.756  0.00  0.00    +0.000 NA
ATOM     30  H   UNL     1      11.659  12.259  18.147  0.00  0.00    +0.000 HD
BRANCH  29  31
ATOM     31  C   UNL     1      11.305  13.108  19.983  0.00  0.00    +0.000 C 
BRANCH  31  32
ATOM     32  C   UNL     1      10.550  14.388  20.303  0.00  0.00    +0.000 C 
BRANCH  32  33
ATOM     33  C   UNL     1       9.928  14.321  21.709  0.00  0.00    +0.000 C 
BRANCH  33  34
ATOM     34  N   UNL     1       8.994  15.422  21.898  0.00  0.00    +0.000 NA
ATOM     35  H   UNL     1       8.470  15.300  22.763  0.00  0.00    +0.000 HD
ATOM     36  H   UNL     1       8.305  15.407  21.145  0.00  0.00    +0.000 HD
ENDBRANCH  33  34
ENDBRANCH  32  33
ENDBRANCH  31  32
ENDBRANCH  29  31
ENDBRANCH  28  29
ENDBRANCH  27  28
ENDBRANCH  26  27
ENDBRANCH  25  26
ENDBRANCH  21  25
ENDBRANCH  20  22
ENDBRANCH   1  20
TORSDOF 19
ENDMDL
MODEL 7
REMARK VINA RESULT:      -5.9      1.240      1.741
REMARK  Name = 
REMARK  19 active torsions:
REMARK  status: ('A' for Active; 'I' for Inactive)
REMARK    1  A    between atoms: N_1  and  C_2
REMARK    2  A    between atoms: C_2  and  C_3
REMARK    3  A    between atoms: C_3  and  C_4
REMARK    4  A    between atoms: C_4  and  N_5
REMARK    5  A    between atoms: N_5  and  C_6
REMARK    6  A    between atoms: C_6  and  C_7
REMARK    7  A    between atoms: C_7  and  C_8
REMARK    8  A    between atoms: C_8  and  C_9
REMARK    9  A    between atoms: C_9  and  N_10
REMARK   10  A    between atoms: C_11  and  C_13
REMARK   11  A    between atoms: C_13  and  O_14
REMARK   12  A    between atoms: O_14  and  C_15
REMARK   13  A    between atoms: N_17  and  C_18
REMARK   14  A    between atoms: C_18  and  C_19
REMARK   15  A    between atoms: C_19  and  C_20
REMARK   16  A    between atoms: C_20  and  C_21
REMARK   17  A    between atoms: C_21  and  C_22
REMARK   18  A    between atoms: C_22  and  C_23
REMARK   19  A    between atoms: C_23  and  N_24
REMARK                            x       y       z     vdW  Elec       q    Type
REMARK                         _______ _______ _______ _____ _____    ______ ____
ROOT
ATOM      1  O   UNL     1       6.814   6.470  18.497  0.00  0.00    +0.000 OA
ENDROOT
BRANCH   1   2
ATOM      2  C   UNL     1       7.431   6.578  17.305  0.00  0.00    +0.000 C 
ATOM      3  O   UNL     1       7.815   5.646  16.617  0.00  0.00    +0.000 OA
ATOM      4  N   UNL     1       7.642   7.873  16.896  0.00  0.00    +0.000 N 
ATOM      5  H   UNL     1       8.073   7.924  15.982  0.00  0.00    +0.000 HD
BRANCH   4   6
ATOM      6  C   UNL     1       7.758   9.062  17.733  0.00  0.00    +0.000 C 
BRANCH   6   7
ATOM      7  C   UNL     1       8.922   9.059  18.720  0.00  0.00    +0.000 C 
BRANCH   7   8
ATOM      8  C   UNL     1       9.231  10.464  19.231  0.00  0.00    +0.000 C 
BRANCH   8   9
ATOM      9  C   UNL     1      10.282  11.175  18.382  0.00  0.00    +0.000 C 
BRANCH   9  10
ATOM     10  C   UNL     1      11.150  12.176  19.164  0.00  0.00    +0.000 C 
BRANCH  10  11
ATOM     11  C   UNL     1      12.141  12.921  18.275  0.00  0.00    +0.000 C 
BRANCH  11  12
ATOM     12  N   UNL     1      11.873  14.348  18.154  0.00  0.00    +0.000 NA
ATOM     13  C   UNL     1      11.398  14.739  17.028  0.00  0.00    +0.000 C 
ATOM     14  N   UNL     1      11.180  14.061  15.875  0.00  0.00    +0.000 N 
ATOM     15  N   UNL     1      11.017  16.028  16.900  0.00  0.00    +0.000 N 
ATOM     16  H   UNL     1      11.324  13.059  15.825  0.00  0.00    +0.000 HD
ATOM     17  H   UNL     1      10.587  14.449  15.161  0.00  0.00    +0.000 HD
ATOM     18  H   UNL     1      11.024  16.464  17.819  0.00  0.00    +0.000 HD
ATOM     19  H   UNL     1      10.146  16.190  16.440  0.00  0.00    +0.000 HD
ENDBRANCH  11  12
ENDBRANCH  10  11
ENDBRANCH   9  10
ENDBRANCH   8   9
ENDBRANCH   7   8
ENDBRANCH   6   7
ENDBRANCH   4   6
ENDBRANCH   1   2
BRANCH   1  20
ATOM     20  C   UNL     1       5.773   5.502  18.577  0.00  0.00    +0.000 C 
BRANCH  20  22
ATOM     21  N   UNL     1       3.663   6.136  19.711  0.00  0.00    +0.000 N 
ATOM     22  C   UNL     1       4.376   6.134  18.524  0.00  0.00    +0.000 C 
ATOM     23  O   UNL     1       3.916   6.601  17.483  0.00  0.00    +0.000 OA
ATOM     24  H   UNL     1       4.071   5.690  20.528  0.00  0.00    +0.000 HD
BRANCH  21  25
ATOM     25  C   UNL     1       2.286   6.605  19.740  0.00  0.00    +0.000 C 
BRANCH  25  26
ATOM     26  C   UNL     1       1.388   5.890  20.753  0.00  0.00    +0.000 C 
BRANCH  26  27
ATOM     27  C   UNL     1       1.365   4.373  20.633  0.00  0.00    +0.000 C 
BRANCH  27  28
ATOM     28  C   UNL     1       2.207   3.629  21.661  0.00  0.00    +0.000 C 
BRANCH  28  29
ATOM     29  N   UNL     1       2.763   2.311  21.309  0.00  0.00    +0.000 NA
ATOM     30  H   UNL     1       2.969   1.782  22.154  0.00  0.00    +0.000 HD
BRANCH  29  31
ATOM     31  C   UNL     1       4.011   2.524  20.547  0.00  0.00    +0.000 C 
BRANCH  31  32
ATOM     32  C   UNL     1       3.820   2.718  19.051  0.00  0.00    +0.000 C 
BRANCH  32  33
ATOM     33  C   UNL     1       3.175   1.476  18.415  0.00  0.00    +0.000 C 
BRANCH  33  34
ATOM     34  N   UNL     1       1.729   1.513  18.594  0.00  0.00    +0.000 NA
ATOM     35  H   UNL     1       1.258   1.465  17.692  0.00  0.00    +0.000 HD
ATOM     36  H   UNL     1       1.468   2.411  19.003  0.00  0.00    +0.000 HD
ENDBRANCH  33  34
ENDBRANCH  32  33
ENDBRANCH  31  32
ENDBRANCH  29  31
ENDBRANCH  28  29
ENDBRANCH  27  28
ENDBRANCH  26  27
ENDBRANCH  25  26
ENDBRANCH  21  25
ENDBRANCH  20  22
ENDBRANCH   1  20
TORSDOF 19
ENDMDL
MODEL 8
REMARK VINA RESULT:      -5.9      5.732      9.187
REMARK  Name = 
REMARK  19 active torsions:
REMARK  status: ('A' for Active; 'I' for Inactive)
REMARK    1  A    between atoms: N_1  and  C_2
REMARK    2  A    between atoms: C_2  and  C_3
REMARK    3  A    between atoms: C_3  and  C_4
REMARK    4  A    between atoms: C_4  and  N_5
REMARK    5  A    between atoms: N_5  and  C_6
REMARK    6  A    between atoms: C_6  and  C_7
REMARK    7  A    between atoms: C_7  and  C_8
REMARK    8  A    between atoms: C_8  and  C_9
REMARK    9  A    between atoms: C_9  and  N_10
REMARK   10  A    between atoms: C_11  and  C_13
REMARK   11  A    between atoms: C_13  and  O_14
REMARK   12  A    between atoms: O_14  and  C_15
REMARK   13  A    between atoms: N_17  and  C_18
REMARK   14  A    between atoms: C_18  and  C_19
REMARK   15  A    between atoms: C_19  and  C_20
REMARK   16  A    between atoms: C_20  and  C_21
REMARK   17  A    between atoms: C_21  and  C_22
REMARK   18  A    between atoms: C_22  and  C_23
REMARK   19  A    between atoms: C_23  and  N_24
REMARK                            x       y       z     vdW  Elec       q    Type
REMARK                         _______ _______ _______ _____ _____    ______ ____
ROOT
ATOM      1  O   UNL     1       1.571   8.496  19.267  0.00  0.00    +0.000 OA
ENDROOT
BRANCH   1   2
ATOM      2  C   UNL     1       2.441   7.627  18.716  0.00  0.00    +0.000 C 
ATOM      3  O   UNL     1       2.961   7.744  17.618  0.00  0.00    +0.000 OA
ATOM      4  N   UNL     1       2.703   6.525  19.493  0.00  0.00    +0.000 N 
ATOM      5  H   UNL     1       3.386   5.909  19.072  0.00  0.00    +0.000 HD
BRANCH   4   6
ATOM      6  C   UNL     1       1.849   5.937  20.519  0.00  0.00    +0.000 C 
BRANCH   6   7
ATOM      7  C   UNL     1       2.151   4.484  20.873  0.00  0.00    +0.000 C 
BRANCH   7   8
ATOM      8  C   UNL     1       0.986   3.563  20.517  0.00  0.00    +0.000 C 
BRANCH   8   9
ATOM      9  C   UNL     1       1.403   2.430  19.583  0.00  0.00    +0.000 C 
BRANCH   9  10
ATOM     10  C   UNL     1       2.837   2.555  19.042  0.00  0.00    +0.000 C 
BRANCH  10  11
ATOM     11  C   UNL     1       2.882   2.983  17.578  0.00  0.00    +0.000 C 
BRANCH  11  12
ATOM     12  N   UNL     1       3.324   4.356  17.376  0.00  0.00    +0.000 NA
ATOM     13  C   UNL     1       4.522   4.505  16.939  0.00  0.00    +0.000 C 
ATOM     14  N   UNL     1       5.501   3.595  16.712  0.00  0.00    +0.000 N 
ATOM     15  N   UNL     1       4.943   5.746  16.617  0.00  0.00    +0.000 N 
ATOM     16  H   UNL     1       5.323   2.602  16.812  0.00  0.00    +0.000 HD
ATOM     17  H   UNL     1       6.299   3.837  16.149  0.00  0.00    +0.000 HD
ATOM     18  H   UNL     1       4.145   6.376  16.627  0.00  0.00    +0.000 HD
ATOM     19  H   UNL     1       5.452   5.835  15.762  0.00  0.00    +0.000 HD
ENDBRANCH  11  12
ENDBRANCH  10  11
ENDBRANCH   9  10
ENDBRANCH   8   9
ENDBRANCH   7   8
ENDBRANCH   6   7
ENDBRANCH   4   6
ENDBRANCH   1   2
BRANCH   1  20
ATOM     20  C   UNL     1       1.687   9.850  18.843  0.00  0.00    +0.000 C 
BRANCH  20  22
ATOM     21  N   UNL     1       0.121  11.770  18.777  0.00  0.00    +0.000 N 
ATOM     22  C   UNL     1       0.340  10.451  18.417  0.00  0.00    +0.000 C 
ATOM     23  O   UNL     1      -0.497   9.791  17.803  0.00  0.00    +0.000 OA
ATOM     24  H   UNL     1       0.825  12.250  19.330  0.00  0.00    +0.000 HD
BRANCH  21  25
ATOM     25  C   UNL     1      -1.168  12.395  18.524  0.00  0.00    +0.000 C 
BRANCH  25  26
ATOM     26  C   UNL     1      -2.272  12.004  19.510  0.00  0.00    +0.000 C 
BRANCH  26  27
ATOM     27  C   UNL     1      -2.216  12.718  20.854  0.00  0.00    +0.000 C 
BRANCH  27  28
ATOM     28  C   UNL     1      -0.815  13.051  21.351  0.00  0.00    +0.000 C 
BRANCH  28  29
ATOM     29  N   UNL     1      -0.074  12.039  22.123  0.00  0.00    +0.000 NA
ATOM     30  H   UNL     1       0.504  11.479  21.499  0.00  0.00    +0.000 HD
BRANCH  29  31
ATOM     31  C   UNL     1      -1.053  11.165  22.802  0.00  0.00    +0.000 C 
BRANCH  31  32
ATOM     32  C   UNL     1      -0.490   9.843  23.300  0.00  0.00    +0.000 C 
BRANCH  32  33
ATOM     33  C   UNL     1       0.288   9.124  22.185  0.00  0.00    +0.000 C 
BRANCH  33  34
ATOM     34  N   UNL     1       1.721   9.230  22.425  0.00  0.00    +0.000 NA
ATOM     35  H   UNL     1       1.916   9.962  23.106  0.00  0.00    +0.000 HD
ATOM     36  H   UNL     1       2.182   9.516  21.561  0.00  0.00    +0.000 HD
ENDBRANCH  33  34
ENDBRANCH  32  33
ENDBRANCH  31  32
ENDBRANCH  29  31
ENDBRANCH  28  29
ENDBRANCH  27  28
ENDBRANCH  26  27
ENDBRANCH  25  26
ENDBRANCH  21  25
ENDBRANCH  20  22
ENDBRANCH   1  20
TORSDOF 19
ENDMDL
MODEL 9
REMARK VINA RESULT:      -5.9      2.054     10.695
REMARK  Name = 
REMARK  19 active torsions:
REMARK  status: ('A' for Active; 'I' for Inactive)
REMARK    1  A    between atoms: N_1  and  C_2
REMARK    2  A    between atoms: C_2  and  C_3
REMARK    3  A    between atoms: C_3  and  C_4
REMARK    4  A    between atoms: C_4  and  N_5
REMARK    5  A    between atoms: N_5  and  C_6
REMARK    6  A    between atoms: C_6  and  C_7
REMARK    7  A    between atoms: C_7  and  C_8
REMARK    8  A    between atoms: C_8  and  C_9
REMARK    9  A    between atoms: C_9  and  N_10
REMARK   10  A    between atoms: C_11  and  C_13
REMARK   11  A    between atoms: C_13  and  O_14
REMARK   12  A    between atoms: O_14  and  C_15
REMARK   13  A    between atoms: N_17  and  C_18
REMARK   14  A    between atoms: C_18  and  C_19
REMARK   15  A    between atoms: C_19  and  C_20
REMARK   16  A    between atoms: C_20  and  C_21
REMARK   17  A    between atoms: C_21  and  C_22
REMARK   18  A    between atoms: C_22  and  C_23
REMARK   19  A    between atoms: C_23  and  N_24
REMARK                            x       y       z     vdW  Elec       q    Type
REMARK                         _______ _______ _______ _____ _____    ______ ____
ROOT
ATOM      1  O   UNL     1       6.776   7.298  17.900  0.00  0.00    +0.000 OA
ENDROOT
BRANCH   1   2
ATOM      2  C   UNL     1       6.611   6.418  16.895  0.00  0.00    +0.000 C 
ATOM      3  O   UNL     1       7.469   6.086  16.093  0.00  0.00    +0.000 OA
ATOM      4  N   UNL     1       5.339   5.906  16.799  0.00  0.00    +0.000 N 
ATOM      5  H   UNL     1       5.252   5.222  16.060  0.00  0.00    +0.000 HD
BRANCH   4   6
ATOM      6  C   UNL     1       4.098   6.517  17.262  0.00  0.00    +0.000 C 
BRANCH   6   7
ATOM      7  C   UNL     1       3.174   5.604  18.064  0.00  0.00    +0.000 C 
BRANCH   7   8
ATOM      8  C   UNL     1       3.420   5.733  19.565  0.00  0.00    +0.000 C 
BRANCH   8   9
ATOM      9  C   UNL     1       2.195   5.347  20.391  0.00  0.00    +0.000 C 
BRANCH   9  10
ATOM     10  C   UNL     1       1.415   4.143  19.836  0.00  0.00    +0.000 C 
BRANCH  10  11
ATOM     11  C   UNL     1       1.987   2.806  20.294  0.00  0.00    +0.000 C 
BRANCH  11  12
ATOM     12  N   UNL     1       2.391   1.929  19.202  0.00  0.00    +0.000 NA
ATOM     13  C   UNL     1       3.653   1.739  19.068  0.00  0.00    +0.000 C 
ATOM     14  N   UNL     1       4.705   2.292  19.720  0.00  0.00    +0.000 N 
ATOM     15  N   UNL     1       4.079   0.843  18.153  0.00  0.00    +0.000 N 
ATOM     16  H   UNL     1       4.562   2.917  20.505  0.00  0.00    +0.000 HD
ATOM     17  H   UNL     1       5.616   1.868  19.665  0.00  0.00    +0.000 HD
ATOM     18  H   UNL     1       3.277   0.321  17.808  0.00  0.00    +0.000 HD
ATOM     19  H   UNL     1       4.805   0.223  18.443  0.00  0.00    +0.000 HD
ENDBRANCH  11  12
ENDBRANCH  10  11
ENDBRANCH   9  10
ENDBRANCH   8   9
ENDBRANCH   7   8
ENDBRANCH   6   7
ENDBRANCH   4   6
ENDBRANCH   1   2
BRANCH   1  20
ATOM     20  C   UNL     1       8.123   7.587  18.262  0.00  0.00    +0.000 C 
BRANCH  20  22
ATOM     21  N   UNL     1       9.309   9.504  19.292  0.00  0.00    +0.000 N 
ATOM     22  C   UNL     1       8.405   9.094  18.326  0.00  0.00    +0.000 C 
ATOM     23  O   UNL     1       7.849   9.889  17.569  0.00  0.00    +0.000 OA
ATOM     24  H   UNL     1       9.696   8.811  19.925  0.00  0.00    +0.000 HD
BRANCH  21  25
ATOM     25  C   UNL     1       9.555  10.921  19.512  0.00  0.00    +0.000 C 
BRANCH  25  26
ATOM     26  C   UNL     1       9.033  11.462  20.845  0.00  0.00    +0.000 C 
BRANCH  26  27
ATOM     27  C   UNL     1       9.989  12.392  21.580  0.00  0.00    +0.000 C 
BRANCH  27  28
ATOM     28  C   UNL     1       9.824  13.872  21.262  0.00  0.00    +0.000 C 
BRANCH  28  29
ATOM     29  N   UNL     1      10.932  14.589  20.609  0.00  0.00    +0.000 NA
ATOM     30  H   UNL     1      10.957  15.557  20.925  0.00  0.00    +0.000 HD
BRANCH  29  31
ATOM     31  C   UNL     1      10.709  14.556  19.148  0.00  0.00    +0.000 C 
BRANCH  31  32
ATOM     32  C   UNL     1      11.806  13.869  18.351  0.00  0.00    +0.000 C 
BRANCH  32  33
ATOM     33  C   UNL     1      11.237  13.235  17.070  0.00  0.00    +0.000 C 
BRANCH  33  34
ATOM     34  N   UNL     1       9.798  13.449  17.000  0.00  0.00    +0.000 NA
ATOM     35  H   UNL     1       9.441  13.181  16.084  0.00  0.00    +0.000 HD
ATOM     36  H   UNL     1       9.605  14.446  17.099  0.00  0.00    +0.000 HD
ENDBRANCH  33  34
ENDBRANCH  32  33
ENDBRANCH  31  32
ENDBRANCH  29  31
ENDBRANCH  28  29
ENDBRANCH  27  28
ENDBRANCH  26  27
ENDBRANCH  25  26
ENDBRANCH  21  25
ENDBRANCH  20  22
ENDBRANCH   1  20
TORSDOF 19
ENDMDL
