MODEL 1
REMARK VINA RESULT:      -6.3      0.000      0.000
REMARK  Name = 
REMARK  6 active torsions:
REMARK  status: ('A' for Active; 'I' for Inactive)
REMARK    1  A    between atoms: C_1  and  O_2
REMARK    2  A    between atoms: O_2  and  C_3
REMARK    3  A    between atoms: C_5  and  O_6
REMARK    4  A    between atoms: O_6  and  C_7
REMARK    5  A    between atoms: C_10  and  C_11
REMARK    6  A    between atoms: C_16  and  C_17
REMARK                            x       y       z     vdW  Elec       q    Type
REMARK                         _______ _______ _______ _____ _____    ______ ____
ROOT
ATOM      1  C   UNL     1       3.522   2.730  20.129  0.00  0.00    +0.000 A 
ATOM      2  C   UNL     1       4.115   3.089  18.912  0.00  0.00    +0.000 A 
ATOM      3  C   UNL     1       3.341   3.612  17.874  0.00  0.00    +0.000 A 
ATOM      4  C   UNL     1       1.953   3.682  18.008  0.00  0.00    +0.000 A 
ATOM      5  C   UNL     1       1.352   3.330  19.219  0.00  0.00    +0.000 A 
ATOM      6  C   UNL     1       2.132   2.859  20.285  0.00  0.00    +0.000 A 
ENDROOT
BRANCH   1   8
ATOM      7  C   UNL     1       5.171   1.202  20.888  0.00  0.00    +0.000 C 
ATOM      8  O   UNL     1       4.221   2.216  21.191  0.00  0.00    +0.000 OA
ENDBRANCH   1   8
BRANCH   6   9
ATOM      9  C   UNL     1       1.489   2.560  21.531  0.00  0.00    +0.000 C 
ATOM     10  N   UNL     1       0.972   2.369  22.554  0.00  0.00    +0.000 NA
ENDBRANCH   6   9
BRANCH   3  11
ATOM     11  O   UNL     1       4.033   3.989  16.744  0.00  0.00    +0.000 OA
BRANCH  11  12
ATOM     12  C   UNL     1       5.019   4.945  16.844  0.00  0.00    +0.000 A 
ATOM     13  C   UNL     1       6.384   4.699  16.676  0.00  0.00    +0.000 A 
ATOM     14  C   UNL     1       7.312   5.720  16.893  0.00  0.00    +0.000 A 
ATOM     15  C   UNL     1       6.879   7.009  17.225  0.00  0.00    +0.000 A 
ATOM     16  C   UNL     1       7.867   8.097  17.523  0.00  0.00    +0.000 C 
ATOM     17  C   UNL     1       5.506   7.273  17.282  0.00  0.00    +0.000 A 
ATOM     18  C   UNL     1       4.580   6.245  17.095  0.00  0.00    +0.000 A 
ENDBRANCH  11  12
ENDBRANCH   3  11
TORSDOF 4
ENDMDL
MODEL 2
REMARK VINA RESULT:      -6.3      3.850      6.228
REMARK  Name = 
REMARK  6 active torsions:
REMARK  status: ('A' for Active; 'I' for Inactive)
REMARK    1  A    between atoms: C_1  and  O_2
REMARK    2  A    between atoms: O_2  and  C_3
REMARK    3  A    between atoms: C_5  and  O_6
REMARK    4  A    between atoms: O_6  and  C_7
REMARK    5  A    between atoms: C_10  and  C_11
REMARK    6  A    between atoms: C_16  and  C_17
REMARK                            x       y       z     vdW  Elec       q    Type
REMARK                         _______ _______ _______ _____ _____    ______ ____
ROOT
ATOM      1  C   UNL     1       6.701   5.757  16.589  0.00  0.00    +0.000 A 
ATOM      2  C   UNL     1       5.875   5.500  17.689  0.00  0.00    +0.000 A 
ATOM      3  C   UNL     1       4.846   4.559  17.599  0.00  0.00    +0.000 A 
ATOM      4  C   UNL     1       4.569   3.946  16.375  0.00  0.00    +0.000 A 
ATOM      5  C   UNL     1       5.391   4.193  15.272  0.00  0.00    +0.000 A 
ATOM      6  C   UNL     1       6.462   5.092  15.375  0.00  0.00    +0.000 A 
ENDROOT
BRANCH   1   8
ATOM      7  C   UNL     1       7.632   7.709  17.566  0.00  0.00    +0.000 C 
ATOM      8  O   UNL     1       7.731   6.662  16.609  0.00  0.00    +0.000 OA
ENDBRANCH   1   8
BRANCH   6   9
ATOM      9  C   UNL     1       7.317   5.279  14.239  0.00  0.00    +0.000 C 
ATOM     10  N   UNL     1       8.034   5.468  13.345  0.00  0.00    +0.000 NA
ENDBRANCH   6   9
BRANCH   3  11
ATOM     11  O   UNL     1       4.133   4.340  18.758  0.00  0.00    +0.000 OA
BRANCH  11  12
ATOM     12  C   UNL     1       3.291   5.324  19.228  0.00  0.00    +0.000 A 
ATOM     13  C   UNL     1       3.121   6.576  18.631  0.00  0.00    +0.000 A 
ATOM     14  C   UNL     1       2.314   7.539  19.240  0.00  0.00    +0.000 A 
ATOM     15  C   UNL     1       1.626   7.238  20.421  0.00  0.00    +0.000 A 
ATOM     16  C   UNL     1       0.807   8.283  21.119  0.00  0.00    +0.000 C 
ATOM     17  C   UNL     1       1.714   5.946  20.952  0.00  0.00    +0.000 A 
ATOM     18  C   UNL     1       2.545   4.993  20.359  0.00  0.00    +0.000 A 
ENDBRANCH  11  12
ENDBRANCH   3  11
TORSDOF 4
ENDMDL
MODEL 3
REMARK VINA RESULT:      -6.2      1.719      2.429
REMARK  Name = 
REMARK  6 active torsions:
REMARK  status: ('A' for Active; 'I' for Inactive)
REMARK    1  A    between atoms: C_1  and  O_2
REMARK    2  A    between atoms: O_2  and  C_3
REMARK    3  A    between atoms: C_5  and  O_6
REMARK    4  A    between atoms: O_6  and  C_7
REMARK    5  A    between atoms: C_10  and  C_11
REMARK    6  A    between atoms: C_16  and  C_17
REMARK                            x       y       z     vdW  Elec       q    Type
REMARK                         _______ _______ _______ _____ _____    ______ ____
ROOT
ATOM      1  C   UNL     1       2.788   4.605  20.123  0.00  0.00    +0.000 A 
ATOM      2  C   UNL     1       3.644   4.979  19.081  0.00  0.00    +0.000 A 
ATOM      3  C   UNL     1       4.478   4.036  18.476  0.00  0.00    +0.000 A 
ATOM      4  C   UNL     1       4.538   2.735  18.980  0.00  0.00    +0.000 A 
ATOM      5  C   UNL     1       3.685   2.351  20.017  0.00  0.00    +0.000 A 
ATOM      6  C   UNL     1       2.803   3.280  20.589  0.00  0.00    +0.000 A 
ENDROOT
BRANCH   1   8
ATOM      7  C   UNL     1       1.929   6.812  20.271  0.00  0.00    +0.000 C 
ATOM      8  O   UNL     1       1.939   5.476  20.757  0.00  0.00    +0.000 OA
ENDBRANCH   1   8
BRANCH   6   9
ATOM      9  C   UNL     1       1.903   2.836  21.613  0.00  0.00    +0.000 C 
ATOM     10  N   UNL     1       1.149   2.523  22.440  0.00  0.00    +0.000 NA
ENDBRANCH   6   9
BRANCH   3  11
ATOM     11  O   UNL     1       5.235   4.496  17.420  0.00  0.00    +0.000 OA
BRANCH  11  12
ATOM     12  C   UNL     1       6.138   5.514  17.632  0.00  0.00    +0.000 A 
ATOM     13  C   UNL     1       7.218   5.447  18.515  0.00  0.00    +0.000 A 
ATOM     14  C   UNL     1       8.022   6.569  18.728  0.00  0.00    +0.000 A 
ATOM     15  C   UNL     1       7.784   7.751  18.017  0.00  0.00    +0.000 A 
ATOM     16  C   UNL     1       8.599   8.982  18.283  0.00  0.00    +0.000 C 
ATOM     17  C   UNL     1       6.770   7.775  17.053  0.00  0.00    +0.000 A 
ATOM     18  C   UNL     1       5.949   6.663  16.863  0.00  0.00    +0.000 A 
ENDBRANCH  11  12
ENDBRANCH   3  11
TORSDOF 4
ENDMDL
MODEL 4
REMARK VINA RESULT:      -6.2      5.660      7.353
REMARK  Name = 
REMARK  6 active torsions:
REMARK  status: ('A' for Active; 'I' for Inactive)
REMARK    1  A    between atoms: C_1  and  O_2
REMARK    2  A    between atoms: O_2  and  C_3
REMARK    3  A    between atoms: C_5  and  O_6
REMARK    4  A    between atoms: O_6  and  C_7
REMARK    5  A    between atoms: C_10  and  C_11
REMARK    6  A    between atoms: C_16  and  C_17
REMARK                            x       y       z     vdW  Elec       q    Type
REMARK                         _______ _______ _______ _____ _____    ______ ____
ROOT
ATOM      1  C   UNL     1       0.182   9.957  20.768  0.00  0.00    +0.000 A 
ATOM      2  C   UNL     1       1.092   8.893  20.785  0.00  0.00    +0.000 A 
ATOM      3  C   UNL     1       1.685   8.448  19.602  0.00  0.00    +0.000 A 
ATOM      4  C   UNL     1       1.293   8.995  18.378  0.00  0.00    +0.000 A 
ATOM      5  C   UNL     1       0.389  10.060  18.350  0.00  0.00    +0.000 A 
ATOM      6  C   UNL     1      -0.165  10.549  19.542  0.00  0.00    +0.000 A 
ENDROOT
BRANCH   1   8
ATOM      7  C   UNL     1      -0.465   9.584  23.020  0.00  0.00    +0.000 C 
ATOM      8  O   UNL     1      -0.433  10.448  21.891  0.00  0.00    +0.000 OA
ENDBRANCH   1   8
BRANCH   6   9
ATOM      9  C   UNL     1      -1.047  11.678  19.480  0.00  0.00    +0.000 C 
ATOM     10  N   UNL     1      -1.784  12.572  19.387  0.00  0.00    +0.000 NA
ENDBRANCH   6   9
BRANCH   3  11
ATOM     11  O   UNL     1       2.611   7.437  19.740  0.00  0.00    +0.000 OA
BRANCH  11  12
ATOM     12  C   UNL     1       2.247   6.144  19.437  0.00  0.00    +0.000 A 
ATOM     13  C   UNL     1       2.355   5.564  18.171  0.00  0.00    +0.000 A 
ATOM     14  C   UNL     1       1.870   4.274  17.946  0.00  0.00    +0.000 A 
ATOM     15  C   UNL     1       1.322   3.533  18.999  0.00  0.00    +0.000 A 
ATOM     16  C   UNL     1       0.739   2.172  18.758  0.00  0.00    +0.000 C 
ATOM     17  C   UNL     1       1.319   4.079  20.288  0.00  0.00    +0.000 A 
ATOM     18  C   UNL     1       1.777   5.379  20.506  0.00  0.00    +0.000 A 
ENDBRANCH  11  12
ENDBRANCH   3  11
TORSDOF 4
ENDMDL
MODEL 5
REMARK VINA RESULT:      -6.2      3.929      4.978
REMARK  Name = 
REMARK  6 active torsions:
REMARK  status: ('A' for Active; 'I' for Inactive)
REMARK    1  A    between atoms: C_1  and  O_2
REMARK    2  A    between atoms: O_2  and  C_3
REMARK    3  A    between atoms: C_5  and  O_6
REMARK    4  A    between atoms: O_6  and  C_7
REMARK    5  A    between atoms: C_10  and  C_11
REMARK    6  A    between atoms: C_16  and  C_17
REMARK                            x       y       z     vdW  Elec       q    Type
REMARK                         _______ _______ _______ _____ _____    ______ ____
ROOT
ATOM      1  C   UNL     1       5.019   4.753  18.888  0.00  0.00    +0.000 A 
ATOM      2  C   UNL     1       4.521   5.938  18.335  0.00  0.00    +0.000 A 
ATOM      3  C   UNL     1       3.144   6.134  18.201  0.00  0.00    +0.000 A 
ATOM      4  C   UNL     1       2.260   5.101  18.521  0.00  0.00    +0.000 A 
ATOM      5  C   UNL     1       2.748   3.916  19.077  0.00  0.00    +0.000 A 
ATOM      6  C   UNL     1       4.126   3.738  19.268  0.00  0.00    +0.000 A 
ENDROOT
BRANCH   1   8
ATOM      7  C   UNL     1       7.194   4.775  17.939  0.00  0.00    +0.000 C 
ATOM      8  O   UNL     1       6.356   4.497  19.054  0.00  0.00    +0.000 OA
ENDBRANCH   1   8
BRANCH   6   9
ATOM      9  C   UNL     1       4.585   2.532  19.892  0.00  0.00    +0.000 C 
ATOM     10  N   UNL     1       4.976   1.538  20.351  0.00  0.00    +0.000 NA
ENDBRANCH   6   9
BRANCH   3  11
ATOM     11  O   UNL     1       2.760   7.360  17.702  0.00  0.00    +0.000 OA
BRANCH  11  12
ATOM     12  C   UNL     1       2.059   8.226  18.510  0.00  0.00    +0.000 A 
ATOM     13  C   UNL     1       1.870   8.055  19.884  0.00  0.00    +0.000 A 
ATOM     14  C   UNL     1       1.062   8.943  20.597  0.00  0.00    +0.000 A 
ATOM     15  C   UNL     1       0.481  10.041  19.952  0.00  0.00    +0.000 A 
ATOM     16  C   UNL     1      -0.440  10.966  20.691  0.00  0.00    +0.000 C 
ATOM     17  C   UNL     1       0.765  10.268  18.601  0.00  0.00    +0.000 A 
ATOM     18  C   UNL     1       1.549   9.363  17.882  0.00  0.00    +0.000 A 
ENDBRANCH  11  12
ENDBRANCH   3  11
TORSDOF 4
ENDMDL
MODEL 6
REMARK VINA RESULT:      -6.2      5.517      7.301
REMARK  Name = 
REMARK  6 active torsions:
REMARK  status: ('A' for Active; 'I' for Inactive)
REMARK    1  A    between atoms: C_1  and  O_2
REMARK    2  A    between atoms: O_2  and  C_3
REMARK    3  A    between atoms: C_5  and  O_6
REMARK    4  A    between atoms: O_6  and  C_7
REMARK    5  A    between atoms: C_10  and  C_11
REMARK    6  A    between atoms: C_16  and  C_17
REMARK                            x       y       z     vdW  Elec       q    Type
REMARK                         _______ _______ _______ _____ _____    ______ ____
ROOT
ATOM      1  C   UNL     1       0.210   9.707  20.735  0.00  0.00    +0.000 A 
ATOM      2  C   UNL     1       1.068   8.601  20.739  0.00  0.00    +0.000 A 
ATOM      3  C   UNL     1       1.807   8.274  19.599  0.00  0.00    +0.000 A 
ATOM      4  C   UNL     1       1.613   8.987  18.415  0.00  0.00    +0.000 A 
ATOM      5  C   UNL     1       0.762  10.095  18.402  0.00  0.00    +0.000 A 
ATOM      6  C   UNL     1       0.062  10.463  19.561  0.00  0.00    +0.000 A 
ENDROOT
BRANCH   1   8
ATOM      7  C   UNL     1      -0.121   9.590  23.082  0.00  0.00    +0.000 C 
ATOM      8  O   UNL     1      -0.540  10.088  21.818  0.00  0.00    +0.000 OA
ENDBRANCH   1   8
BRANCH   6   9
ATOM      9  C   UNL     1      -0.759  11.638  19.526  0.00  0.00    +0.000 C 
ATOM     10  N   UNL     1      -1.467  12.559  19.506  0.00  0.00    +0.000 NA
ENDBRANCH   6   9
BRANCH   3  11
ATOM     11  O   UNL     1       2.666   7.204  19.731  0.00  0.00    +0.000 OA
BRANCH  11  12
ATOM     12  C   UNL     1       2.183   5.926  19.555  0.00  0.00    +0.000 A 
ATOM     13  C   UNL     1       1.654   5.129  20.573  0.00  0.00    +0.000 A 
ATOM     14  C   UNL     1       1.277   3.811  20.308  0.00  0.00    +0.000 A 
ATOM     15  C   UNL     1       1.376   3.297  19.010  0.00  0.00    +0.000 A 
ATOM     16  C   UNL     1       1.035   1.865  18.724  0.00  0.00    +0.000 C 
ATOM     17  C   UNL     1       1.802   4.136  17.974  0.00  0.00    +0.000 A 
ATOM     18  C   UNL     1       2.206   5.445  18.245  0.00  0.00    +0.000 A 
ENDBRANCH  11  12
ENDBRANCH   3  11
TORSDOF 4
ENDMDL
MODEL 7
REMARK VINA RESULT:      -6.1      4.249      6.238
REMARK  Name = 
REMARK  6 active torsions:
REMARK  status: ('A' for Active; 'I' for Inactive)
REMARK    1  A    between atoms: C_1  and  O_2
REMARK    2  A    between atoms: O_2  and  C_3
REMARK    3  A    between atoms: C_5  and  O_6
REMARK    4  A    between atoms: O_6  and  C_7
REMARK    5  A    between atoms: C_10  and  C_11
REMARK    6  A    between atoms: C_16  and  C_17
REMARK                            x       y       z     vdW  Elec       q    Type
REMARK                         _______ _______ _______ _____ _____    ______ ____
ROOT
ATOM      1  C   UNL     1       5.974   6.489  16.920  0.00  0.00    +0.000 A 
ATOM      2  C   UNL     1       5.030   6.754  17.918  0.00  0.00    +0.000 A 
ATOM      3  C   UNL     1       3.991   5.855  18.168  0.00  0.00    +0.000 A 
ATOM      4  C   UNL     1       3.828   4.735  17.350  0.00  0.00    +0.000 A 
ATOM      5  C   UNL     1       4.768   4.459  16.354  0.00  0.00    +0.000 A 
ATOM      6  C   UNL     1       5.846   5.329  16.138  0.00  0.00    +0.000 A 
ENDROOT
BRANCH   1   8
ATOM      7  C   UNL     1       7.766   7.816  17.732  0.00  0.00    +0.000 C 
ATOM      8  O   UNL     1       7.021   7.323  16.625  0.00  0.00    +0.000 OA
ENDBRANCH   1   8
BRANCH   6   9
ATOM      9  C   UNL     1       6.821   4.985  15.145  0.00  0.00    +0.000 C 
ATOM     10  N   UNL     1       7.592   4.745  14.309  0.00  0.00    +0.000 NA
ENDBRANCH   6   9
BRANCH   3  11
ATOM     11  O   UNL     1       3.153   6.184  19.213  0.00  0.00    +0.000 OA
BRANCH  11  12
ATOM     12  C   UNL     1       2.383   7.322  19.126  0.00  0.00    +0.000 A 
ATOM     13  C   UNL     1       2.117   8.013  17.941  0.00  0.00    +0.000 A 
ATOM     14  C   UNL     1       1.401   9.211  17.974  0.00  0.00    +0.000 A 
ATOM     15  C   UNL     1       0.897   9.699  19.185  0.00  0.00    +0.000 A 
ATOM     16  C   UNL     1       0.182  11.016  19.244  0.00  0.00    +0.000 C 
ATOM     17  C   UNL     1       1.072   8.943  20.350  0.00  0.00    +0.000 A 
ATOM     18  C   UNL     1       1.813   7.761  20.322  0.00  0.00    +0.000 A 
ENDBRANCH  11  12
ENDBRANCH   3  11
TORSDOF 4
ENDMDL
MODEL 8
REMARK VINA RESULT:      -6.1      1.908      2.706
REMARK  Name = 
REMARK  6 active torsions:
REMARK  status: ('A' for Active; 'I' for Inactive)
REMARK    1  A    between atoms: C_1  and  O_2
REMARK    2  A    between atoms: O_2  and  C_3
REMARK    3  A    between atoms: C_5  and  O_6
REMARK    4  A    between atoms: O_6  and  C_7
REMARK    5  A    between atoms: C_10  and  C_11
REMARK    6  A    between atoms: C_16  and  C_17
REMARK                            x       y       z     vdW  Elec       q    Type
REMARK                         _______ _______ _______ _____ _____    ______ ____
ROOT
ATOM      1  C   UNL     1       3.824   3.231  19.789  0.00  0.00    +0.000 A 
ATOM      2  C   UNL     1       4.691   4.021  19.025  0.00  0.00    +0.000 A 
ATOM      3  C   UNL     1       4.548   5.410  19.002  0.00  0.00    +0.000 A 
ATOM      4  C   UNL     1       3.471   6.011  19.658  0.00  0.00    +0.000 A 
ATOM      5  C   UNL     1       2.603   5.231  20.426  0.00  0.00    +0.000 A 
ATOM      6  C   UNL     1       2.778   3.842  20.501  0.00  0.00    +0.000 A 
ENDROOT
BRANCH   1   8
ATOM      7  C   UNL     1       3.739   1.155  18.642  0.00  0.00    +0.000 C 
ATOM      8  O   UNL     1       3.910   1.864  19.863  0.00  0.00    +0.000 OA
ENDBRANCH   1   8
BRANCH   6   9
ATOM      9  C   UNL     1       1.902   3.081  21.343  0.00  0.00    +0.000 C 
ATOM     10  N   UNL     1       1.219   2.481  22.067  0.00  0.00    +0.000 NA
ENDBRANCH   6   9
BRANCH   3  11
ATOM     11  O   UNL     1       5.491   6.096  18.267  0.00  0.00    +0.000 OA
BRANCH  11  12
ATOM     12  C   UNL     1       5.766   5.692  16.979  0.00  0.00    +0.000 A 
ATOM     13  C   UNL     1       5.019   6.055  15.856  0.00  0.00    +0.000 A 
ATOM     14  C   UNL     1       5.326   5.516  14.605  0.00  0.00    +0.000 A 
ATOM     15  C   UNL     1       6.417   4.651  14.458  0.00  0.00    +0.000 A 
ATOM     16  C   UNL     1       6.718   4.015  13.135  0.00  0.00    +0.000 C 
ATOM     17  C   UNL     1       7.227   4.381  15.567  0.00  0.00    +0.000 A 
ATOM     18  C   UNL     1       6.902   4.897  16.823  0.00  0.00    +0.000 A 
ENDBRANCH  11  12
ENDBRANCH   3  11
TORSDOF 4
ENDMDL
MODEL 9
REMARK VINA RESULT:      -6.1      4.217      5.582
REMARK  Name = 
REMARK  6 active torsions:
REMARK  status: ('A' for Active; 'I' for Inactive)
REMARK    1  A    between atoms: C_1  and  O_2
REMARK    2  A    between atoms: O_2  and  C_3
REMARK    3  A    between atoms: C_5  and  O_6
REMARK    4  A    between atoms: O_6  and  C_7
REMARK    5  A    between atoms: C_10  and  C_11
REMARK    6  A    between atoms: C_16  and  C_17
REMARK                            x       y       z     vdW  Elec       q    Type
REMARK                         _______ _______ _______ _____ _____    ______ ____
ROOT
ATOM      1  C   UNL     1       5.030   4.662  18.689  0.00  0.00    +0.000 A 
ATOM      2  C   UNL     1       3.756   5.242  18.682  0.00  0.00    +0.000 A 
ATOM      3  C   UNL     1       3.493   6.365  17.894  0.00  0.00    +0.000 A 
ATOM      4  C   UNL     1       4.531   6.979  17.189  0.00  0.00    +0.000 A 
ATOM      5  C   UNL     1       5.805   6.405  17.186  0.00  0.00    +0.000 A 
ATOM      6  C   UNL     1       6.059   5.243  17.929  0.00  0.00    +0.000 A 
ENDROOT
BRANCH   1   8
ATOM      7  C   UNL     1       4.296   2.652  19.717  0.00  0.00    +0.000 C 
ATOM      8  O   UNL     1       5.357   3.557  19.433  0.00  0.00    +0.000 OA
ENDBRANCH   1   8
BRANCH   6   9
ATOM      9  C   UNL     1       7.363   4.651  17.859  0.00  0.00    +0.000 C 
ATOM     10  N   UNL     1       8.439   4.215  17.825  0.00  0.00    +0.000 NA
ENDBRANCH   6   9
BRANCH   3  11
ATOM     11  O   UNL     1       2.192   6.818  17.915  0.00  0.00    +0.000 OA
BRANCH  11  12
ATOM     12  C   UNL     1       1.847   7.837  18.774  0.00  0.00    +0.000 A 
ATOM     13  C   UNL     1       1.782   7.717  20.165  0.00  0.00    +0.000 A 
ATOM     14  C   UNL     1       1.330   8.786  20.941  0.00  0.00    +0.000 A 
ATOM     15  C   UNL     1       0.991  10.002  20.338  0.00  0.00    +0.000 A 
ATOM     16  C   UNL     1       0.444  11.136  21.152  0.00  0.00    +0.000 C 
ATOM     17  C   UNL     1       1.165  10.150  18.957  0.00  0.00    +0.000 A 
ATOM     18  C   UNL     1       1.589   9.072  18.178  0.00  0.00    +0.000 A 
ENDBRANCH  11  12
ENDBRANCH   3  11
TORSDOF 4
ENDMDL
