MODEL 1
REMARK VINA RESULT:      -8.0      0.000      0.000
REMARK  Name = 
REMARK  5 active torsions:
REMARK  status: ('A' for Active; 'I' for Inactive)
REMARK    1  A    between atoms: C_1  and  C_2
REMARK    2  A    between atoms: C_2  and  C_3
REMARK    3  A    between atoms: C_3  and  C_5
REMARK    4  A    between atoms: C_10  and  N_11
REMARK    5  A    between atoms: C_12  and  C_14
REMARK                            x       y       z     vdW  Elec       q    Type
REMARK                         _______ _______ _______ _____ _____    ______ ____
ROOT
ATOM      1  C   UNL     1       6.637   5.015  17.012  0.00  0.00    +0.000 A 
ATOM      2  C   UNL     1       7.476   5.346  15.931  0.00  0.00    +0.000 A 
ATOM      3  C   UNL     1       7.178   4.919  14.642  0.00  0.00    +0.000 A 
ATOM      4  C   UNL     1       6.065   4.120  14.416  0.00  0.00    +0.000 A 
ATOM      5  C   UNL     1       5.223   3.781  15.472  0.00  0.00    +0.000 A 
ATOM      6  C   UNL     1       5.481   4.220  16.782  0.00  0.00    +0.000 A 
ATOM      7  O   UNL     1       5.722   3.639  13.179  0.00  0.00    +0.000 OA
ATOM      8  C   UNL     1       6.799   3.771  12.246  0.00  0.00    +0.000 C 
ATOM      9  C   UNL     1       7.436   5.147  12.356  0.00  0.00    +0.000 C 
ATOM     10  O   UNL     1       8.030   5.324  13.648  0.00  0.00    +0.000 OA
ENDROOT
BRANCH   6  11
ATOM     11  N   UNL     1       4.616   3.874  17.856  0.00  0.00    +0.000 N 
ATOM     12  C   UNL     1       3.399   4.448  18.204  0.00  0.00    +0.000 C 
ATOM     13  O   UNL     1       2.888   5.395  17.613  0.00  0.00    +0.000 OA
ATOM     14  H   UNL     1       4.943   3.111  18.454  0.00  0.00    +0.000 HD
BRANCH  12  15
ATOM     15  C   UNL     1       2.720   3.856  19.356  0.00  0.00    +0.000 A 
ATOM     16  C   UNL     1       1.410   4.096  19.744  0.00  0.00    +0.000 A 
ATOM     17  C   UNL     1       1.033   3.362  20.902  0.00  0.00    +0.000 A 
ATOM     18  C   UNL     1       2.067   2.584  21.368  0.00  0.00    +0.000 A 
ATOM     19  S   UNL     1       3.476   2.742  20.413  0.00  0.00    +0.000 S 
ENDBRANCH  12  15
ENDBRANCH   6  11
BRANCH   1  20
ATOM     20  C   UNL     1       6.993   5.536  18.381  0.00  0.00    +0.000 C 
ATOM     21  O   UNL     1       6.511   5.000  19.379  0.00  0.00    +0.000 OA
BRANCH  20  23
ATOM     22  C   UNL     1       7.515   7.947  17.712  0.00  0.00    +0.000 C 
ATOM     23  C   UNL     1       7.959   6.715  18.482  0.00  0.00    +0.000 C 
ENDBRANCH  20  23
ENDBRANCH   1  20
TORSDOF 4
ENDMDL
MODEL 2
REMARK VINA RESULT:      -7.8      1.125      1.236
REMARK  Name = 
REMARK  5 active torsions:
REMARK  status: ('A' for Active; 'I' for Inactive)
REMARK    1  A    between atoms: C_1  and  C_2
REMARK    2  A    between atoms: C_2  and  C_3
REMARK    3  A    between atoms: C_3  and  C_5
REMARK    4  A    between atoms: C_10  and  N_11
REMARK    5  A    between atoms: C_12  and  C_14
REMARK                            x       y       z     vdW  Elec       q    Type
REMARK                         _______ _______ _______ _____ _____    ______ ____
ROOT
ATOM      1  C   UNL     1       6.550   4.969  17.096  0.00  0.00    +0.000 A 
ATOM      2  C   UNL     1       7.442   5.213  16.034  0.00  0.00    +0.000 A 
ATOM      3  C   UNL     1       7.118   4.844  14.734  0.00  0.00    +0.000 A 
ATOM      4  C   UNL     1       5.922   4.188  14.477  0.00  0.00    +0.000 A 
ATOM      5  C   UNL     1       5.027   3.937  15.514  0.00  0.00    +0.000 A 
ATOM      6  C   UNL     1       5.312   4.322  16.834  0.00  0.00    +0.000 A 
ATOM      7  O   UNL     1       5.546   3.770  13.227  0.00  0.00    +0.000 OA
ATOM      8  C   UNL     1       6.647   3.785  12.313  0.00  0.00    +0.000 C 
ATOM      9  C   UNL     1       7.442   5.073  12.456  0.00  0.00    +0.000 C 
ATOM     10  O   UNL     1       8.030   5.158  13.761  0.00  0.00    +0.000 OA
ENDROOT
BRANCH   6  11
ATOM     11  N   UNL     1       4.393   4.067  17.889  0.00  0.00    +0.000 N 
ATOM     12  C   UNL     1       3.762   2.872  18.215  0.00  0.00    +0.000 C 
ATOM     13  O   UNL     1       3.904   1.824  17.591  0.00  0.00    +0.000 OA
ATOM     14  H   UNL     1       4.161   4.874  18.473  0.00  0.00    +0.000 HD
BRANCH  12  15
ATOM     15  C   UNL     1       2.881   2.913  19.381  0.00  0.00    +0.000 A 
ATOM     16  C   UNL     1       3.285   2.987  20.706  0.00  0.00    +0.000 A 
ATOM     17  C   UNL     1       2.192   3.022  21.616  0.00  0.00    +0.000 A 
ATOM     18  C   UNL     1       0.984   2.971  20.959  0.00  0.00    +0.000 A 
ATOM     19  S   UNL     1       1.174   2.882  19.263  0.00  0.00    +0.000 S 
ENDBRANCH  12  15
ENDBRANCH   6  11
BRANCH   1  20
ATOM     20  C   UNL     1       6.942   5.423  18.479  0.00  0.00    +0.000 C 
ATOM     21  O   UNL     1       6.476   4.848  19.462  0.00  0.00    +0.000 OA
BRANCH  20  23
ATOM     22  C   UNL     1       7.576   7.791  17.754  0.00  0.00    +0.000 C 
ATOM     23  C   UNL     1       7.923   6.587  18.612  0.00  0.00    +0.000 C 
ENDBRANCH  20  23
ENDBRANCH   1  20
TORSDOF 4
ENDMDL
MODEL 3
REMARK VINA RESULT:      -7.7      4.143      5.657
REMARK  Name = 
REMARK  5 active torsions:
REMARK  status: ('A' for Active; 'I' for Inactive)
REMARK    1  A    between atoms: C_1  and  C_2
REMARK    2  A    between atoms: C_2  and  C_3
REMARK    3  A    between atoms: C_3  and  C_5
REMARK    4  A    between atoms: C_10  and  N_11
REMARK    5  A    between atoms: C_12  and  C_14
REMARK                            x       y       z     vdW  Elec       q    Type
REMARK                         _______ _______ _______ _____ _____    ______ ____
ROOT
ATOM      1  C   UNL     1       2.818   5.417  18.817  0.00  0.00    +0.000 A 
ATOM      2  C   UNL     1       3.548   4.407  18.163  0.00  0.00    +0.000 A 
ATOM      3  C   UNL     1       4.463   4.721  17.164  0.00  0.00    +0.000 A 
ATOM      4  C   UNL     1       4.632   6.043  16.771  0.00  0.00    +0.000 A 
ATOM      5  C   UNL     1       3.918   7.057  17.405  0.00  0.00    +0.000 A 
ATOM      6  C   UNL     1       3.008   6.774  18.437  0.00  0.00    +0.000 A 
ATOM      7  O   UNL     1       5.493   6.428  15.777  0.00  0.00    +0.000 OA
ATOM      8  C   UNL     1       5.924   5.311  14.991  0.00  0.00    +0.000 C 
ATOM      9  C   UNL     1       6.300   4.142  15.887  0.00  0.00    +0.000 C 
ATOM     10  O   UNL     1       5.156   3.676  16.613  0.00  0.00    +0.000 OA
ENDROOT
BRANCH   6  11
ATOM     11  N   UNL     1       2.285   7.813  19.084  0.00  0.00    +0.000 N 
ATOM     12  C   UNL     1       1.729   8.958  18.524  0.00  0.00    +0.000 C 
ATOM     13  O   UNL     1       1.811   9.253  17.335  0.00  0.00    +0.000 OA
ATOM     14  H   UNL     1       2.171   7.704  20.095  0.00  0.00    +0.000 HD
BRANCH  12  15
ATOM     15  C   UNL     1       1.015   9.838  19.447  0.00  0.00    +0.000 A 
ATOM     16  C   UNL     1       0.551   9.493  20.708  0.00  0.00    +0.000 A 
ATOM     17  C   UNL     1      -0.097  10.571  21.372  0.00  0.00    +0.000 A 
ATOM     18  C   UNL     1      -0.114  11.707  20.598  0.00  0.00    +0.000 A 
ATOM     19  S   UNL     1       0.647  11.470  19.086  0.00  0.00    +0.000 S 
ENDBRANCH  12  15
ENDBRANCH   6  11
BRANCH   1  20
ATOM     20  C   UNL     1       1.867   5.016  19.916  0.00  0.00    +0.000 C 
ATOM     21  O   UNL     1       1.700   5.766  20.877  0.00  0.00    +0.000 OA
BRANCH  20  23
ATOM     22  C   UNL     1       1.263   2.785  21.007  0.00  0.00    +0.000 C 
ATOM     23  C   UNL     1       1.129   3.685  19.790  0.00  0.00    +0.000 C 
ENDBRANCH  20  23
ENDBRANCH   1  20
TORSDOF 4
ENDMDL
MODEL 4
REMARK VINA RESULT:      -7.6      3.603      5.161
REMARK  Name = 
REMARK  5 active torsions:
REMARK  status: ('A' for Active; 'I' for Inactive)
REMARK    1  A    between atoms: C_1  and  C_2
REMARK    2  A    between atoms: C_2  and  C_3
REMARK    3  A    between atoms: C_3  and  C_5
REMARK    4  A    between atoms: C_10  and  N_11
REMARK    5  A    between atoms: C_12  and  C_14
REMARK                            x       y       z     vdW  Elec       q    Type
REMARK                         _______ _______ _______ _____ _____    ______ ____
ROOT
ATOM      1  C   UNL     1       2.933   4.863  17.937  0.00  0.00    +0.000 A 
ATOM      2  C   UNL     1       3.719   3.994  17.157  0.00  0.00    +0.000 A 
ATOM      3  C   UNL     1       4.874   4.447  16.530  0.00  0.00    +0.000 A 
ATOM      4  C   UNL     1       5.240   5.782  16.633  0.00  0.00    +0.000 A 
ATOM      5  C   UNL     1       4.476   6.659  17.400  0.00  0.00    +0.000 A 
ATOM      6  C   UNL     1       3.319   6.225  18.069  0.00  0.00    +0.000 A 
ATOM      7  O   UNL     1       6.348   6.308  16.022  0.00  0.00    +0.000 OA
ATOM      8  C   UNL     1       6.869   5.424  15.024  0.00  0.00    +0.000 C 
ATOM      9  C   UNL     1       6.917   3.998  15.547  0.00  0.00    +0.000 C 
ATOM     10  O   UNL     1       5.595   3.519  15.825  0.00  0.00    +0.000 OA
ENDROOT
BRANCH   6  11
ATOM     11  N   UNL     1       2.544   7.123  18.853  0.00  0.00    +0.000 N 
ATOM     12  C   UNL     1       2.021   8.359  18.488  0.00  0.00    +0.000 C 
ATOM     13  O   UNL     1       2.183   8.879  17.389  0.00  0.00    +0.000 OA
ATOM     14  H   UNL     1       2.361   6.820  19.813  0.00  0.00    +0.000 HD
BRANCH  12  15
ATOM     15  C   UNL     1       1.237   9.046  19.513  0.00  0.00    +0.000 A 
ATOM     16  C   UNL     1       1.033   8.610  20.814  0.00  0.00    +0.000 A 
ATOM     17  C   UNL     1       0.232   9.504  21.578  0.00  0.00    +0.000 A 
ATOM     18  C   UNL     1      -0.157  10.595  20.836  0.00  0.00    +0.000 A 
ATOM     19  S   UNL     1       0.442  10.537  19.237  0.00  0.00    +0.000 S 
ENDBRANCH  12  15
ENDBRANCH   6  11
BRANCH   1  20
ATOM     20  C   UNL     1       1.711   4.306  18.621  0.00  0.00    +0.000 C 
ATOM     21  O   UNL     1       0.840   3.752  17.950  0.00  0.00    +0.000 OA
BRANCH  20  23
ATOM     22  C   UNL     1       1.251   3.143  20.850  0.00  0.00    +0.000 C 
ATOM     23  C   UNL     1       1.601   4.439  20.138  0.00  0.00    +0.000 C 
ENDBRANCH  20  23
ENDBRANCH   1  20
TORSDOF 4
ENDMDL
MODEL 5
REMARK VINA RESULT:      -7.5      2.460      6.402
REMARK  Name = 
REMARK  5 active torsions:
REMARK  status: ('A' for Active; 'I' for Inactive)
REMARK    1  A    between atoms: C_1  and  C_2
REMARK    2  A    between atoms: C_2  and  C_3
REMARK    3  A    between atoms: C_3  and  C_5
REMARK    4  A    between atoms: C_10  and  N_11
REMARK    5  A    between atoms: C_12  and  C_14
REMARK                            x       y       z     vdW  Elec       q    Type
REMARK                         _______ _______ _______ _____ _____    ______ ____
ROOT
ATOM      1  C   UNL     1       5.488   4.546  18.328  0.00  0.00    +0.000 A 
ATOM      2  C   UNL     1       4.896   4.678  19.599  0.00  0.00    +0.000 A 
ATOM      3  C   UNL     1       3.560   4.347  19.800  0.00  0.00    +0.000 A 
ATOM      4  C   UNL     1       2.783   3.922  18.731  0.00  0.00    +0.000 A 
ATOM      5  C   UNL     1       3.350   3.785  17.467  0.00  0.00    +0.000 A 
ATOM      6  C   UNL     1       4.703   4.085  17.236  0.00  0.00    +0.000 A 
ATOM      7  O   UNL     1       1.455   3.604  18.846  0.00  0.00    +0.000 OA
ATOM      8  C   UNL     1       0.905   4.075  20.081  0.00  0.00    +0.000 C 
ATOM      9  C   UNL     1       1.844   3.766  21.236  0.00  0.00    +0.000 C 
ATOM     10  O   UNL     1       3.083   4.470  21.079  0.00  0.00    +0.000 OA
ENDROOT
BRANCH   6  11
ATOM     11  N   UNL     1       5.278   3.940  15.945  0.00  0.00    +0.000 N 
ATOM     12  C   UNL     1       5.561   4.929  15.009  0.00  0.00    +0.000 C 
ATOM     13  O   UNL     1       5.321   6.122  15.172  0.00  0.00    +0.000 OA
ATOM     14  H   UNL     1       5.499   2.981  15.668  0.00  0.00    +0.000 HD
BRANCH  12  15
ATOM     15  C   UNL     1       6.182   4.473  13.766  0.00  0.00    +0.000 A 
ATOM     16  C   UNL     1       5.706   3.466  12.939  0.00  0.00    +0.000 A 
ATOM     17  C   UNL     1       6.524   3.258  11.794  0.00  0.00    +0.000 A 
ATOM     18  C   UNL     1       7.605   4.109  11.782  0.00  0.00    +0.000 A 
ATOM     19  S   UNL     1       7.625   5.147  13.140  0.00  0.00    +0.000 S 
ENDBRANCH  12  15
ENDBRANCH   6  11
BRANCH   1  20
ATOM     20  C   UNL     1       6.948   4.888  18.180  0.00  0.00    +0.000 C 
ATOM     21  O   UNL     1       7.713   4.073  17.665  0.00  0.00    +0.000 OA
BRANCH  20  23
ATOM     22  C   UNL     1       7.543   7.299  17.575  0.00  0.00    +0.000 C 
ATOM     23  C   UNL     1       7.430   6.253  18.670  0.00  0.00    +0.000 C 
ENDBRANCH  20  23
ENDBRANCH   1  20
TORSDOF 4
ENDMDL
MODEL 6
REMARK VINA RESULT:      -7.5      3.701      5.163
REMARK  Name = 
REMARK  5 active torsions:
REMARK  status: ('A' for Active; 'I' for Inactive)
REMARK    1  A    between atoms: C_1  and  C_2
REMARK    2  A    between atoms: C_2  and  C_3
REMARK    3  A    between atoms: C_3  and  C_5
REMARK    4  A    between atoms: C_10  and  N_11
REMARK    5  A    between atoms: C_12  and  C_14
REMARK                            x       y       z     vdW  Elec       q    Type
REMARK                         _______ _______ _______ _____ _____    ______ ____
ROOT
ATOM      1  C   UNL     1       2.990   4.973  18.382  0.00  0.00    +0.000 A 
ATOM      2  C   UNL     1       3.769   4.053  17.655  0.00  0.00    +0.000 A 
ATOM      3  C   UNL     1       4.759   4.491  16.782  0.00  0.00    +0.000 A 
ATOM      4  C   UNL     1       4.959   5.851  16.587  0.00  0.00    +0.000 A 
ATOM      5  C   UNL     1       4.197   6.777  17.296  0.00  0.00    +0.000 A 
ATOM      6  C   UNL     1       3.208   6.366  18.205  0.00  0.00    +0.000 A 
ATOM      7  O   UNL     1       5.895   6.358  15.725  0.00  0.00    +0.000 OA
ATOM      8  C   UNL     1       6.387   5.354  14.831  0.00  0.00    +0.000 C 
ATOM      9  C   UNL     1       6.692   4.070  15.585  0.00  0.00    +0.000 C 
ATOM     10  O   UNL     1       5.493   3.522  16.150  0.00  0.00    +0.000 OA
ENDROOT
BRANCH   6  11
ATOM     11  N   UNL     1       2.436   7.315  18.929  0.00  0.00    +0.000 N 
ATOM     12  C   UNL     1       1.916   8.526  18.485  0.00  0.00    +0.000 C 
ATOM     13  O   UNL     1       2.079   8.973  17.354  0.00  0.00    +0.000 OA
ATOM     14  H   UNL     1       2.253   7.076  19.907  0.00  0.00    +0.000 HD
BRANCH  12  15
ATOM     15  C   UNL     1       1.134   9.281  19.463  0.00  0.00    +0.000 A 
ATOM     16  C   UNL     1       0.401  10.431  19.208  0.00  0.00    +0.000 A 
ATOM     17  C   UNL     1      -0.263  10.931  20.362  0.00  0.00    +0.000 A 
ATOM     18  C   UNL     1      -0.014  10.151  21.467  0.00  0.00    +0.000 A 
ATOM     19  S   UNL     1       1.010   8.830  21.109  0.00  0.00    +0.000 S 
ENDBRANCH  12  15
ENDBRANCH   6  11
BRANCH   1  20
ATOM     20  C   UNL     1       1.955   4.436  19.337  0.00  0.00    +0.000 C 
ATOM     21  O   UNL     1       0.952   3.877  18.895  0.00  0.00    +0.000 OA
BRANCH  20  23
ATOM     22  C   UNL     1       2.148   3.297  21.617  0.00  0.00    +0.000 C 
ATOM     23  C   UNL     1       2.196   4.599  20.837  0.00  0.00    +0.000 C 
ENDBRANCH  20  23
ENDBRANCH   1  20
TORSDOF 4
ENDMDL
MODEL 7
REMARK VINA RESULT:      -7.4      1.158      1.315
REMARK  Name = 
REMARK  5 active torsions:
REMARK  status: ('A' for Active; 'I' for Inactive)
REMARK    1  A    between atoms: C_1  and  C_2
REMARK    2  A    between atoms: C_2  and  C_3
REMARK    3  A    between atoms: C_3  and  C_5
REMARK    4  A    between atoms: C_10  and  N_11
REMARK    5  A    between atoms: C_12  and  C_14
REMARK                            x       y       z     vdW  Elec       q    Type
REMARK                         _______ _______ _______ _____ _____    ______ ____
ROOT
ATOM      1  C   UNL     1       6.208   5.109  17.038  0.00  0.00    +0.000 A 
ATOM      2  C   UNL     1       7.187   5.376  16.062  0.00  0.00    +0.000 A 
ATOM      3  C   UNL     1       7.014   4.959  14.747  0.00  0.00    +0.000 A 
ATOM      4  C   UNL     1       5.885   4.231  14.394  0.00  0.00    +0.000 A 
ATOM      5  C   UNL     1       4.906   3.956  15.345  0.00  0.00    +0.000 A 
ATOM      6  C   UNL     1       5.038   4.388  16.675  0.00  0.00    +0.000 A 
ATOM      7  O   UNL     1       5.657   3.763  13.126  0.00  0.00    +0.000 OA
ATOM      8  C   UNL     1       6.842   3.818  12.324  0.00  0.00    +0.000 C 
ATOM      9  C   UNL     1       7.549   5.151  12.506  0.00  0.00    +0.000 C 
ATOM     10  O   UNL     1       8.000   5.300  13.859  0.00  0.00    +0.000 OA
ENDROOT
BRANCH   6  11
ATOM     11  N   UNL     1       4.034   4.108  17.642  0.00  0.00    +0.000 N 
ATOM     12  C   UNL     1       3.602   2.870  18.106  0.00  0.00    +0.000 C 
ATOM     13  O   UNL     1       4.037   1.794  17.707  0.00  0.00    +0.000 OA
ATOM     14  H   UNL     1       3.563   4.927  18.035  0.00  0.00    +0.000 HD
BRANCH  12  15
ATOM     15  C   UNL     1       2.560   2.901  19.131  0.00  0.00    +0.000 A 
ATOM     16  C   UNL     1       1.198   3.036  18.906  0.00  0.00    +0.000 A 
ATOM     17  C   UNL     1       0.435   3.021  20.106  0.00  0.00    +0.000 A 
ATOM     18  C   UNL     1       1.237   2.878  21.215  0.00  0.00    +0.000 A 
ATOM     19  S   UNL     1       2.892   2.764  20.804  0.00  0.00    +0.000 S 
ENDBRANCH  12  15
ENDBRANCH   6  11
BRANCH   1  20
ATOM     20  C   UNL     1       6.437   5.617  18.438  0.00  0.00    +0.000 C 
ATOM     21  O   UNL     1       5.504   5.623  19.241  0.00  0.00    +0.000 OA
BRANCH  20  23
ATOM     22  C   UNL     1       8.357   5.522  20.122  0.00  0.00    +0.000 C 
ATOM     23  C   UNL     1       7.835   6.101  18.818  0.00  0.00    +0.000 C 
ENDBRANCH  20  23
ENDBRANCH   1  20
TORSDOF 4
ENDMDL
MODEL 8
REMARK VINA RESULT:      -7.1      3.734      7.503
REMARK  Name = 
REMARK  5 active torsions:
REMARK  status: ('A' for Active; 'I' for Inactive)
REMARK    1  A    between atoms: C_1  and  C_2
REMARK    2  A    between atoms: C_2  and  C_3
REMARK    3  A    between atoms: C_3  and  C_5
REMARK    4  A    between atoms: C_10  and  N_11
REMARK    5  A    between atoms: C_12  and  C_14
REMARK                            x       y       z     vdW  Elec       q    Type
REMARK                         _______ _______ _______ _____ _____    ______ ____
ROOT
ATOM      1  C   UNL     1       2.184   6.476  19.851  0.00  0.00    +0.000 A 
ATOM      2  C   UNL     1       1.439   7.247  20.763  0.00  0.00    +0.000 A 
ATOM      3  C   UNL     1       1.070   8.553  20.457  0.00  0.00    +0.000 A 
ATOM      4  C   UNL     1       1.476   9.125  19.258  0.00  0.00    +0.000 A 
ATOM      5  C   UNL     1       2.215   8.379  18.343  0.00  0.00    +0.000 A 
ATOM      6  C   UNL     1       2.579   7.048  18.610  0.00  0.00    +0.000 A 
ATOM      7  O   UNL     1       1.175  10.413  18.899  0.00  0.00    +0.000 OA
ATOM      8  C   UNL     1       0.706  11.175  20.016  0.00  0.00    +0.000 C 
ATOM      9  C   UNL     1      -0.305  10.375  20.821  0.00  0.00    +0.000 C 
ATOM     10  O   UNL     1       0.311   9.211  21.388  0.00  0.00    +0.000 OA
ENDROOT
BRANCH   6  11
ATOM     11  N   UNL     1       3.329   6.290  17.672  0.00  0.00    +0.000 N 
ATOM     12  C   UNL     1       4.645   6.477  17.263  0.00  0.00    +0.000 C 
ATOM     13  O   UNL     1       5.369   7.385  17.664  0.00  0.00    +0.000 OA
ATOM     14  H   UNL     1       2.828   5.513  17.235  0.00  0.00    +0.000 HD
BRANCH  12  15
ATOM     15  C   UNL     1       5.156   5.511  16.293  0.00  0.00    +0.000 A 
ATOM     16  C   UNL     1       5.556   5.792  14.995  0.00  0.00    +0.000 A 
ATOM     17  C   UNL     1       6.017   4.641  14.297  0.00  0.00    +0.000 A 
ATOM     18  C   UNL     1       5.953   3.513  15.081  0.00  0.00    +0.000 A 
ATOM     19  S   UNL     1       5.342   3.846  16.642  0.00  0.00    +0.000 S 
ENDBRANCH  12  15
ENDBRANCH   6  11
BRANCH   1  20
ATOM     20  C   UNL     1       2.524   5.056  20.224  0.00  0.00    +0.000 C 
ATOM     21  O   UNL     1       3.685   4.663  20.123  0.00  0.00    +0.000 OA
BRANCH  20  23
ATOM     22  C   UNL     1       1.874   3.045  21.661  0.00  0.00    +0.000 C 
ATOM     23  C   UNL     1       1.403   4.148  20.729  0.00  0.00    +0.000 C 
ENDBRANCH  20  23
ENDBRANCH   1  20
TORSDOF 4
ENDMDL
MODEL 9
REMARK VINA RESULT:      -7.1      2.533      6.516
REMARK  Name = 
REMARK  5 active torsions:
REMARK  status: ('A' for Active; 'I' for Inactive)
REMARK    1  A    between atoms: C_1  and  C_2
REMARK    2  A    between atoms: C_2  and  C_3
REMARK    3  A    between atoms: C_3  and  C_5
REMARK    4  A    between atoms: C_10  and  N_11
REMARK    5  A    between atoms: C_12  and  C_14
REMARK                            x       y       z     vdW  Elec       q    Type
REMARK                         _______ _______ _______ _____ _____    ______ ____
ROOT
ATOM      1  C   UNL     1       4.482   5.463  18.072  0.00  0.00    +0.000 A 
ATOM      2  C   UNL     1       3.920   5.513  19.362  0.00  0.00    +0.000 A 
ATOM      3  C   UNL     1       3.105   4.485  19.824  0.00  0.00    +0.000 A 
ATOM      4  C   UNL     1       2.801   3.415  18.993  0.00  0.00    +0.000 A 
ATOM      5  C   UNL     1       3.347   3.348  17.714  0.00  0.00    +0.000 A 
ATOM      6  C   UNL     1       4.196   4.356  17.228  0.00  0.00    +0.000 A 
ATOM      7  O   UNL     1       1.985   2.379  19.368  0.00  0.00    +0.000 OA
ATOM      8  C   UNL     1       1.238   2.697  20.547  0.00  0.00    +0.000 C 
ATOM      9  C   UNL     1       2.135   3.348  21.588  0.00  0.00    +0.000 C 
ATOM     10  O   UNL     1       2.637   4.601  21.106  0.00  0.00    +0.000 OA
ENDROOT
BRANCH   6  11
ATOM     11  N   UNL     1       4.753   4.281  15.922  0.00  0.00    +0.000 N 
ATOM     12  C   UNL     1       6.080   4.075  15.559  0.00  0.00    +0.000 C 
ATOM     13  O   UNL     1       7.002   3.945  16.359  0.00  0.00    +0.000 OA
ATOM     14  H   UNL     1       4.089   4.406  15.154  0.00  0.00    +0.000 HD
BRANCH  12  15
ATOM     15  C   UNL     1       6.347   4.021  14.123  0.00  0.00    +0.000 A 
ATOM     16  C   UNL     1       5.631   3.288  13.187  0.00  0.00    +0.000 A 
ATOM     17  C   UNL     1       6.127   3.448  11.864  0.00  0.00    +0.000 A 
ATOM     18  C   UNL     1       7.210   4.294  11.826  0.00  0.00    +0.000 A 
ATOM     19  S   UNL     1       7.619   4.888  13.376  0.00  0.00    +0.000 S 
ENDBRANCH  12  15
ENDBRANCH   6  11
BRANCH   1  20
ATOM     20  C   UNL     1       5.385   6.590  17.641  0.00  0.00    +0.000 C 
ATOM     21  O   UNL     1       4.961   7.442  16.861  0.00  0.00    +0.000 OA
BRANCH  20  23
ATOM     22  C   UNL     1       7.671   7.732  17.597  0.00  0.00    +0.000 C 
ATOM     23  C   UNL     1       6.805   6.640  18.201  0.00  0.00    +0.000 C 
ENDBRANCH  20  23
ENDBRANCH   1  20
TORSDOF 4
ENDMDL
