MODEL 1
REMARK VINA RESULT:      -8.5      0.000      0.000
REMARK  Name = 
REMARK  2 active torsions:
REMARK  status: ('A' for Active; 'I' for Inactive)
REMARK    1  A    between atoms: C_1  and  C_2
REMARK    2  A    between atoms: C_16  and  C_17
REMARK                            x       y       z     vdW  Elec       q    Type
REMARK                         _______ _______ _______ _____ _____    ______ ____
ROOT
ATOM      1  C   UNL     1       7.996   5.394  13.181  0.00  0.00    +0.000 C 
ATOM      2  C   UNL     1       7.087   4.917  14.272  0.00  0.00    +0.000 A 
ATOM      3  C   UNL     1       6.037   4.040  14.010  0.00  0.00    +0.000 A 
ATOM      4  C   UNL     1       5.196   3.625  15.044  0.00  0.00    +0.000 A 
ATOM      5  C   UNL     1       5.358   4.065  16.352  0.00  0.00    +0.000 A 
ATOM      6  N   UNL     1       4.511   3.617  17.288  0.00  0.00    +0.000 NA
ATOM      7  C   UNL     1       4.609   4.058  18.558  0.00  0.00    +0.000 A 
ATOM      8  N   UNL     1       3.736   3.549  19.504  0.00  0.00    +0.000 N 
ATOM      9  C   UNL     1       3.284   2.179  19.315  0.00  0.00    +0.000 C 
ATOM     10  C   UNL     1       1.991   2.102  18.511  0.00  0.00    +0.000 C 
ATOM     11  C   UNL     1       0.745   2.493  19.298  0.00  0.00    +0.000 C 
ATOM     12  C   UNL     1       0.783   3.893  19.912  0.00  0.00    +0.000 C 
ATOM     13  C   UNL     1       1.813   4.033  21.033  0.00  0.00    +0.000 C 
ATOM     14  C   UNL     1       3.217   4.407  20.557  0.00  0.00    +0.000 C 
ATOM     15  C   UNL     1       5.605   4.959  18.919  0.00  0.00    +0.000 A 
ATOM     16  C   UNL     1       6.543   5.388  17.975  0.00  0.00    +0.000 A 
ATOM     17  C   UNL     1       7.683   6.261  18.421  0.00  0.00    +0.000 C 
ATOM     18  C   UNL     1       6.413   4.956  16.638  0.00  0.00    +0.000 A 
ATOM     19  C   UNL     1       7.271   5.361  15.587  0.00  0.00    +0.000 A 
ENDROOT
TORSDOF 0
ENDMDL
MODEL 2
REMARK VINA RESULT:      -7.2      4.631      6.435
REMARK  Name = 
REMARK  2 active torsions:
REMARK  status: ('A' for Active; 'I' for Inactive)
REMARK    1  A    between atoms: C_1  and  C_2
REMARK    2  A    between atoms: C_16  and  C_17
REMARK                            x       y       z     vdW  Elec       q    Type
REMARK                         _______ _______ _______ _____ _____    ______ ____
ROOT
ATOM      1  C   UNL     1       0.770  12.792  18.738  0.00  0.00    +0.000 C 
ATOM      2  C   UNL     1       1.144  11.345  18.836  0.00  0.00    +0.000 A 
ATOM      3  C   UNL     1       1.798  10.693  17.793  0.00  0.00    +0.000 A 
ATOM      4  C   UNL     1       2.120   9.339  17.906  0.00  0.00    +0.000 A 
ATOM      5  C   UNL     1       1.802   8.594  19.035  0.00  0.00    +0.000 A 
ATOM      6  N   UNL     1       2.148   7.300  19.067  0.00  0.00    +0.000 NA
ATOM      7  C   UNL     1       1.815   6.536  20.126  0.00  0.00    +0.000 A 
ATOM      8  N   UNL     1       2.218   5.211  20.137  0.00  0.00    +0.000 N 
ATOM      9  C   UNL     1       3.469   4.896  19.463  0.00  0.00    +0.000 C 
ATOM     10  C   UNL     1       3.259   4.512  18.003  0.00  0.00    +0.000 C 
ATOM     11  C   UNL     1       2.700   3.107  17.804  0.00  0.00    +0.000 C 
ATOM     12  C   UNL     1       1.373   2.834  18.512  0.00  0.00    +0.000 C 
ATOM     13  C   UNL     1       1.494   2.816  20.036  0.00  0.00    +0.000 C 
ATOM     14  C   UNL     1       1.350   4.187  20.696  0.00  0.00    +0.000 C 
ATOM     15  C   UNL     1       1.134   7.083  21.208  0.00  0.00    +0.000 A 
ATOM     16  C   UNL     1       0.821   8.445  21.227  0.00  0.00    +0.000 A 
ATOM     17  C   UNL     1       0.199   9.036  22.462  0.00  0.00    +0.000 C 
ATOM     18  C   UNL     1       1.136   9.235  20.100  0.00  0.00    +0.000 A 
ATOM     19  C   UNL     1       0.826  10.611  19.985  0.00  0.00    +0.000 A 
ENDROOT
TORSDOF 0
ENDMDL
MODEL 3
REMARK VINA RESULT:      -6.9      4.108      5.864
REMARK  Name = 
REMARK  2 active torsions:
REMARK  status: ('A' for Active; 'I' for Inactive)
REMARK    1  A    between atoms: C_1  and  C_2
REMARK    2  A    between atoms: C_16  and  C_17
REMARK                            x       y       z     vdW  Elec       q    Type
REMARK                         _______ _______ _______ _____ _____    ______ ____
ROOT
ATOM      1  C   UNL     1       3.664   1.379  18.428  0.00  0.00    +0.000 C 
ATOM      2  C   UNL     1       3.208   2.767  18.757  0.00  0.00    +0.000 A 
ATOM      3  C   UNL     1       2.275   3.003  19.765  0.00  0.00    +0.000 A 
ATOM      4  C   UNL     1       1.856   4.307  20.040  0.00  0.00    +0.000 A 
ATOM      5  C   UNL     1       2.332   5.402  19.330  0.00  0.00    +0.000 A 
ATOM      6  N   UNL     1       1.882   6.622  19.657  0.00  0.00    +0.000 NA
ATOM      7  C   UNL     1       2.286   7.702  18.960  0.00  0.00    +0.000 A 
ATOM      8  N   UNL     1       1.824   8.949  19.347  0.00  0.00    +0.000 N 
ATOM      9  C   UNL     1       1.554   9.141  20.764  0.00  0.00    +0.000 C 
ATOM     10  C   UNL     1       0.108   8.820  21.125  0.00  0.00    +0.000 C 
ATOM     11  C   UNL     1      -0.891   9.893  20.703  0.00  0.00    +0.000 C 
ATOM     12  C   UNL     1      -0.887  10.225  19.211  0.00  0.00    +0.000 C 
ATOM     13  C   UNL     1       0.396  10.916  18.748  0.00  0.00    +0.000 C 
ATOM     14  C   UNL     1       1.518   9.958  18.348  0.00  0.00    +0.000 C 
ATOM     15  C   UNL     1       3.193   7.572  17.914  0.00  0.00    +0.000 A 
ATOM     16  C   UNL     1       3.728   6.319  17.598  0.00  0.00    +0.000 A 
ATOM     17  C   UNL     1       4.801   6.225  16.548  0.00  0.00    +0.000 C 
ATOM     18  C   UNL     1       3.273   5.184  18.303  0.00  0.00    +0.000 A 
ATOM     19  C   UNL     1       3.705   3.862  18.040  0.00  0.00    +0.000 A 
ENDROOT
TORSDOF 0
ENDMDL
MODEL 4
REMARK VINA RESULT:      -6.8      4.920      7.786
REMARK  Name = 
REMARK  2 active torsions:
REMARK  status: ('A' for Active; 'I' for Inactive)
REMARK    1  A    between atoms: C_1  and  C_2
REMARK    2  A    between atoms: C_16  and  C_17
REMARK                            x       y       z     vdW  Elec       q    Type
REMARK                         _______ _______ _______ _____ _____    ______ ____
ROOT
ATOM      1  C   UNL     1      -1.154  11.498  22.874  0.00  0.00    +0.000 C 
ATOM      2  C   UNL     1      -0.390  10.451  22.122  0.00  0.00    +0.000 A 
ATOM      3  C   UNL     1      -0.055   9.234  22.712  0.00  0.00    +0.000 A 
ATOM      4  C   UNL     1       0.672   8.284  21.992  0.00  0.00    +0.000 A 
ATOM      5  C   UNL     1       1.094   8.507  20.688  0.00  0.00    +0.000 A 
ATOM      6  N   UNL     1       1.785   7.543  20.064  0.00  0.00    +0.000 NA
ATOM      7  C   UNL     1       2.250   7.743  18.815  0.00  0.00    +0.000 A 
ATOM      8  N   UNL     1       2.933   6.711  18.192  0.00  0.00    +0.000 N 
ATOM      9  C   UNL     1       2.540   5.354  18.541  0.00  0.00    +0.000 C 
ATOM     10  C   UNL     1       3.355   4.797  19.702  0.00  0.00    +0.000 C 
ATOM     11  C   UNL     1       4.773   4.379  19.323  0.00  0.00    +0.000 C 
ATOM     12  C   UNL     1       5.624   5.483  18.695  0.00  0.00    +0.000 C 
ATOM     13  C   UNL     1       5.135   5.909  17.311  0.00  0.00    +0.000 C 
ATOM     14  C   UNL     1       4.066   7.001  17.328  0.00  0.00    +0.000 C 
ATOM     15  C   UNL     1       1.997   8.936  18.147  0.00  0.00    +0.000 A 
ATOM     16  C   UNL     1       1.221   9.930  18.751  0.00  0.00    +0.000 A 
ATOM     17  C   UNL     1       0.856  11.155  17.960  0.00  0.00    +0.000 C 
ATOM     18  C   UNL     1       0.769   9.734  20.074  0.00  0.00    +0.000 A 
ATOM     19  C   UNL     1       0.019  10.687  20.804  0.00  0.00    +0.000 A 
ENDROOT
TORSDOF 0
ENDMDL
MODEL 5
REMARK VINA RESULT:      -6.5      4.432      6.498
REMARK  Name = 
REMARK  2 active torsions:
REMARK  status: ('A' for Active; 'I' for Inactive)
REMARK    1  A    between atoms: C_1  and  C_2
REMARK    2  A    between atoms: C_16  and  C_17
REMARK                            x       y       z     vdW  Elec       q    Type
REMARK                         _______ _______ _______ _____ _____    ______ ____
ROOT
ATOM      1  C   UNL     1       2.725   1.741  18.639  0.00  0.00    +0.000 C 
ATOM      2  C   UNL     1       2.415   3.101  19.186  0.00  0.00    +0.000 A 
ATOM      3  C   UNL     1       1.692   3.260  20.366  0.00  0.00    +0.000 A 
ATOM      4  C   UNL     1       1.404   4.541  20.843  0.00  0.00    +0.000 A 
ATOM      5  C   UNL     1       1.808   5.688  20.173  0.00  0.00    +0.000 A 
ATOM      6  N   UNL     1       1.495   6.881  20.697  0.00  0.00    +0.000 NA
ATOM      7  C   UNL     1       1.830   8.015  20.051  0.00  0.00    +0.000 A 
ATOM      8  N   UNL     1       1.516   9.228  20.641  0.00  0.00    +0.000 N 
ATOM      9  C   UNL     1       1.514   9.274  22.095  0.00  0.00    +0.000 C 
ATOM     10  C   UNL     1       0.139   8.971  22.680  0.00  0.00    +0.000 C 
ATOM     11  C   UNL     1      -0.856  10.121  22.559  0.00  0.00    +0.000 C 
ATOM     12  C   UNL     1      -1.099  10.614  21.132  0.00  0.00    +0.000 C 
ATOM     13  C   UNL     1       0.119  11.302  20.515  0.00  0.00    +0.000 C 
ATOM     14  C   UNL     1       1.095  10.352  19.821  0.00  0.00    +0.000 C 
ATOM     15  C   UNL     1       2.527   7.966  18.849  0.00  0.00    +0.000 A 
ATOM     16  C   UNL     1       2.924   6.736  18.316  0.00  0.00    +0.000 A 
ATOM     17  C   UNL     1       3.786   6.717  17.084  0.00  0.00    +0.000 C 
ATOM     18  C   UNL     1       2.537   5.548  18.974  0.00  0.00    +0.000 A 
ATOM     19  C   UNL     1       2.839   4.248  18.504  0.00  0.00    +0.000 A 
ENDROOT
TORSDOF 0
ENDMDL
MODEL 6
REMARK VINA RESULT:      -6.4      9.254     11.254
REMARK  Name = 
REMARK  2 active torsions:
REMARK  status: ('A' for Active; 'I' for Inactive)
REMARK    1  A    between atoms: C_1  and  C_2
REMARK    2  A    between atoms: C_16  and  C_17
REMARK                            x       y       z     vdW  Elec       q    Type
REMARK                         _______ _______ _______ _____ _____    ______ ____
ROOT
ATOM      1  C   UNL     1       1.855   8.932  17.981  0.00  0.00    +0.000 C 
ATOM      2  C   UNL     1       0.588   9.635  18.361  0.00  0.00    +0.000 A 
ATOM      3  C   UNL     1       0.421  10.193  19.627  0.00  0.00    +0.000 A 
ATOM      4  C   UNL     1      -0.777  10.829  19.959  0.00  0.00    +0.000 A 
ATOM      5  C   UNL     1      -1.837  10.924  19.066  0.00  0.00    +0.000 A 
ATOM      6  N   UNL     1      -2.953  11.553  19.460  0.00  0.00    +0.000 NA
ATOM      7  C   UNL     1      -4.018  11.624  18.637  0.00  0.00    +0.000 A 
ATOM      8  N   UNL     1      -5.141  12.310  19.068  0.00  0.00    +0.000 N 
ATOM      9  C   UNL     1      -4.924  13.435  19.964  0.00  0.00    +0.000 C 
ATOM     10  C   UNL     1      -4.975  13.024  21.431  0.00  0.00    +0.000 C 
ATOM     11  C   UNL     1      -6.384  12.769  21.957  0.00  0.00    +0.000 C 
ATOM     12  C   UNL     1      -7.176  11.711  21.190  0.00  0.00    +0.000 C 
ATOM     13  C   UNL     1      -7.539  12.140  19.768  0.00  0.00    +0.000 C 
ATOM     14  C   UNL     1      -6.468  11.828  18.723  0.00  0.00    +0.000 C 
ATOM     15  C   UNL     1      -3.965  11.073  17.362  0.00  0.00    +0.000 A 
ATOM     16  C   UNL     1      -2.789  10.471  16.903  0.00  0.00    +0.000 A 
ATOM     17  C   UNL     1      -2.718   9.997  15.478  0.00  0.00    +0.000 C 
ATOM     18  C   UNL     1      -1.689  10.362  17.781  0.00  0.00    +0.000 A 
ATOM     19  C   UNL     1      -0.467   9.732  17.446  0.00  0.00    +0.000 A 
ENDROOT
TORSDOF 0
ENDMDL
MODEL 7
REMARK VINA RESULT:      -6.4      4.926      6.204
REMARK  Name = 
REMARK  2 active torsions:
REMARK  status: ('A' for Active; 'I' for Inactive)
REMARK    1  A    between atoms: C_1  and  C_2
REMARK    2  A    between atoms: C_16  and  C_17
REMARK                            x       y       z     vdW  Elec       q    Type
REMARK                         _______ _______ _______ _____ _____    ______ ____
ROOT
ATOM      1  C   UNL     1       5.667   4.073  16.953  0.00  0.00    +0.000 C 
ATOM      2  C   UNL     1       4.762   5.190  17.376  0.00  0.00    +0.000 A 
ATOM      3  C   UNL     1       4.716   6.391  16.672  0.00  0.00    +0.000 A 
ATOM      4  C   UNL     1       3.875   7.421  17.098  0.00  0.00    +0.000 A 
ATOM      5  C   UNL     1       3.070   7.301  18.224  0.00  0.00    +0.000 A 
ATOM      6  N   UNL     1       2.288   8.334  18.566  0.00  0.00    +0.000 NA
ATOM      7  C   UNL     1       1.528   8.270  19.677  0.00  0.00    +0.000 A 
ATOM      8  N   UNL     1       0.709   9.345  19.980  0.00  0.00    +0.000 N 
ATOM      9  C   UNL     1       0.176  10.104  18.859  0.00  0.00    +0.000 C 
ATOM     10  C   UNL     1       1.073  11.275  18.475  0.00  0.00    +0.000 C 
ATOM     11  C   UNL     1       0.988  12.463  19.429  0.00  0.00    +0.000 C 
ATOM     12  C   UNL     1       1.308  12.141  20.889  0.00  0.00    +0.000 C 
ATOM     13  C   UNL     1       0.265  11.242  21.552  0.00  0.00    +0.000 C 
ATOM     14  C   UNL     1       0.510   9.745  21.363  0.00  0.00    +0.000 C 
ATOM     15  C   UNL     1       1.524   7.126  20.468  0.00  0.00    +0.000 A 
ATOM     16  C   UNL     1       2.280   6.010  20.095  0.00  0.00    +0.000 A 
ATOM     17  C   UNL     1       2.159   4.744  20.897  0.00  0.00    +0.000 C 
ATOM     18  C   UNL     1       3.105   6.094  18.953  0.00  0.00    +0.000 A 
ATOM     19  C   UNL     1       3.949   5.049  18.506  0.00  0.00    +0.000 A 
ENDROOT
TORSDOF 0
ENDMDL
MODEL 8
REMARK VINA RESULT:      -6.4     10.671     12.914
REMARK  Name = 
REMARK  2 active torsions:
REMARK  status: ('A' for Active; 'I' for Inactive)
REMARK    1  A    between atoms: C_1  and  C_2
REMARK    2  A    between atoms: C_16  and  C_17
REMARK                            x       y       z     vdW  Elec       q    Type
REMARK                         _______ _______ _______ _____ _____    ______ ____
ROOT
ATOM      1  C   UNL     1      -3.071  10.022  14.795  0.00  0.00    +0.000 C 
ATOM      2  C   UNL     1      -3.267  10.638  16.146  0.00  0.00    +0.000 A 
ATOM      3  C   UNL     1      -2.300  10.522  17.143  0.00  0.00    +0.000 A 
ATOM      4  C   UNL     1      -2.517  11.092  18.398  0.00  0.00    +0.000 A 
ATOM      5  C   UNL     1      -3.684  11.779  18.708  0.00  0.00    +0.000 A 
ATOM      6  N   UNL     1      -3.815  12.301  19.935  0.00  0.00    +0.000 NA
ATOM      7  C   UNL     1      -4.952  12.933  20.286  0.00  0.00    +0.000 A 
ATOM      8  N   UNL     1      -5.037  13.486  21.553  0.00  0.00    +0.000 N 
ATOM      9  C   UNL     1      -3.800  13.978  22.142  0.00  0.00    +0.000 C 
ATOM     10  C   UNL     1      -3.095  12.914  22.976  0.00  0.00    +0.000 C 
ATOM     11  C   UNL     1      -3.740  12.659  24.335  0.00  0.00    +0.000 C 
ATOM     12  C   UNL     1      -5.213  12.254  24.282  0.00  0.00    +0.000 C 
ATOM     13  C   UNL     1      -6.133  13.376  23.801  0.00  0.00    +0.000 C 
ATOM     14  C   UNL     1      -6.293  13.453  22.282  0.00  0.00    +0.000 C 
ATOM     15  C   UNL     1      -5.991  13.078  19.374  0.00  0.00    +0.000 A 
ATOM     16  C   UNL     1      -5.853  12.601  18.067  0.00  0.00    +0.000 A 
ATOM     17  C   UNL     1      -6.940  12.883  17.066  0.00  0.00    +0.000 C 
ATOM     18  C   UNL     1      -4.677  11.904  17.714  0.00  0.00    +0.000 A 
ATOM     19  C   UNL     1      -4.444  11.336  16.439  0.00  0.00    +0.000 A 
ENDROOT
TORSDOF 0
ENDMDL
MODEL 9
REMARK VINA RESULT:      -6.3      9.534     11.385
REMARK  Name = 
REMARK  2 active torsions:
REMARK  status: ('A' for Active; 'I' for Inactive)
REMARK    1  A    between atoms: C_1  and  C_2
REMARK    2  A    between atoms: C_16  and  C_17
REMARK                            x       y       z     vdW  Elec       q    Type
REMARK                         _______ _______ _______ _____ _____    ______ ____
ROOT
ATOM      1  C   UNL     1      -3.155   9.988  14.649  0.00  0.00    +0.000 C 
ATOM      2  C   UNL     1      -3.114  10.531  16.045  0.00  0.00    +0.000 A 
ATOM      3  C   UNL     1      -4.202  11.209  16.591  0.00  0.00    +0.000 A 
ATOM      4  C   UNL     1      -4.129  11.718  17.889  0.00  0.00    +0.000 A 
ATOM      5  C   UNL     1      -2.991  11.584  18.675  0.00  0.00    +0.000 A 
ATOM      6  N   UNL     1      -3.002  12.098  19.912  0.00  0.00    +0.000 NA
ATOM      7  C   UNL     1      -1.901  12.028  20.685  0.00  0.00    +0.000 A 
ATOM      8  N   UNL     1      -1.961  12.543  21.969  0.00  0.00    +0.000 N 
ATOM      9  C   UNL     1      -3.247  12.478  22.646  0.00  0.00    +0.000 C 
ATOM     10  C   UNL     1      -4.082  13.733  22.421  0.00  0.00    +0.000 C 
ATOM     11  C   UNL     1      -3.621  14.941  23.232  0.00  0.00    +0.000 C 
ATOM     12  C   UNL     1      -2.166  15.350  23.007  0.00  0.00    +0.000 C 
ATOM     13  C   UNL     1      -1.161  14.326  23.534  0.00  0.00    +0.000 C 
ATOM     14  C   UNL     1      -0.808  13.220  22.540  0.00  0.00    +0.000 C 
ATOM     15  C   UNL     1      -0.750  11.399  20.222  0.00  0.00    +0.000 A 
ATOM     16  C   UNL     1      -0.736  10.795  18.961  0.00  0.00    +0.000 A 
ATOM     17  C   UNL     1       0.476  10.012  18.538  0.00  0.00    +0.000 C 
ATOM     18  C   UNL     1      -1.878  10.905  18.138  0.00  0.00    +0.000 A 
ATOM     19  C   UNL     1      -1.964  10.378  16.827  0.00  0.00    +0.000 A 
ENDROOT
TORSDOF 0
ENDMDL
