MODEL 1
REMARK VINA RESULT:      -8.5      0.000      0.000
REMARK  Name = 
REMARK  5 active torsions:
REMARK  status: ('A' for Active; 'I' for Inactive)
REMARK    1  A    between atoms: C_2  and  O_3
REMARK    2  A    between atoms: C_2  and  C_4
REMARK    3  A    between atoms: C_6  and  S_7
REMARK    4  A    between atoms: S_7  and  N_10
REMARK    5  A    between atoms: N_10  and  C_11
REMARK                            x       y       z     vdW  Elec       q    Type
REMARK                         _______ _______ _______ _____ _____    ______ ____
ROOT
ATOM      1  C   UNL     1       6.335   5.252  18.642  0.00  0.00    +0.000 A 
ATOM      2  C   UNL     1       5.159   5.188  19.413  0.00  0.00    +0.000 A 
ATOM      3  C   UNL     1       3.967   4.755  18.821  0.00  0.00    +0.000 A 
ATOM      4  C   UNL     1       3.935   4.369  17.481  0.00  0.00    +0.000 A 
ATOM      5  C   UNL     1       5.100   4.439  16.721  0.00  0.00    +0.000 A 
ATOM      6  C   UNL     1       6.301   4.886  17.290  0.00  0.00    +0.000 A 
ATOM      7  O   UNL     1       7.465   4.957  16.560  0.00  0.00    +0.000 OA
ATOM      8  C   UNL     1       7.208   4.975  15.148  0.00  0.00    +0.000 C 
ATOM      9  C   UNL     1       6.241   3.866  14.777  0.00  0.00    +0.000 C 
ATOM     10  O   UNL     1       4.974   4.071  15.407  0.00  0.00    +0.000 OA
ENDROOT
BRANCH   3  11
ATOM     11  S   UNL     1       2.479   4.625  19.791  0.00  0.00    +0.000 S 
ATOM     12  O   UNL     1       1.359   4.644  18.876  0.00  0.00    +0.000 OA
ATOM     13  O   UNL     1       2.672   3.534  20.722  0.00  0.00    +0.000 OA
BRANCH  11  14
ATOM     14  N   UNL     1       2.466   6.046  20.710  0.00  0.00    +0.000 N 
ATOM     15  H   UNL     1       3.329   6.121  21.250  0.00  0.00    +0.000 HD
BRANCH  14  16
ATOM     16  C   UNL     1       2.033   7.257  20.083  0.00  0.00    +0.000 A 
ATOM     17  C   UNL     1       2.394   7.546  18.769  0.00  0.00    +0.000 A 
ATOM     18  C   UNL     1       1.953   8.737  18.192  0.00  0.00    +0.000 A 
ATOM     19  F   UNL     1       2.259   9.007  16.917  0.00  0.00    +0.000 F 
ATOM     20  C   UNL     1       1.189   9.654  18.914  0.00  0.00    +0.000 A 
ATOM     21  C   UNL     1       0.855   9.379  20.239  0.00  0.00    +0.000 A 
ATOM     22  C   UNL     1       1.274   8.181  20.810  0.00  0.00    +0.000 A 
ATOM     23  F   UNL     1       0.952   7.917  22.084  0.00  0.00    +0.000 F 
ENDBRANCH  14  16
ENDBRANCH  11  14
ENDBRANCH   3  11
BRANCH   1  25
ATOM     24  O   UNL     1       8.019   5.246  20.318  0.00  0.00    +0.000 OA
ATOM     25  C   UNL     1       7.566   5.763  19.310  0.00  0.00    +0.000 C 
BRANCH  25  26
ATOM     26  O   UNL     1       8.169   6.792  18.681  0.00  0.00    +0.000 OA
ATOM     27  H   UNL     1       7.877   7.670  19.003  0.00  0.00    +0.000 HD
ENDBRANCH  25  26
ENDBRANCH   1  25
TORSDOF 5
ENDMDL
MODEL 2
REMARK VINA RESULT:      -8.4      1.649      1.885
REMARK  Name = 
REMARK  5 active torsions:
REMARK  status: ('A' for Active; 'I' for Inactive)
REMARK    1  A    between atoms: C_2  and  O_3
REMARK    2  A    between atoms: C_2  and  C_4
REMARK    3  A    between atoms: C_6  and  S_7
REMARK    4  A    between atoms: S_7  and  N_10
REMARK    5  A    between atoms: N_10  and  C_11
REMARK                            x       y       z     vdW  Elec       q    Type
REMARK                         _______ _______ _______ _____ _____    ______ ____
ROOT
ATOM      1  C   UNL     1       6.590   4.843  17.995  0.00  0.00    +0.000 A 
ATOM      2  C   UNL     1       5.584   4.227  18.763  0.00  0.00    +0.000 A 
ATOM      3  C   UNL     1       4.582   3.488  18.124  0.00  0.00    +0.000 A 
ATOM      4  C   UNL     1       4.580   3.339  16.736  0.00  0.00    +0.000 A 
ATOM      5  C   UNL     1       5.575   3.954  15.981  0.00  0.00    +0.000 A 
ATOM      6  C   UNL     1       6.578   4.713  16.600  0.00  0.00    +0.000 A 
ATOM      7  O   UNL     1       7.575   5.324  15.874  0.00  0.00    +0.000 OA
ATOM      8  C   UNL     1       7.213   5.474  14.494  0.00  0.00    +0.000 C 
ATOM      9  C   UNL     1       6.681   4.163  13.946  0.00  0.00    +0.000 C 
ATOM     10  O   UNL     1       5.481   3.782  14.625  0.00  0.00    +0.000 OA
ENDROOT
BRANCH   3  11
ATOM     11  S   UNL     1       3.325   2.665  19.081  0.00  0.00    +0.000 S 
ATOM     12  O   UNL     1       3.136   1.349  18.512  0.00  0.00    +0.000 OA
ATOM     13  O   UNL     1       3.669   2.841  20.475  0.00  0.00    +0.000 OA
BRANCH  11  14
ATOM     14  N   UNL     1       1.934   3.589  18.806  0.00  0.00    +0.000 N 
ATOM     15  H   UNL     1       1.113   3.103  19.171  0.00  0.00    +0.000 HD
BRANCH  14  16
ATOM     16  C   UNL     1       1.984   4.992  19.084  0.00  0.00    +0.000 A 
ATOM     17  C   UNL     1       2.342   5.901  18.091  0.00  0.00    +0.000 A 
ATOM     18  C   UNL     1       2.379   7.260  18.400  0.00  0.00    +0.000 A 
ATOM     19  F   UNL     1       2.682   8.148  17.444  0.00  0.00    +0.000 F 
ATOM     20  C   UNL     1       2.099   7.720  19.686  0.00  0.00    +0.000 A 
ATOM     21  C   UNL     1       1.772   6.808  20.687  0.00  0.00    +0.000 A 
ATOM     22  C   UNL     1       1.711   5.453  20.377  0.00  0.00    +0.000 A 
ATOM     23  F   UNL     1       1.396   4.575  21.340  0.00  0.00    +0.000 F 
ENDBRANCH  14  16
ENDBRANCH  11  14
ENDBRANCH   3  11
BRANCH   1  25
ATOM     24  O   UNL     1       8.241   5.209  19.664  0.00  0.00    +0.000 OA
ATOM     25  C   UNL     1       7.606   5.655  18.723  0.00  0.00    +0.000 C 
BRANCH  25  26
ATOM     26  O   UNL     1       7.813   6.889  18.221  0.00  0.00    +0.000 OA
ATOM     27  H   UNL     1       7.967   6.896  17.253  0.00  0.00    +0.000 HD
ENDBRANCH  25  26
ENDBRANCH   1  25
TORSDOF 5
ENDMDL
MODEL 3
REMARK VINA RESULT:      -8.3      3.884      7.097
REMARK  Name = 
REMARK  5 active torsions:
REMARK  status: ('A' for Active; 'I' for Inactive)
REMARK    1  A    between atoms: C_2  and  O_3
REMARK    2  A    between atoms: C_2  and  C_4
REMARK    3  A    between atoms: C_6  and  S_7
REMARK    4  A    between atoms: S_7  and  N_10
REMARK    5  A    between atoms: N_10  and  C_11
REMARK                            x       y       z     vdW  Elec       q    Type
REMARK                         _______ _______ _______ _____ _____    ______ ____
ROOT
ATOM      1  C   UNL     1       4.166   3.554  18.759  0.00  0.00    +0.000 A 
ATOM      2  C   UNL     1       5.019   4.064  17.763  0.00  0.00    +0.000 A 
ATOM      3  C   UNL     1       4.928   5.412  17.398  0.00  0.00    +0.000 A 
ATOM      4  C   UNL     1       4.014   6.261  18.026  0.00  0.00    +0.000 A 
ATOM      5  C   UNL     1       3.169   5.750  19.008  0.00  0.00    +0.000 A 
ATOM      6  C   UNL     1       3.233   4.398  19.375  0.00  0.00    +0.000 A 
ATOM      7  O   UNL     1       2.413   3.874  20.347  0.00  0.00    +0.000 OA
ATOM      8  C   UNL     1       1.260   4.697  20.573  0.00  0.00    +0.000 C 
ATOM      9  C   UNL     1       1.676   6.146  20.746  0.00  0.00    +0.000 C 
ATOM     10  O   UNL     1       2.283   6.643  19.550  0.00  0.00    +0.000 OA
ENDROOT
BRANCH   3  11
ATOM     11  S   UNL     1       6.027   6.087  16.171  0.00  0.00    +0.000 S 
ATOM     12  O   UNL     1       5.212   6.658  15.121  0.00  0.00    +0.000 OA
ATOM     13  O   UNL     1       7.013   6.880  16.873  0.00  0.00    +0.000 OA
BRANCH  11  14
ATOM     14  N   UNL     1       6.840   4.733  15.564  0.00  0.00    +0.000 N 
ATOM     15  H   UNL     1       6.692   3.931  16.179  0.00  0.00    +0.000 HD
BRANCH  14  16
ATOM     16  C   UNL     1       6.745   4.453  14.164  0.00  0.00    +0.000 A 
ATOM     17  C   UNL     1       5.777   3.577  13.678  0.00  0.00    +0.000 A 
ATOM     18  C   UNL     1       5.715   3.330  12.308  0.00  0.00    +0.000 A 
ATOM     19  F   UNL     1       4.764   2.521  11.823  0.00  0.00    +0.000 F 
ATOM     20  C   UNL     1       6.621   3.914  11.423  0.00  0.00    +0.000 A 
ATOM     21  C   UNL     1       7.610   4.766  11.913  0.00  0.00    +0.000 A 
ATOM     22  C   UNL     1       7.659   5.033  13.278  0.00  0.00    +0.000 A 
ATOM     23  F   UNL     1       8.610   5.853  13.749  0.00  0.00    +0.000 F 
ENDBRANCH  14  16
ENDBRANCH  11  14
ENDBRANCH   3  11
BRANCH   1  25
ATOM     24  O   UNL     1       3.722   1.247  18.403  0.00  0.00    +0.000 OA
ATOM     25  C   UNL     1       4.275   2.101  19.076  0.00  0.00    +0.000 C 
BRANCH  25  26
ATOM     26  O   UNL     1       5.079   1.806  20.117  0.00  0.00    +0.000 OA
ATOM     27  H   UNL     1       5.238   2.566  20.714  0.00  0.00    +0.000 HD
ENDBRANCH  25  26
ENDBRANCH   1  25
TORSDOF 5
ENDMDL
MODEL 4
REMARK VINA RESULT:      -8.3      3.691      7.029
REMARK  Name = 
REMARK  5 active torsions:
REMARK  status: ('A' for Active; 'I' for Inactive)
REMARK    1  A    between atoms: C_2  and  O_3
REMARK    2  A    between atoms: C_2  and  C_4
REMARK    3  A    between atoms: C_6  and  S_7
REMARK    4  A    between atoms: S_7  and  N_10
REMARK    5  A    between atoms: N_10  and  C_11
REMARK                            x       y       z     vdW  Elec       q    Type
REMARK                         _______ _______ _______ _____ _____    ______ ____
ROOT
ATOM      1  C   UNL     1       2.680   6.104  18.937  0.00  0.00    +0.000 A 
ATOM      2  C   UNL     1       3.754   6.472  18.105  0.00  0.00    +0.000 A 
ATOM      3  C   UNL     1       4.356   5.510  17.286  0.00  0.00    +0.000 A 
ATOM      4  C   UNL     1       3.890   4.194  17.271  0.00  0.00    +0.000 A 
ATOM      5  C   UNL     1       2.830   3.834  18.100  0.00  0.00    +0.000 A 
ATOM      6  C   UNL     1       2.225   4.779  18.940  0.00  0.00    +0.000 A 
ATOM      7  O   UNL     1       1.172   4.447  19.761  0.00  0.00    +0.000 OA
ATOM      8  C   UNL     1       1.097   3.033  19.986  0.00  0.00    +0.000 C 
ATOM      9  C   UNL     1       1.189   2.287  18.667  0.00  0.00    +0.000 C 
ATOM     10  O   UNL     1       2.456   2.517  18.046  0.00  0.00    +0.000 OA
ENDROOT
BRANCH   3  11
ATOM     11  S   UNL     1       5.687   5.965  16.195  0.00  0.00    +0.000 S 
ATOM     12  O   UNL     1       5.113   6.698  15.088  0.00  0.00    +0.000 OA
ATOM     13  O   UNL     1       6.733   6.537  17.015  0.00  0.00    +0.000 OA
BRANCH  11  14
ATOM     14  N   UNL     1       6.275   4.482  15.629  0.00  0.00    +0.000 N 
ATOM     15  H   UNL     1       5.841   3.714  16.144  0.00  0.00    +0.000 HD
BRANCH  14  16
ATOM     16  C   UNL     1       6.377   4.286  14.216  0.00  0.00    +0.000 A 
ATOM     17  C   UNL     1       5.469   3.472  13.543  0.00  0.00    +0.000 A 
ATOM     18  C   UNL     1       5.602   3.306  12.165  0.00  0.00    +0.000 A 
ATOM     19  F   UNL     1       4.711   2.558  11.500  0.00  0.00    +0.000 F 
ATOM     20  C   UNL     1       6.641   3.909  11.457  0.00  0.00    +0.000 A 
ATOM     21  C   UNL     1       7.568   4.698  12.136  0.00  0.00    +0.000 A 
ATOM     22  C   UNL     1       7.425   4.885  13.507  0.00  0.00    +0.000 A 
ATOM     23  F   UNL     1       8.317   5.644  14.160  0.00  0.00    +0.000 F 
ENDBRANCH  14  16
ENDBRANCH  11  14
ENDBRANCH   3  11
BRANCH   1  25
ATOM     24  O   UNL     1       1.835   8.275  19.409  0.00  0.00    +0.000 OA
ATOM     25  C   UNL     1       2.106   7.159  19.821  0.00  0.00    +0.000 C 
BRANCH  25  26
ATOM     26  O   UNL     1       1.852   6.763  21.085  0.00  0.00    +0.000 OA
ATOM     27  H   UNL     1       1.294   7.394  21.586  0.00  0.00    +0.000 HD
ENDBRANCH  25  26
ENDBRANCH   1  25
TORSDOF 5
ENDMDL
MODEL 5
REMARK VINA RESULT:      -8.3      3.538      6.726
REMARK  Name = 
REMARK  5 active torsions:
REMARK  status: ('A' for Active; 'I' for Inactive)
REMARK    1  A    between atoms: C_2  and  O_3
REMARK    2  A    between atoms: C_2  and  C_4
REMARK    3  A    between atoms: C_6  and  S_7
REMARK    4  A    between atoms: S_7  and  N_10
REMARK    5  A    between atoms: N_10  and  C_11
REMARK                            x       y       z     vdW  Elec       q    Type
REMARK                         _______ _______ _______ _____ _____    ______ ____
ROOT
ATOM      1  C   UNL     1       4.463   3.559  19.253  0.00  0.00    +0.000 A 
ATOM      2  C   UNL     1       5.432   4.150  18.422  0.00  0.00    +0.000 A 
ATOM      3  C   UNL     1       5.301   5.495  18.055  0.00  0.00    +0.000 A 
ATOM      4  C   UNL     1       4.231   6.260  18.520  0.00  0.00    +0.000 A 
ATOM      5  C   UNL     1       3.271   5.668  19.338  0.00  0.00    +0.000 A 
ATOM      6  C   UNL     1       3.375   4.319  19.704  0.00  0.00    +0.000 A 
ATOM      7  O   UNL     1       2.443   3.715  20.516  0.00  0.00    +0.000 OA
ATOM      8  C   UNL     1       1.209   4.445  20.544  0.00  0.00    +0.000 C 
ATOM      9  C   UNL     1       1.476   5.918  20.795  0.00  0.00    +0.000 C 
ATOM     10  O   UNL     1       2.239   6.482  19.725  0.00  0.00    +0.000 OA
ENDROOT
BRANCH   3  11
ATOM     11  S   UNL     1       6.540   6.273  17.040  0.00  0.00    +0.000 S 
ATOM     12  O   UNL     1       5.853   7.024  16.012  0.00  0.00    +0.000 OA
ATOM     13  O   UNL     1       7.482   6.911  17.934  0.00  0.00    +0.000 OA
BRANCH  11  14
ATOM     14  N   UNL     1       7.355   4.975  16.324  0.00  0.00    +0.000 N 
ATOM     15  H   UNL     1       7.323   4.160  16.939  0.00  0.00    +0.000 HD
BRANCH  14  16
ATOM     16  C   UNL     1       7.118   4.703  14.940  0.00  0.00    +0.000 A 
ATOM     17  C   UNL     1       7.746   5.455  13.950  0.00  0.00    +0.000 A 
ATOM     18  C   UNL     1       7.489   5.160  12.611  0.00  0.00    +0.000 A 
ATOM     19  F   UNL     1       8.117   5.849  11.650  0.00  0.00    +0.000 F 
ATOM     20  C   UNL     1       6.595   4.153  12.248  0.00  0.00    +0.000 A 
ATOM     21  C   UNL     1       5.944   3.422  13.239  0.00  0.00    +0.000 A 
ATOM     22  C   UNL     1       6.215   3.698  14.576  0.00  0.00    +0.000 A 
ATOM     23  F   UNL     1       5.588   2.994  15.529  0.00  0.00    +0.000 F 
ENDBRANCH  14  16
ENDBRANCH  11  14
ENDBRANCH   3  11
BRANCH   1  25
ATOM     24  O   UNL     1       5.129   1.733  20.620  0.00  0.00    +0.000 OA
ATOM     25  C   UNL     1       4.627   2.112  19.575  0.00  0.00    +0.000 C 
BRANCH  25  26
ATOM     26  O   UNL     1       4.122   1.265  18.655  0.00  0.00    +0.000 OA
ATOM     27  H   UNL     1       3.987   0.356  18.996  0.00  0.00    +0.000 HD
ENDBRANCH  25  26
ENDBRANCH   1  25
TORSDOF 5
ENDMDL
MODEL 6
REMARK VINA RESULT:      -8.2      0.993      1.083
REMARK  Name = 
REMARK  5 active torsions:
REMARK  status: ('A' for Active; 'I' for Inactive)
REMARK    1  A    between atoms: C_2  and  O_3
REMARK    2  A    between atoms: C_2  and  C_4
REMARK    3  A    between atoms: C_6  and  S_7
REMARK    4  A    between atoms: S_7  and  N_10
REMARK    5  A    between atoms: N_10  and  C_11
REMARK                            x       y       z     vdW  Elec       q    Type
REMARK                         _______ _______ _______ _____ _____    ______ ____
ROOT
ATOM      1  C   UNL     1       6.435   5.996  17.434  0.00  0.00    +0.000 A 
ATOM      2  C   UNL     1       5.327   5.864  18.291  0.00  0.00    +0.000 A 
ATOM      3  C   UNL     1       4.231   5.091  17.890  0.00  0.00    +0.000 A 
ATOM      4  C   UNL     1       4.234   4.434  16.659  0.00  0.00    +0.000 A 
ATOM      5  C   UNL     1       5.331   4.573  15.812  0.00  0.00    +0.000 A 
ATOM      6  C   UNL     1       6.431   5.356  16.188  0.00  0.00    +0.000 A 
ATOM      7  O   UNL     1       7.529   5.501  15.371  0.00  0.00    +0.000 OA
ATOM      8  C   UNL     1       7.224   5.173  14.008  0.00  0.00    +0.000 C 
ATOM      9  C   UNL     1       6.497   3.843  13.938  0.00  0.00    +0.000 C 
ATOM     10  O   UNL     1       5.238   3.920  14.611  0.00  0.00    +0.000 OA
ENDROOT
BRANCH   3  11
ATOM     11  S   UNL     1       2.838   4.876  18.978  0.00  0.00    +0.000 S 
ATOM     12  O   UNL     1       1.637   5.031  18.186  0.00  0.00    +0.000 OA
ATOM     13  O   UNL     1       3.081   3.676  19.749  0.00  0.00    +0.000 OA
BRANCH  11  14
ATOM     14  N   UNL     1       2.958   6.175  20.056  0.00  0.00    +0.000 N 
ATOM     15  H   UNL     1       3.929   6.297  20.349  0.00  0.00    +0.000 HD
BRANCH  14  16
ATOM     16  C   UNL     1       2.260   7.384  19.745  0.00  0.00    +0.000 A 
ATOM     17  C   UNL     1       2.463   8.030  18.528  0.00  0.00    +0.000 A 
ATOM     18  C   UNL     1       1.763   9.206  18.261  0.00  0.00    +0.000 A 
ATOM     19  F   UNL     1       1.919   9.815  17.079  0.00  0.00    +0.000 F 
ATOM     20  C   UNL     1       0.894   9.763  19.199  0.00  0.00    +0.000 A 
ATOM     21  C   UNL     1       0.715   9.133  20.430  0.00  0.00    +0.000 A 
ATOM     22  C   UNL     1       1.394   7.947  20.690  0.00  0.00    +0.000 A 
ATOM     23  F   UNL     1       1.221   7.341  21.873  0.00  0.00    +0.000 F 
ENDBRANCH  14  16
ENDBRANCH  11  14
ENDBRANCH   3  11
BRANCH   1  25
ATOM     24  O   UNL     1       8.219   6.605  18.881  0.00  0.00    +0.000 OA
ATOM     25  C   UNL     1       7.555   6.867  17.892  0.00  0.00    +0.000 C 
BRANCH  25  26
ATOM     26  O   UNL     1       7.814   7.924  17.096  0.00  0.00    +0.000 OA
ATOM     27  H   UNL     1       8.248   8.668  17.564  0.00  0.00    +0.000 HD
ENDBRANCH  25  26
ENDBRANCH   1  25
TORSDOF 5
ENDMDL
MODEL 7
REMARK VINA RESULT:      -8.1      1.166      2.128
REMARK  Name = 
REMARK  5 active torsions:
REMARK  status: ('A' for Active; 'I' for Inactive)
REMARK    1  A    between atoms: C_2  and  O_3
REMARK    2  A    between atoms: C_2  and  C_4
REMARK    3  A    between atoms: C_6  and  S_7
REMARK    4  A    between atoms: S_7  and  N_10
REMARK    5  A    between atoms: N_10  and  C_11
REMARK                            x       y       z     vdW  Elec       q    Type
REMARK                         _______ _______ _______ _____ _____    ______ ____
ROOT
ATOM      1  C   UNL     1       6.422   6.133  17.430  0.00  0.00    +0.000 A 
ATOM      2  C   UNL     1       5.298   6.068  18.275  0.00  0.00    +0.000 A 
ATOM      3  C   UNL     1       4.181   5.321  17.883  0.00  0.00    +0.000 A 
ATOM      4  C   UNL     1       4.177   4.624  16.674  0.00  0.00    +0.000 A 
ATOM      5  C   UNL     1       5.290   4.696  15.839  0.00  0.00    +0.000 A 
ATOM      6  C   UNL     1       6.412   5.452  16.206  0.00  0.00    +0.000 A 
ATOM      7  O   UNL     1       7.525   5.532  15.400  0.00  0.00    +0.000 OA
ATOM      8  C   UNL     1       7.228   5.170  14.044  0.00  0.00    +0.000 C 
ATOM      9  C   UNL     1       6.456   3.864  14.007  0.00  0.00    +0.000 C 
ATOM     10  O   UNL     1       5.191   4.008  14.659  0.00  0.00    +0.000 OA
ENDROOT
BRANCH   3  11
ATOM     11  S   UNL     1       2.767   5.191  18.957  0.00  0.00    +0.000 S 
ATOM     12  O   UNL     1       1.590   5.480  18.166  0.00  0.00    +0.000 OA
ATOM     13  O   UNL     1       2.897   3.946  19.683  0.00  0.00    +0.000 OA
BRANCH  11  14
ATOM     14  N   UNL     1       2.994   6.433  20.083  0.00  0.00    +0.000 N 
ATOM     15  H   UNL     1       3.968   6.743  20.070  0.00  0.00    +0.000 HD
BRANCH  14  16
ATOM     16  C   UNL     1       2.023   7.481  20.145  0.00  0.00    +0.000 A 
ATOM     17  C   UNL     1       1.077   7.515  21.168  0.00  0.00    +0.000 A 
ATOM     18  C   UNL     1       0.147   8.553  21.194  0.00  0.00    +0.000 A 
ATOM     19  F   UNL     1      -0.741   8.620  22.194  0.00  0.00    +0.000 F 
ATOM     20  C   UNL     1       0.123   9.533  20.202  0.00  0.00    +0.000 A 
ATOM     21  C   UNL     1       1.049   9.481  19.161  0.00  0.00    +0.000 A 
ATOM     22  C   UNL     1       1.993   8.459  19.145  0.00  0.00    +0.000 A 
ATOM     23  F   UNL     1       2.884   8.409  18.143  0.00  0.00    +0.000 F 
ENDBRANCH  14  16
ENDBRANCH  11  14
ENDBRANCH   3  11
BRANCH   1  25
ATOM     24  O   UNL     1       8.241   6.697  18.852  0.00  0.00    +0.000 OA
ATOM     25  C   UNL     1       7.565   6.980  17.876  0.00  0.00    +0.000 C 
BRANCH  25  26
ATOM     26  O   UNL     1       7.831   8.038  17.083  0.00  0.00    +0.000 OA
ATOM     27  H   UNL     1       7.916   7.803  16.135  0.00  0.00    +0.000 HD
ENDBRANCH  25  26
ENDBRANCH   1  25
TORSDOF 5
ENDMDL
MODEL 8
REMARK VINA RESULT:      -8.0      3.147      4.752
REMARK  Name = 
REMARK  5 active torsions:
REMARK  status: ('A' for Active; 'I' for Inactive)
REMARK    1  A    between atoms: C_2  and  O_3
REMARK    2  A    between atoms: C_2  and  C_4
REMARK    3  A    between atoms: C_6  and  S_7
REMARK    4  A    between atoms: S_7  and  N_10
REMARK    5  A    between atoms: N_10  and  C_11
REMARK                            x       y       z     vdW  Elec       q    Type
REMARK                         _______ _______ _______ _____ _____    ______ ____
ROOT
ATOM      1  C   UNL     1       1.934   4.981  20.497  0.00  0.00    +0.000 A 
ATOM      2  C   UNL     1       1.343   6.126  21.063  0.00  0.00    +0.000 A 
ATOM      3  C   UNL     1       1.619   7.386  20.521  0.00  0.00    +0.000 A 
ATOM      4  C   UNL     1       2.459   7.519  19.414  0.00  0.00    +0.000 A 
ATOM      5  C   UNL     1       3.045   6.383  18.861  0.00  0.00    +0.000 A 
ATOM      6  C   UNL     1       2.794   5.113  19.399  0.00  0.00    +0.000 A 
ATOM      7  O   UNL     1       3.357   3.977  18.864  0.00  0.00    +0.000 OA
ATOM      8  C   UNL     1       4.508   4.280  18.063  0.00  0.00    +0.000 C 
ATOM      9  C   UNL     1       4.191   5.402  17.091  0.00  0.00    +0.000 C 
ATOM     10  O   UNL     1       3.879   6.606  17.796  0.00  0.00    +0.000 OA
ENDROOT
BRANCH   3  11
ATOM     11  S   UNL     1       0.847   8.842  21.196  0.00  0.00    +0.000 S 
ATOM     12  O   UNL     1      -0.548   8.533  21.420  0.00  0.00    +0.000 OA
ATOM     13  O   UNL     1       1.694   9.314  22.270  0.00  0.00    +0.000 OA
BRANCH  11  14
ATOM     14  N   UNL     1       0.967   9.982  19.951  0.00  0.00    +0.000 N 
ATOM     15  H   UNL     1       1.751   9.749  19.338  0.00  0.00    +0.000 HD
BRANCH  14  16
ATOM     16  C   UNL     1      -0.230  10.385  19.281  0.00  0.00    +0.000 A 
ATOM     17  C   UNL     1      -0.589   9.818  18.060  0.00  0.00    +0.000 A 
ATOM     18  C   UNL     1      -1.763  10.237  17.438  0.00  0.00    +0.000 A 
ATOM     19  F   UNL     1      -2.140   9.671  16.284  0.00  0.00    +0.000 F 
ATOM     20  C   UNL     1      -2.564  11.234  17.995  0.00  0.00    +0.000 A 
ATOM     21  C   UNL     1      -2.190  11.824  19.201  0.00  0.00    +0.000 A 
ATOM     22  C   UNL     1      -1.030  11.391  19.836  0.00  0.00    +0.000 A 
ATOM     23  F   UNL     1      -0.669  11.959  20.996  0.00  0.00    +0.000 F 
ENDBRANCH  14  16
ENDBRANCH  11  14
ENDBRANCH   3  11
BRANCH   1  25
ATOM     24  O   UNL     1       2.172   3.325  22.184  0.00  0.00    +0.000 OA
ATOM     25  C   UNL     1       1.641   3.669  21.141  0.00  0.00    +0.000 C 
BRANCH  25  26
ATOM     26  O   UNL     1       0.701   2.929  20.519  0.00  0.00    +0.000 OA
ATOM     27  H   UNL     1       0.484   2.097  20.991  0.00  0.00    +0.000 HD
ENDBRANCH  25  26
ENDBRANCH   1  25
TORSDOF 5
ENDMDL
MODEL 9
REMARK VINA RESULT:      -7.9      3.096      6.418
REMARK  Name = 
REMARK  5 active torsions:
REMARK  status: ('A' for Active; 'I' for Inactive)
REMARK    1  A    between atoms: C_2  and  O_3
REMARK    2  A    between atoms: C_2  and  C_4
REMARK    3  A    between atoms: C_6  and  S_7
REMARK    4  A    between atoms: S_7  and  N_10
REMARK    5  A    between atoms: N_10  and  C_11
REMARK                            x       y       z     vdW  Elec       q    Type
REMARK                         _______ _______ _______ _____ _____    ______ ____
ROOT
ATOM      1  C   UNL     1       3.049   6.088  19.607  0.00  0.00    +0.000 A 
ATOM      2  C   UNL     1       4.374   6.328  19.196  0.00  0.00    +0.000 A 
ATOM      3  C   UNL     1       5.258   5.254  19.051  0.00  0.00    +0.000 A 
ATOM      4  C   UNL     1       4.837   3.945  19.291  0.00  0.00    +0.000 A 
ATOM      5  C   UNL     1       3.527   3.713  19.702  0.00  0.00    +0.000 A 
ATOM      6  C   UNL     1       2.629   4.777  19.869  0.00  0.00    +0.000 A 
ATOM      7  O   UNL     1       1.329   4.570  20.269  0.00  0.00    +0.000 OA
ATOM      8  C   UNL     1       1.162   3.293  20.900  0.00  0.00    +0.000 C 
ATOM      9  C   UNL     1       1.793   2.203  20.053  0.00  0.00    +0.000 C 
ATOM     10  O   UNL     1       3.205   2.403  19.944  0.00  0.00    +0.000 OA
ENDROOT
BRANCH   3  11
ATOM     11  S   UNL     1       6.925   5.533  18.490  0.00  0.00    +0.000 S 
ATOM     12  O   UNL     1       6.921   6.738  17.691  0.00  0.00    +0.000 OA
ATOM     13  O   UNL     1       7.790   5.397  19.642  0.00  0.00    +0.000 OA
BRANCH  11  14
ATOM     14  N   UNL     1       7.245   4.207  17.488  0.00  0.00    +0.000 N 
ATOM     15  H   UNL     1       6.955   3.343  17.948  0.00  0.00    +0.000 HD
BRANCH  14  16
ATOM     16  C   UNL     1       6.904   4.304  16.103  0.00  0.00    +0.000 A 
ATOM     17  C   UNL     1       7.745   4.960  15.207  0.00  0.00    +0.000 A 
ATOM     18  C   UNL     1       7.377   5.033  13.864  0.00  0.00    +0.000 A 
ATOM     19  F   UNL     1       8.196   5.625  12.985  0.00  0.00    +0.000 F 
ATOM     20  C   UNL     1       6.173   4.495  13.410  0.00  0.00    +0.000 A 
ATOM     21  C   UNL     1       5.317   3.867  14.312  0.00  0.00    +0.000 A 
ATOM     22  C   UNL     1       5.691   3.771  15.649  0.00  0.00    +0.000 A 
ATOM     23  F   UNL     1       4.868   3.167  16.517  0.00  0.00    +0.000 F 
ENDBRANCH  14  16
ENDBRANCH  11  14
ENDBRANCH   3  11
BRANCH   1  25
ATOM     24  O   UNL     1       1.942   8.063  18.887  0.00  0.00    +0.000 OA
ATOM     25  C   UNL     1       2.163   7.272  19.789  0.00  0.00    +0.000 C 
BRANCH  25  26
ATOM     26  O   UNL     1       1.578   7.363  21.001  0.00  0.00    +0.000 OA
ATOM     27  H   UNL     1       0.888   6.684  21.153  0.00  0.00    +0.000 HD
ENDBRANCH  25  26
ENDBRANCH   1  25
TORSDOF 5
ENDMDL
