MODEL 1
REMARK VINA RESULT:      -9.7      0.000      0.000
REMARK  Name = 
REMARK  4 active torsions:
REMARK  status: ('A' for Active; 'I' for Inactive)
REMARK    1  A    between atoms: C_11  and  C_12
REMARK    2  A    between atoms: C_16  and  N_17
REMARK    3  A    between atoms: N_26  and  C_27
REMARK    4  A    between atoms: C_27  and  C_28
REMARK                            x       y       z     vdW  Elec       q    Type
REMARK                         _______ _______ _______ _____ _____    ______ ____
ROOT
ATOM      1  O   UNL     1       4.294   2.464  18.953  0.00  0.00    +0.000 OA
ATOM      2  C   UNL     1       4.004   3.615  18.629  0.00  0.00    +0.000 A 
ATOM      3  C   UNL     1       4.561   4.228  17.451  0.00  0.00    +0.000 A 
ATOM      4  C   UNL     1       5.418   3.758  16.443  0.00  0.00    +0.000 A 
ATOM      5  N   UNL     1       5.701   4.707  15.541  0.00  0.00    +0.000 NA
ATOM      6  N   UNL     1       5.013   5.780  15.981  0.00  0.00    +0.000 N 
ATOM      7  C   UNL     1       4.308   5.533  17.121  0.00  0.00    +0.000 A 
ATOM      8  C   UNL     1       3.467   6.395  17.916  0.00  0.00    +0.000 A 
ATOM      9  C   UNL     1       3.251   7.733  17.579  0.00  0.00    +0.000 A 
ATOM     10  C   UNL     1       2.454   8.531  18.397  0.00  0.00    +0.000 A 
ATOM     11  C   UNL     1       1.872   8.025  19.572  0.00  0.00    +0.000 A 
ATOM     12  C   UNL     1       2.074   6.658  19.872  0.00  0.00    +0.000 A 
ATOM     13  C   UNL     1       2.879   5.825  19.075  0.00  0.00    +0.000 A 
ATOM     14  N   UNL     1       3.143   4.432  19.408  0.00  0.00    +0.000 N 
ATOM     15  H   UNL     1       5.083   6.643  15.452  0.00  0.00    +0.000 HD
ENDROOT
BRANCH  11  16
ATOM     16  C   UNL     1       1.093   8.895  20.487  0.00  0.00    +0.000 A 
ATOM     17  C   UNL     1       0.383   8.377  21.567  0.00  0.00    +0.000 A 
ATOM     18  C   UNL     1      -0.309   9.243  22.395  0.00  0.00    +0.000 A 
ATOM     19  C   UNL     1      -0.284  10.601  22.116  0.00  0.00    +0.000 A 
ATOM     20  C   UNL     1       0.399  11.077  20.998  0.00  0.00    +0.000 A 
ATOM     21  N   UNL     1       1.074  10.224  20.191  0.00  0.00    +0.000 NA
BRANCH  20  22
ATOM     22  N   UNL     1       0.357  12.413  20.677  0.00  0.00    +0.000 N 
ATOM     23  C   UNL     1      -0.780  12.978  19.947  0.00  0.00    +0.000 C 
ATOM     24  C   UNL     1      -0.310  13.693  18.673  0.00  0.00    +0.000 C 
ATOM     25  O   UNL     1       0.741  14.637  18.945  0.00  0.00    +0.000 OA
ATOM     26  C   UNL     1       1.870  13.962  19.522  0.00  0.00    +0.000 C 
ATOM     27  C   UNL     1       1.504  13.303  20.861  0.00  0.00    +0.000 C 
ENDBRANCH  20  22
ENDBRANCH  11  16
BRANCH  14  28
ATOM     28  C   UNL     1       2.676   3.815  20.659  0.00  0.00    +0.000 C 
BRANCH  28  29
ATOM     29  C   UNL     1       1.318   3.093  20.623  0.00  0.00    +0.000 C 
ATOM     30  F   UNL     1       1.249   2.095  19.719  0.00  0.00    +0.000 F 
ATOM     31  F   UNL     1       1.002   2.586  21.839  0.00  0.00    +0.000 F 
ATOM     32  F   UNL     1       0.335   3.977  20.306  0.00  0.00    +0.000 F 
ENDBRANCH  28  29
ENDBRANCH  14  28
TORSDOF 4
ENDMDL
MODEL 2
REMARK VINA RESULT:      -9.7      1.612      2.030
REMARK  Name = 
REMARK  4 active torsions:
REMARK  status: ('A' for Active; 'I' for Inactive)
REMARK    1  A    between atoms: C_11  and  C_12
REMARK    2  A    between atoms: C_16  and  N_17
REMARK    3  A    between atoms: N_26  and  C_27
REMARK    4  A    between atoms: C_27  and  C_28
REMARK                            x       y       z     vdW  Elec       q    Type
REMARK                         _______ _______ _______ _____ _____    ______ ____
ROOT
ATOM      1  O   UNL     1       4.390   2.875  19.080  0.00  0.00    +0.000 OA
ATOM      2  C   UNL     1       4.018   4.007  18.772  0.00  0.00    +0.000 A 
ATOM      3  C   UNL     1       4.512   4.666  17.591  0.00  0.00    +0.000 A 
ATOM      4  C   UNL     1       5.382   4.264  16.565  0.00  0.00    +0.000 A 
ATOM      5  N   UNL     1       5.585   5.238  15.669  0.00  0.00    +0.000 NA
ATOM      6  N   UNL     1       4.833   6.257  16.130  0.00  0.00    +0.000 N 
ATOM      7  C   UNL     1       4.166   5.953  17.278  0.00  0.00    +0.000 A 
ATOM      8  C   UNL     1       3.282   6.750  18.094  0.00  0.00    +0.000 A 
ATOM      9  C   UNL     1       2.970   8.073  17.774  0.00  0.00    +0.000 A 
ATOM     10  C   UNL     1       2.135   8.808  18.612  0.00  0.00    +0.000 A 
ATOM     11  C   UNL     1       1.608   8.254  19.792  0.00  0.00    +0.000 A 
ATOM     12  C   UNL     1       1.907   6.901  20.075  0.00  0.00    +0.000 A 
ATOM     13  C   UNL     1       2.753   6.131  19.257  0.00  0.00    +0.000 A 
ATOM     14  N   UNL     1       3.116   4.757  19.573  0.00  0.00    +0.000 N 
ATOM     15  H   UNL     1       4.836   7.127  15.608  0.00  0.00    +0.000 HD
ENDROOT
BRANCH  11  16
ATOM     16  C   UNL     1       0.787   9.061  20.727  0.00  0.00    +0.000 A 
ATOM     17  C   UNL     1       0.796   8.831  22.100  0.00  0.00    +0.000 A 
ATOM     18  C   UNL     1       0.023   9.631  22.923  0.00  0.00    +0.000 A 
ATOM     19  C   UNL     1      -0.749  10.632  22.351  0.00  0.00    +0.000 A 
ATOM     20  C   UNL     1      -0.768  10.801  20.967  0.00  0.00    +0.000 A 
ATOM     21  N   UNL     1      -0.009  10.015  20.168  0.00  0.00    +0.000 NA
BRANCH  20  22
ATOM     22  N   UNL     1      -1.594  11.740  20.396  0.00  0.00    +0.000 N 
ATOM     23  C   UNL     1      -2.328  12.701  21.222  0.00  0.00    +0.000 C 
ATOM     24  C   UNL     1      -3.834  12.631  20.932  0.00  0.00    +0.000 C 
ATOM     25  O   UNL     1      -4.113  12.733  19.524  0.00  0.00    +0.000 OA
ATOM     26  C   UNL     1      -3.470  11.661  18.817  0.00  0.00    +0.000 C 
ATOM     27  C   UNL     1      -1.944  11.721  18.975  0.00  0.00    +0.000 C 
ENDBRANCH  20  22
ENDBRANCH  11  16
BRANCH  14  28
ATOM     28  C   UNL     1       2.713   4.099  20.825  0.00  0.00    +0.000 C 
BRANCH  28  29
ATOM     29  C   UNL     1       1.403   3.294  20.806  0.00  0.00    +0.000 C 
ATOM     30  F   UNL     1       0.334   3.991  20.371  0.00  0.00    +0.000 F 
ATOM     31  F   UNL     1       1.524   2.183  20.038  0.00  0.00    +0.000 F 
ATOM     32  F   UNL     1       1.107   2.864  22.060  0.00  0.00    +0.000 F 
ENDBRANCH  28  29
ENDBRANCH  14  28
TORSDOF 4
ENDMDL
MODEL 3
REMARK VINA RESULT:      -9.4      1.215      1.646
REMARK  Name = 
REMARK  4 active torsions:
REMARK  status: ('A' for Active; 'I' for Inactive)
REMARK    1  A    between atoms: C_11  and  C_12
REMARK    2  A    between atoms: C_16  and  N_17
REMARK    3  A    between atoms: N_26  and  C_27
REMARK    4  A    between atoms: C_27  and  C_28
REMARK                            x       y       z     vdW  Elec       q    Type
REMARK                         _______ _______ _______ _____ _____    ______ ____
ROOT
ATOM      1  O   UNL     1       4.472   2.964  19.095  0.00  0.00    +0.000 OA
ATOM      2  C   UNL     1       4.077   4.088  18.791  0.00  0.00    +0.000 A 
ATOM      3  C   UNL     1       4.545   4.755  17.603  0.00  0.00    +0.000 A 
ATOM      4  C   UNL     1       5.409   4.367  16.567  0.00  0.00    +0.000 A 
ATOM      5  N   UNL     1       5.584   5.344  15.667  0.00  0.00    +0.000 NA
ATOM      6  N   UNL     1       4.821   6.350  16.137  0.00  0.00    +0.000 N 
ATOM      7  C   UNL     1       4.173   6.036  17.294  0.00  0.00    +0.000 A 
ATOM      8  C   UNL     1       3.286   6.819  18.121  0.00  0.00    +0.000 A 
ATOM      9  C   UNL     1       2.948   8.136  17.803  0.00  0.00    +0.000 A 
ATOM     10  C   UNL     1       2.111   8.858  18.652  0.00  0.00    +0.000 A 
ATOM     11  C   UNL     1       1.609   8.296  19.838  0.00  0.00    +0.000 A 
ATOM     12  C   UNL     1       1.934   6.948  20.118  0.00  0.00    +0.000 A 
ATOM     13  C   UNL     1       2.782   6.192  19.290  0.00  0.00    +0.000 A 
ATOM     14  N   UNL     1       3.173   4.824  19.602  0.00  0.00    +0.000 N 
ATOM     15  H   UNL     1       4.803   7.220  15.614  0.00  0.00    +0.000 HD
ENDROOT
BRANCH  11  16
ATOM     16  C   UNL     1       0.786   9.090  20.783  0.00  0.00    +0.000 A 
ATOM     17  C   UNL     1       0.543   8.661  22.085  0.00  0.00    +0.000 A 
ATOM     18  C   UNL     1      -0.217   9.456  22.925  0.00  0.00    +0.000 A 
ATOM     19  C   UNL     1      -0.724  10.652  22.438  0.00  0.00    +0.000 A 
ATOM     20  C   UNL     1      -0.499  11.024  21.113  0.00  0.00    +0.000 A 
ATOM     21  N   UNL     1       0.245  10.241  20.297  0.00  0.00    +0.000 NA
BRANCH  20  22
ATOM     22  N   UNL     1      -1.069  12.169  20.610  0.00  0.00    +0.000 N 
ATOM     23  C   UNL     1      -0.592  13.492  21.018  0.00  0.00    +0.000 C 
ATOM     24  C   UNL     1      -1.744  14.338  21.578  0.00  0.00    +0.000 C 
ATOM     25  O   UNL     1      -2.869  14.371  20.683  0.00  0.00    +0.000 OA
ATOM     26  C   UNL     1      -3.359  13.039  20.462  0.00  0.00    +0.000 C 
ATOM     27  C   UNL     1      -2.291  12.151  19.805  0.00  0.00    +0.000 C 
ENDBRANCH  20  22
ENDBRANCH  11  16
BRANCH  14  28
ATOM     28  C   UNL     1       2.796   4.161  20.860  0.00  0.00    +0.000 C 
BRANCH  28  29
ATOM     29  C   UNL     1       1.544   3.268  20.836  0.00  0.00    +0.000 C 
ATOM     30  F   UNL     1       1.647   2.195  20.026  0.00  0.00    +0.000 F 
ATOM     31  F   UNL     1       1.232   2.831  22.080  0.00  0.00    +0.000 F 
ATOM     32  F   UNL     1       0.475   3.986  20.401  0.00  0.00    +0.000 F 
ENDBRANCH  28  29
ENDBRANCH  14  28
TORSDOF 4
ENDMDL
MODEL 4
REMARK VINA RESULT:      -9.1      1.648      1.994
REMARK  Name = 
REMARK  4 active torsions:
REMARK  status: ('A' for Active; 'I' for Inactive)
REMARK    1  A    between atoms: C_11  and  C_12
REMARK    2  A    between atoms: C_16  and  N_17
REMARK    3  A    between atoms: N_26  and  C_27
REMARK    4  A    between atoms: C_27  and  C_28
REMARK                            x       y       z     vdW  Elec       q    Type
REMARK                         _______ _______ _______ _____ _____    ______ ____
ROOT
ATOM      1  O   UNL     1       4.329   2.217  17.716  0.00  0.00    +0.000 OA
ATOM      2  C   UNL     1       4.160   3.427  17.569  0.00  0.00    +0.000 A 
ATOM      3  C   UNL     1       4.916   4.181  16.602  0.00  0.00    +0.000 A 
ATOM      4  C   UNL     1       5.877   3.818  15.646  0.00  0.00    +0.000 A 
ATOM      5  N   UNL     1       6.343   4.878  14.974  0.00  0.00    +0.000 NA
ATOM      6  N   UNL     1       5.666   5.915  15.506  0.00  0.00    +0.000 N 
ATOM      7  C   UNL     1       4.793   5.540  16.482  0.00  0.00    +0.000 A 
ATOM      8  C   UNL     1       3.902   6.324  17.303  0.00  0.00    +0.000 A 
ATOM      9  C   UNL     1       3.818   7.713  17.187  0.00  0.00    +0.000 A 
ATOM     10  C   UNL     1       2.963   8.426  18.025  0.00  0.00    +0.000 A 
ATOM     11  C   UNL     1       2.190   7.780  19.005  0.00  0.00    +0.000 A 
ATOM     12  C   UNL     1       2.263   6.369  19.078  0.00  0.00    +0.000 A 
ATOM     13  C   UNL     1       3.120   5.617  18.255  0.00  0.00    +0.000 A 
ATOM     14  N   UNL     1       3.248   4.171  18.364  0.00  0.00    +0.000 N 
ATOM     15  H   UNL     1       5.864   6.846  15.154  0.00  0.00    +0.000 HD
ENDROOT
BRANCH  11  16
ATOM     16  C   UNL     1       1.344   8.546  19.952  0.00  0.00    +0.000 A 
ATOM     17  C   UNL     1       1.292   8.235  21.308  0.00  0.00    +0.000 A 
ATOM     18  C   UNL     1       0.497   8.999  22.144  0.00  0.00    +0.000 A 
ATOM     19  C   UNL     1      -0.235  10.045  21.601  0.00  0.00    +0.000 A 
ATOM     20  C   UNL     1      -0.193  10.295  20.231  0.00  0.00    +0.000 A 
ATOM     21  N   UNL     1       0.586   9.544  19.418  0.00  0.00    +0.000 NA
BRANCH  20  22
ATOM     22  N   UNL     1      -0.980  11.281  19.683  0.00  0.00    +0.000 N 
ATOM     23  C   UNL     1      -1.492  12.381  20.504  0.00  0.00    +0.000 C 
ATOM     24  C   UNL     1      -3.021  12.469  20.406  0.00  0.00    +0.000 C 
ATOM     25  O   UNL     1      -3.470  12.498  19.040  0.00  0.00    +0.000 OA
ATOM     26  C   UNL     1      -3.045  11.307  18.358  0.00  0.00    +0.000 C 
ATOM     27  C   UNL     1      -1.514  11.198  18.323  0.00  0.00    +0.000 C 
ENDBRANCH  20  22
ENDBRANCH  11  16
BRANCH  14  28
ATOM     28  C   UNL     1       2.571   3.393  19.413  0.00  0.00    +0.000 C 
BRANCH  28  29
ATOM     29  C   UNL     1       1.131   2.934  19.128  0.00  0.00    +0.000 C 
ATOM     30  F   UNL     1       1.000   1.603  18.958  0.00  0.00    +0.000 F 
ATOM     31  F   UNL     1       0.290   3.320  20.119  0.00  0.00    +0.000 F 
ATOM     32  F   UNL     1       0.677   3.521  17.989  0.00  0.00    +0.000 F 
ENDBRANCH  28  29
ENDBRANCH  14  28
TORSDOF 4
ENDMDL
MODEL 5
REMARK VINA RESULT:      -8.9      1.830      2.290
REMARK  Name = 
REMARK  4 active torsions:
REMARK  status: ('A' for Active; 'I' for Inactive)
REMARK    1  A    between atoms: C_11  and  C_12
REMARK    2  A    between atoms: C_16  and  N_17
REMARK    3  A    between atoms: N_26  and  C_27
REMARK    4  A    between atoms: C_27  and  C_28
REMARK                            x       y       z     vdW  Elec       q    Type
REMARK                         _______ _______ _______ _____ _____    ______ ____
ROOT
ATOM      1  O   UNL     1       5.033   3.101  19.182  0.00  0.00    +0.000 OA
ATOM      2  C   UNL     1       4.634   4.175  18.736  0.00  0.00    +0.000 A 
ATOM      3  C   UNL     1       5.208   4.757  17.550  0.00  0.00    +0.000 A 
ATOM      4  C   UNL     1       6.196   4.321  16.653  0.00  0.00    +0.000 A 
ATOM      5  N   UNL     1       6.435   5.222  15.692  0.00  0.00    +0.000 NA
ATOM      6  N   UNL     1       5.588   6.230  15.982  0.00  0.00    +0.000 N 
ATOM      7  C   UNL     1       4.827   5.988  17.086  0.00  0.00    +0.000 A 
ATOM      8  C   UNL     1       3.825   6.798  17.737  0.00  0.00    +0.000 A 
ATOM      9  C   UNL     1       3.477   8.066  17.265  0.00  0.00    +0.000 A 
ATOM     10  C   UNL     1       2.525   8.819  17.949  0.00  0.00    +0.000 A 
ATOM     11  C   UNL     1       1.914   8.340  19.120  0.00  0.00    +0.000 A 
ATOM     12  C   UNL     1       2.254   7.038  19.556  0.00  0.00    +0.000 A 
ATOM     13  C   UNL     1       3.216   6.253  18.898  0.00  0.00    +0.000 A 
ATOM     14  N   UNL     1       3.619   4.936  19.374  0.00  0.00    +0.000 N 
ATOM     15  H   UNL     1       5.597   7.049  15.383  0.00  0.00    +0.000 HD
ENDROOT
BRANCH  11  16
ATOM     16  C   UNL     1       0.963   9.174  19.894  0.00  0.00    +0.000 A 
ATOM     17  C   UNL     1       0.916   9.138  21.285  0.00  0.00    +0.000 A 
ATOM     18  C   UNL     1       0.019   9.955  21.951  0.00  0.00    +0.000 A 
ATOM     19  C   UNL     1      -0.816  10.777  21.208  0.00  0.00    +0.000 A 
ATOM     20  C   UNL     1      -0.773  10.750  19.815  0.00  0.00    +0.000 A 
ATOM     21  N   UNL     1       0.107   9.949  19.171  0.00  0.00    +0.000 NA
BRANCH  20  22
ATOM     22  N   UNL     1      -1.655  11.507  19.081  0.00  0.00    +0.000 N 
ATOM     23  C   UNL     1      -2.700  12.296  19.736  0.00  0.00    +0.000 C 
ATOM     24  C   UNL     1      -4.087  11.926  19.192  0.00  0.00    +0.000 C 
ATOM     25  O   UNL     1      -4.129  11.975  17.755  0.00  0.00    +0.000 OA
ATOM     26  C   UNL     1      -3.171  11.057  17.205  0.00  0.00    +0.000 C 
ATOM     27  C   UNL     1      -1.739  11.423  17.622  0.00  0.00    +0.000 C 
ENDBRANCH  20  22
ENDBRANCH  11  16
BRANCH  14  28
ATOM     28  C   UNL     1       3.128   4.368  20.639  0.00  0.00    +0.000 C 
BRANCH  28  29
ATOM     29  C   UNL     1       1.968   3.362  20.554  0.00  0.00    +0.000 C 
ATOM     30  F   UNL     1       0.912   3.672  21.332  0.00  0.00    +0.000 F 
ATOM     31  F   UNL     1       1.530   3.229  19.279  0.00  0.00    +0.000 F 
ATOM     32  F   UNL     1       2.395   2.133  20.945  0.00  0.00    +0.000 F 
ENDBRANCH  28  29
ENDBRANCH  14  28
TORSDOF 4
ENDMDL
MODEL 6
REMARK VINA RESULT:      -8.7      1.699      2.087
REMARK  Name = 
REMARK  4 active torsions:
REMARK  status: ('A' for Active; 'I' for Inactive)
REMARK    1  A    between atoms: C_11  and  C_12
REMARK    2  A    between atoms: C_16  and  N_17
REMARK    3  A    between atoms: N_26  and  C_27
REMARK    4  A    between atoms: C_27  and  C_28
REMARK                            x       y       z     vdW  Elec       q    Type
REMARK                         _______ _______ _______ _____ _____    ______ ____
ROOT
ATOM      1  O   UNL     1       3.678   1.893  17.886  0.00  0.00    +0.000 OA
ATOM      2  C   UNL     1       3.666   3.116  17.749  0.00  0.00    +0.000 A 
ATOM      3  C   UNL     1       4.577   3.781  16.854  0.00  0.00    +0.000 A 
ATOM      4  C   UNL     1       5.559   3.313  15.966  0.00  0.00    +0.000 A 
ATOM      5  N   UNL     1       6.198   4.315  15.349  0.00  0.00    +0.000 NA
ATOM      6  N   UNL     1       5.611   5.421  15.848  0.00  0.00    +0.000 N 
ATOM      7  C   UNL     1       4.628   5.146  16.749  0.00  0.00    +0.000 A 
ATOM      8  C   UNL     1       3.777   6.025  17.516  0.00  0.00    +0.000 A 
ATOM      9  C   UNL     1       3.870   7.415  17.418  0.00  0.00    +0.000 A 
ATOM     10  C   UNL     1       3.045   8.218  18.202  0.00  0.00    +0.000 A 
ATOM     11  C   UNL     1       2.128   7.662  19.110  0.00  0.00    +0.000 A 
ATOM     12  C   UNL     1       2.026   6.253  19.164  0.00  0.00    +0.000 A 
ATOM     13  C   UNL     1       2.847   5.410  18.394  0.00  0.00    +0.000 A 
ATOM     14  N   UNL     1       2.792   3.958  18.487  0.00  0.00    +0.000 N 
ATOM     15  H   UNL     1       5.946   6.324  15.528  0.00  0.00    +0.000 HD
ENDROOT
BRANCH  11  16
ATOM     16  C   UNL     1       1.310   8.516  20.005  0.00  0.00    +0.000 A 
ATOM     17  C   UNL     1       1.298   8.335  21.386  0.00  0.00    +0.000 A 
ATOM     18  C   UNL     1       0.529   9.177  22.169  0.00  0.00    +0.000 A 
ATOM     19  C   UNL     1      -0.219  10.170  21.552  0.00  0.00    +0.000 A 
ATOM     20  C   UNL     1      -0.218  10.289  20.163  0.00  0.00    +0.000 A 
ATOM     21  N   UNL     1       0.537   9.462  19.402  0.00  0.00    +0.000 NA
BRANCH  20  22
ATOM     22  N   UNL     1      -1.020  11.221  19.548  0.00  0.00    +0.000 N 
ATOM     23  C   UNL     1      -1.570  12.354  20.295  0.00  0.00    +0.000 C 
ATOM     24  C   UNL     1      -3.100  12.398  20.173  0.00  0.00    +0.000 C 
ATOM     25  O   UNL     1      -3.529  12.336  18.802  0.00  0.00    +0.000 OA
ATOM     26  C   UNL     1      -3.067  11.118  18.197  0.00  0.00    +0.000 C 
ATOM     27  C   UNL     1      -1.532  11.044  18.188  0.00  0.00    +0.000 C 
ENDBRANCH  20  22
ENDBRANCH  11  16
BRANCH  14  28
ATOM     28  C   UNL     1       1.949   3.258  19.469  0.00  0.00    +0.000 C 
BRANCH  28  29
ATOM     29  C   UNL     1       2.507   3.109  20.894  0.00  0.00    +0.000 C 
ATOM     30  F   UNL     1       1.805   2.263  21.675  0.00  0.00    +0.000 F 
ATOM     31  F   UNL     1       3.796   2.693  20.872  0.00  0.00    +0.000 F 
ATOM     32  F   UNL     1       2.502   4.315  21.520  0.00  0.00    +0.000 F 
ENDBRANCH  28  29
ENDBRANCH  14  28
TORSDOF 4
ENDMDL
MODEL 7
REMARK VINA RESULT:      -8.7      2.591      3.022
REMARK  Name = 
REMARK  4 active torsions:
REMARK  status: ('A' for Active; 'I' for Inactive)
REMARK    1  A    between atoms: C_11  and  C_12
REMARK    2  A    between atoms: C_16  and  N_17
REMARK    3  A    between atoms: N_26  and  C_27
REMARK    4  A    between atoms: C_27  and  C_28
REMARK                            x       y       z     vdW  Elec       q    Type
REMARK                         _______ _______ _______ _____ _____    ______ ____
ROOT
ATOM      1  O   UNL     1       4.995   3.282  19.636  0.00  0.00    +0.000 OA
ATOM      2  C   UNL     1       4.720   4.320  19.036  0.00  0.00    +0.000 A 
ATOM      3  C   UNL     1       5.577   4.841  18.002  0.00  0.00    +0.000 A 
ATOM      4  C   UNL     1       6.764   4.372  17.417  0.00  0.00    +0.000 A 
ATOM      5  N   UNL     1       7.239   5.218  16.495  0.00  0.00    +0.000 NA
ATOM      6  N   UNL     1       6.342   6.225  16.495  0.00  0.00    +0.000 N 
ATOM      7  C   UNL     1       5.324   6.035  17.381  0.00  0.00    +0.000 A 
ATOM      8  C   UNL     1       4.186   6.863  17.702  0.00  0.00    +0.000 A 
ATOM      9  C   UNL     1       3.967   8.093  17.079  0.00  0.00    +0.000 A 
ATOM     10  C   UNL     1       2.869   8.868  17.447  0.00  0.00    +0.000 A 
ATOM     11  C   UNL     1       1.979   8.448  18.451  0.00  0.00    +0.000 A 
ATOM     12  C   UNL     1       2.200   7.181  19.040  0.00  0.00    +0.000 A 
ATOM     13  C   UNL     1       3.302   6.376  18.700  0.00  0.00    +0.000 A 
ATOM     14  N   UNL     1       3.573   5.098  19.344  0.00  0.00    +0.000 N 
ATOM     15  H   UNL     1       6.502   7.007  15.869  0.00  0.00    +0.000 HD
ENDROOT
BRANCH  11  16
ATOM     16  C   UNL     1       0.858   9.308  18.902  0.00  0.00    +0.000 A 
ATOM     17  C   UNL     1       0.919  10.033  20.089  0.00  0.00    +0.000 A 
ATOM     18  C   UNL     1      -0.152  10.833  20.446  0.00  0.00    +0.000 A 
ATOM     19  C   UNL     1      -1.260  10.879  19.613  0.00  0.00    +0.000 A 
ATOM     20  C   UNL     1      -1.304  10.102  18.457  0.00  0.00    +0.000 A 
ATOM     21  N   UNL     1      -0.252   9.321  18.114  0.00  0.00    +0.000 NA
BRANCH  20  22
ATOM     22  N   UNL     1      -2.434  10.087  17.675  0.00  0.00    +0.000 N 
ATOM     23  C   UNL     1      -2.362   9.755  16.250  0.00  0.00    +0.000 C 
ATOM     24  C   UNL     1      -2.975  10.874  15.397  0.00  0.00    +0.000 C 
ATOM     25  O   UNL     1      -4.293  11.233  15.850  0.00  0.00    +0.000 OA
ATOM     26  C   UNL     1      -4.236  11.687  17.212  0.00  0.00    +0.000 C 
ATOM     27  C   UNL     1      -3.727  10.583  18.150  0.00  0.00    +0.000 C 
ENDBRANCH  20  22
ENDBRANCH  11  16
BRANCH  14  28
ATOM     28  C   UNL     1       2.776   4.597  20.475  0.00  0.00    +0.000 C 
BRANCH  28  29
ATOM     29  C   UNL     1       1.534   3.754  20.139  0.00  0.00    +0.000 C 
ATOM     30  F   UNL     1       1.508   2.548  20.741  0.00  0.00    +0.000 F 
ATOM     31  F   UNL     1       0.395   4.413  20.462  0.00  0.00    +0.000 F 
ATOM     32  F   UNL     1       1.481   3.525  18.801  0.00  0.00    +0.000 F 
ENDBRANCH  28  29
ENDBRANCH  14  28
TORSDOF 4
ENDMDL
MODEL 8
REMARK VINA RESULT:      -8.7      1.182      1.593
REMARK  Name = 
REMARK  4 active torsions:
REMARK  status: ('A' for Active; 'I' for Inactive)
REMARK    1  A    between atoms: C_11  and  C_12
REMARK    2  A    between atoms: C_16  and  N_17
REMARK    3  A    between atoms: N_26  and  C_27
REMARK    4  A    between atoms: C_27  and  C_28
REMARK                            x       y       z     vdW  Elec       q    Type
REMARK                         _______ _______ _______ _____ _____    ______ ____
ROOT
ATOM      1  O   UNL     1       3.705   1.863  17.828  0.00  0.00    +0.000 OA
ATOM      2  C   UNL     1       3.703   3.085  17.685  0.00  0.00    +0.000 A 
ATOM      3  C   UNL     1       4.626   3.740  16.794  0.00  0.00    +0.000 A 
ATOM      4  C   UNL     1       5.610   3.260  15.915  0.00  0.00    +0.000 A 
ATOM      5  N   UNL     1       6.261   4.255  15.299  0.00  0.00    +0.000 NA
ATOM      6  N   UNL     1       5.680   5.368  15.789  0.00  0.00    +0.000 N 
ATOM      7  C   UNL     1       4.687   5.103  16.685  0.00  0.00    +0.000 A 
ATOM      8  C   UNL     1       3.839   5.992  17.441  0.00  0.00    +0.000 A 
ATOM      9  C   UNL     1       3.942   7.381  17.339  0.00  0.00    +0.000 A 
ATOM     10  C   UNL     1       3.119   8.194  18.114  0.00  0.00    +0.000 A 
ATOM     11  C   UNL     1       2.191   7.649  19.018  0.00  0.00    +0.000 A 
ATOM     12  C   UNL     1       2.078   6.240  19.077  0.00  0.00    +0.000 A 
ATOM     13  C   UNL     1       2.897   5.388  18.316  0.00  0.00    +0.000 A 
ATOM     14  N   UNL     1       2.831   3.936  18.414  0.00  0.00    +0.000 N 
ATOM     15  H   UNL     1       6.023   6.267  15.468  0.00  0.00    +0.000 HD
ENDROOT
BRANCH  11  16
ATOM     16  C   UNL     1       1.373   8.512  19.904  0.00  0.00    +0.000 A 
ATOM     17  C   UNL     1       1.065   8.143  21.211  0.00  0.00    +0.000 A 
ATOM     18  C   UNL     1       0.313   9.001  21.994  0.00  0.00    +0.000 A 
ATOM     19  C   UNL     1      -0.121  10.200  21.447  0.00  0.00    +0.000 A 
ATOM     20  C   UNL     1       0.168  10.513  20.120  0.00  0.00    +0.000 A 
ATOM     21  N   UNL     1       0.903   9.668  19.359  0.00  0.00    +0.000 NA
BRANCH  20  22
ATOM     22  N   UNL     1      -0.331  11.664  19.556  0.00  0.00    +0.000 N 
ATOM     23  C   UNL     1       0.523  12.540  18.751  0.00  0.00    +0.000 C 
ATOM     24  C   UNL     1       0.509  13.972  19.303  0.00  0.00    +0.000 C 
ATOM     25  O   UNL     1      -0.831  14.463  19.485  0.00  0.00    +0.000 OA
ATOM     26  C   UNL     1      -1.541  13.621  20.406  0.00  0.00    +0.000 C 
ATOM     27  C   UNL     1      -1.660  12.185  19.875  0.00  0.00    +0.000 C 
ENDBRANCH  20  22
ENDBRANCH  11  16
BRANCH  14  28
ATOM     28  C   UNL     1       1.975   3.247  19.392  0.00  0.00    +0.000 C 
BRANCH  28  29
ATOM     29  C   UNL     1       2.504   3.136  20.832  0.00  0.00    +0.000 C 
ATOM     30  F   UNL     1       2.526   4.305  21.503  0.00  0.00    +0.000 F 
ATOM     31  F   UNL     1       1.777   2.248  21.552  0.00  0.00    +0.000 F 
ATOM     32  F   UNL     1       3.780   2.668  20.819  0.00  0.00    +0.000 F 
ENDBRANCH  28  29
ENDBRANCH  14  28
TORSDOF 4
ENDMDL
MODEL 9
REMARK VINA RESULT:      -8.6      1.022      1.194
REMARK  Name = 
REMARK  4 active torsions:
REMARK  status: ('A' for Active; 'I' for Inactive)
REMARK    1  A    between atoms: C_11  and  C_12
REMARK    2  A    between atoms: C_16  and  N_17
REMARK    3  A    between atoms: N_26  and  C_27
REMARK    4  A    between atoms: C_27  and  C_28
REMARK                            x       y       z     vdW  Elec       q    Type
REMARK                         _______ _______ _______ _____ _____    ______ ____
ROOT
ATOM      1  O   UNL     1       3.679   1.887  17.855  0.00  0.00    +0.000 OA
ATOM      2  C   UNL     1       3.662   3.111  17.738  0.00  0.00    +0.000 A 
ATOM      3  C   UNL     1       4.560   3.795  16.844  0.00  0.00    +0.000 A 
ATOM      4  C   UNL     1       5.531   3.344  15.936  0.00  0.00    +0.000 A 
ATOM      5  N   UNL     1       6.160   4.359  15.328  0.00  0.00    +0.000 NA
ATOM      6  N   UNL     1       5.577   5.455  15.853  0.00  0.00    +0.000 N 
ATOM      7  C   UNL     1       4.605   5.161  16.762  0.00  0.00    +0.000 A 
ATOM      8  C   UNL     1       3.763   6.024  17.554  0.00  0.00    +0.000 A 
ATOM      9  C   UNL     1       3.850   7.416  17.479  0.00  0.00    +0.000 A 
ATOM     10  C   UNL     1       3.034   8.204  18.288  0.00  0.00    +0.000 A 
ATOM     11  C   UNL     1       2.130   7.629  19.198  0.00  0.00    +0.000 A 
ATOM     12  C   UNL     1       2.032   6.219  19.228  0.00  0.00    +0.000 A 
ATOM     13  C   UNL     1       2.845   5.392  18.433  0.00  0.00    +0.000 A 
ATOM     14  N   UNL     1       2.796   3.938  18.502  0.00  0.00    +0.000 N 
ATOM     15  H   UNL     1       5.905   6.364  15.544  0.00  0.00    +0.000 HD
ENDROOT
BRANCH  11  16
ATOM     16  C   UNL     1       1.321   8.465  20.118  0.00  0.00    +0.000 A 
ATOM     17  C   UNL     1       0.700   7.931  21.244  0.00  0.00    +0.000 A 
ATOM     18  C   UNL     1      -0.025   8.767  22.074  0.00  0.00    +0.000 A 
ATOM     19  C   UNL     1      -0.123  10.112  21.751  0.00  0.00    +0.000 A 
ATOM     20  C   UNL     1       0.473  10.601  20.589  0.00  0.00    +0.000 A 
ATOM     21  N   UNL     1       1.181   9.778  19.781  0.00  0.00    +0.000 NA
BRANCH  20  22
ATOM     22  N   UNL     1       0.309  11.918  20.228  0.00  0.00    +0.000 N 
ATOM     23  C   UNL     1      -0.969  12.402  19.702  0.00  0.00    +0.000 C 
ATOM     24  C   UNL     1      -0.778  13.072  18.334  0.00  0.00    +0.000 C 
ATOM     25  O   UNL     1       0.260  14.068  18.367  0.00  0.00    +0.000 OA
ATOM     26  C   UNL     1       1.506  13.467  18.749  0.00  0.00    +0.000 C 
ATOM     27  C   UNL     1       1.426  12.860  20.158  0.00  0.00    +0.000 C 
ENDBRANCH  20  22
ENDBRANCH  11  16
BRANCH  14  28
ATOM     28  C   UNL     1       1.967   3.219  19.482  0.00  0.00    +0.000 C 
BRANCH  28  29
ATOM     29  C   UNL     1       2.501   3.130  20.922  0.00  0.00    +0.000 C 
ATOM     30  F   UNL     1       2.514   4.307  21.579  0.00  0.00    +0.000 F 
ATOM     31  F   UNL     1       1.783   2.244  21.654  0.00  0.00    +0.000 F 
ATOM     32  F   UNL     1       3.780   2.673  20.911  0.00  0.00    +0.000 F 
ENDBRANCH  28  29
ENDBRANCH  14  28
TORSDOF 4
ENDMDL
