MODEL 1
REMARK VINA RESULT:      -8.7      0.000      0.000
REMARK  Name = 
REMARK  7 active torsions:
REMARK  status: ('A' for Active; 'I' for Inactive)
REMARK    1  A    between atoms: C_1  and  O_2
REMARK    2  A    between atoms: O_2  and  C_3
REMARK    3  A    between atoms: C_7  and  N_8
REMARK    4  A    between atoms: C_9  and  C_11
REMARK    5  A    between atoms: N_14  and  C_15
REMARK    6  A    between atoms: C_15  and  C_16
REMARK    7  A    between atoms: C_17  and  C_18
REMARK                            x       y       z     vdW  Elec       q    Type
REMARK                         _______ _______ _______ _____ _____    ______ ____
ROOT
ATOM      1  C   UNL     1       6.874   4.195  16.757  0.00  0.00    +0.000 C 
ATOM      2  C   UNL     1       7.631   4.697  17.986  0.00  0.00    +0.000 C 
ATOM      3  C   UNL     1       7.245   6.135  18.326  0.00  0.00    +0.000 C 
ATOM      4  N   UNL     1       7.524   7.038  17.199  0.00  0.00    +0.000 NA
ATOM      5  C   UNL     1       6.746   6.637  16.013  0.00  0.00    +0.000 C 
ATOM      6  C   UNL     1       7.085   5.194  15.603  0.00  0.00    +0.000 C 
ENDROOT
BRANCH   1   8
ATOM      7  N   UNL     1       5.096   3.523  18.323  0.00  0.00    +0.000 N 
ATOM      8  C   UNL     1       5.385   4.005  17.054  0.00  0.00    +0.000 C 
ATOM      9  O   UNL     1       4.543   4.287  16.202  0.00  0.00    +0.000 OA
ATOM     10  H   UNL     1       5.864   3.378  18.966  0.00  0.00    +0.000 HD
BRANCH   7  15
ATOM     11  C   UNL     1       1.887   4.162  20.085  0.00  0.00    +0.000 A 
ATOM     12  C   UNL     1       1.228   2.945  19.907  0.00  0.00    +0.000 A 
ATOM     13  C   UNL     1       1.837   1.914  19.197  0.00  0.00    +0.000 A 
ATOM     14  C   UNL     1       3.111   2.098  18.673  0.00  0.00    +0.000 A 
ATOM     15  C   UNL     1       3.794   3.308  18.835  0.00  0.00    +0.000 A 
ATOM     16  C   UNL     1       3.165   4.347  19.544  0.00  0.00    +0.000 A 
BRANCH  11  18
ATOM     17  C   UNL     1       1.553   6.450  20.660  0.00  0.00    +0.000 C 
ATOM     18  O   UNL     1       1.177   5.087  20.806  0.00  0.00    +0.000 OA
ENDBRANCH  11  18
ENDBRANCH   7  15
ENDBRANCH   1   8
BRANCH   4  19
ATOM     19  C   UNL     1       7.205   8.427  17.562  0.00  0.00    +0.000 C 
BRANCH  19  20
ATOM     20  C   UNL     1       8.385   9.133  18.171  0.00  0.00    +0.000 C 
ATOM     21  C   UNL     1       8.616  10.448  18.031  0.00  0.00    +0.000 C 
BRANCH  21  22
ATOM     22  C   UNL     1       9.812  11.074  18.592  0.00  0.00    +0.000 A 
ATOM     23  C   UNL     1       9.911  11.221  19.980  0.00  0.00    +0.000 A 
ATOM     24  C   UNL     1      11.021  11.854  20.541  0.00  0.00    +0.000 A 
ATOM     25  C   UNL     1      12.037  12.336  19.720  0.00  0.00    +0.000 A 
ATOM     26  C   UNL     1      11.950  12.181  18.335  0.00  0.00    +0.000 A 
ATOM     27  C   UNL     1      10.836  11.551  17.771  0.00  0.00    +0.000 A 
ENDBRANCH  21  22
ENDBRANCH  19  20
ENDBRANCH   4  19
TORSDOF 6
ENDMDL
MODEL 2
REMARK VINA RESULT:      -8.1      0.994      1.368
REMARK  Name = 
REMARK  7 active torsions:
REMARK  status: ('A' for Active; 'I' for Inactive)
REMARK    1  A    between atoms: C_1  and  O_2
REMARK    2  A    between atoms: O_2  and  C_3
REMARK    3  A    between atoms: C_7  and  N_8
REMARK    4  A    between atoms: C_9  and  C_11
REMARK    5  A    between atoms: N_14  and  C_15
REMARK    6  A    between atoms: C_15  and  C_16
REMARK    7  A    between atoms: C_17  and  C_18
REMARK                            x       y       z     vdW  Elec       q    Type
REMARK                         _______ _______ _______ _____ _____    ______ ____
ROOT
ATOM      1  C   UNL     1       7.179   4.488  17.659  0.00  0.00    +0.000 C 
ATOM      2  C   UNL     1       8.240   5.231  18.470  0.00  0.00    +0.000 C 
ATOM      3  C   UNL     1       7.843   6.687  18.701  0.00  0.00    +0.000 C 
ATOM      4  N   UNL     1       7.647   7.391  17.425  0.00  0.00    +0.000 NA
ATOM      5  C   UNL     1       6.569   6.754  16.645  0.00  0.00    +0.000 C 
ATOM      6  C   UNL     1       6.900   5.279  16.367  0.00  0.00    +0.000 C 
ENDROOT
BRANCH   1   8
ATOM      7  N   UNL     1       4.825   3.768  17.753  0.00  0.00    +0.000 N 
ATOM      8  C   UNL     1       5.895   4.286  18.468  0.00  0.00    +0.000 C 
ATOM      9  O   UNL     1       5.869   4.564  19.667  0.00  0.00    +0.000 OA
ATOM     10  H   UNL     1       4.973   3.522  16.783  0.00  0.00    +0.000 HD
BRANCH   7  15
ATOM     11  C   UNL     1       1.681   4.122  19.702  0.00  0.00    +0.000 A 
ATOM     12  C   UNL     1       1.055   2.904  19.438  0.00  0.00    +0.000 A 
ATOM     13  C   UNL     1       1.664   1.967  18.608  0.00  0.00    +0.000 A 
ATOM     14  C   UNL     1       2.905   2.245  18.051  0.00  0.00    +0.000 A 
ATOM     15  C   UNL     1       3.556   3.460  18.297  0.00  0.00    +0.000 A 
ATOM     16  C   UNL     1       2.926   4.404  19.127  0.00  0.00    +0.000 A 
BRANCH  11  18
ATOM     17  C   UNL     1       1.574   6.194  20.875  0.00  0.00    +0.000 C 
ATOM     18  O   UNL     1       0.975   4.950  20.537  0.00  0.00    +0.000 OA
ENDBRANCH  11  18
ENDBRANCH   7  15
ENDBRANCH   1   8
BRANCH   4  19
ATOM     19  C   UNL     1       7.325   8.807  17.661  0.00  0.00    +0.000 C 
BRANCH  19  20
ATOM     20  C   UNL     1       8.510   9.571  18.185  0.00  0.00    +0.000 C 
ATOM     21  C   UNL     1       8.784  10.840  17.842  0.00  0.00    +0.000 C 
BRANCH  21  22
ATOM     22  C   UNL     1       9.984  11.517  18.331  0.00  0.00    +0.000 A 
ATOM     23  C   UNL     1      10.771  12.236  17.424  0.00  0.00    +0.000 A 
ATOM     24  C   UNL     1      11.945  12.856  17.853  0.00  0.00    +0.000 A 
ATOM     25  C   UNL     1      12.333  12.766  19.187  0.00  0.00    +0.000 A 
ATOM     26  C   UNL     1      11.546  12.062  20.098  0.00  0.00    +0.000 A 
ATOM     27  C   UNL     1      10.370  11.436  19.670  0.00  0.00    +0.000 A 
ENDBRANCH  21  22
ENDBRANCH  19  20
ENDBRANCH   4  19
TORSDOF 6
ENDMDL
MODEL 3
REMARK VINA RESULT:      -7.9      1.440      1.892
REMARK  Name = 
REMARK  7 active torsions:
REMARK  status: ('A' for Active; 'I' for Inactive)
REMARK    1  A    between atoms: C_1  and  O_2
REMARK    2  A    between atoms: O_2  and  C_3
REMARK    3  A    between atoms: C_7  and  N_8
REMARK    4  A    between atoms: C_9  and  C_11
REMARK    5  A    between atoms: N_14  and  C_15
REMARK    6  A    between atoms: C_15  and  C_16
REMARK    7  A    between atoms: C_17  and  C_18
REMARK                            x       y       z     vdW  Elec       q    Type
REMARK                         _______ _______ _______ _____ _____    ______ ____
ROOT
ATOM      1  C   UNL     1       5.469   4.685  15.755  0.00  0.00    +0.000 C 
ATOM      2  C   UNL     1       6.930   4.347  16.049  0.00  0.00    +0.000 C 
ATOM      3  C   UNL     1       7.453   5.138  17.246  0.00  0.00    +0.000 C 
ATOM      4  N   UNL     1       7.342   6.586  17.011  0.00  0.00    +0.000 NA
ATOM      5  C   UNL     1       5.934   6.969  16.806  0.00  0.00    +0.000 C 
ATOM      6  C   UNL     1       5.335   6.214  15.608  0.00  0.00    +0.000 C 
ENDROOT
BRANCH   1   8
ATOM      7  N   UNL     1       3.633   5.078  17.349  0.00  0.00    +0.000 N 
ATOM      8  C   UNL     1       4.539   4.154  16.848  0.00  0.00    +0.000 C 
ATOM      9  O   UNL     1       4.619   2.981  17.213  0.00  0.00    +0.000 OA
ATOM     10  H   UNL     1       3.615   6.002  16.937  0.00  0.00    +0.000 HD
BRANCH   7  15
ATOM     11  C   UNL     1       1.472   5.509  20.341  0.00  0.00    +0.000 A 
ATOM     12  C   UNL     1       0.746   4.318  20.330  0.00  0.00    +0.000 A 
ATOM     13  C   UNL     1       0.959   3.375  19.329  0.00  0.00    +0.000 A 
ATOM     14  C   UNL     1       1.909   3.619  18.345  0.00  0.00    +0.000 A 
ATOM     15  C   UNL     1       2.651   4.805  18.331  0.00  0.00    +0.000 A 
ATOM     16  C   UNL     1       2.418   5.757  19.340  0.00  0.00    +0.000 A 
BRANCH  11  18
ATOM     17  C   UNL     1       1.214   7.744  21.126  0.00  0.00    +0.000 C 
ATOM     18  O   UNL     1       1.166   6.347  21.383  0.00  0.00    +0.000 OA
ENDBRANCH  11  18
ENDBRANCH   7  15
ENDBRANCH   1   8
BRANCH   4  19
ATOM     19  C   UNL     1       7.905   7.336  18.145  0.00  0.00    +0.000 C 
BRANCH  19  20
ATOM     20  C   UNL     1       8.381   8.702  17.733  0.00  0.00    +0.000 C 
ATOM     21  C   UNL     1       8.890   9.600  18.592  0.00  0.00    +0.000 C 
BRANCH  21  22
ATOM     22  C   UNL     1       9.280  10.938  18.150  0.00  0.00    +0.000 A 
ATOM     23  C   UNL     1      10.636  11.210  17.933  0.00  0.00    +0.000 A 
ATOM     24  C   UNL     1      11.043  12.489  17.554  0.00  0.00    +0.000 A 
ATOM     25  C   UNL     1      10.099  13.498  17.384  0.00  0.00    +0.000 A 
ATOM     26  C   UNL     1       8.744  13.230  17.587  0.00  0.00    +0.000 A 
ATOM     27  C   UNL     1       8.334  11.949  17.971  0.00  0.00    +0.000 A 
ENDBRANCH  21  22
ENDBRANCH  19  20
ENDBRANCH   4  19
TORSDOF 6
ENDMDL
MODEL 4
REMARK VINA RESULT:      -7.8      1.443      1.522
REMARK  Name = 
REMARK  7 active torsions:
REMARK  status: ('A' for Active; 'I' for Inactive)
REMARK    1  A    between atoms: C_1  and  O_2
REMARK    2  A    between atoms: O_2  and  C_3
REMARK    3  A    between atoms: C_7  and  N_8
REMARK    4  A    between atoms: C_9  and  C_11
REMARK    5  A    between atoms: N_14  and  C_15
REMARK    6  A    between atoms: C_15  and  C_16
REMARK    7  A    between atoms: C_17  and  C_18
REMARK                            x       y       z     vdW  Elec       q    Type
REMARK                         _______ _______ _______ _____ _____    ______ ____
ROOT
ATOM      1  C   UNL     1       7.142   4.475  17.481  0.00  0.00    +0.000 C 
ATOM      2  C   UNL     1       8.242   5.180  18.272  0.00  0.00    +0.000 C 
ATOM      3  C   UNL     1       7.867   6.630  18.574  0.00  0.00    +0.000 C 
ATOM      4  N   UNL     1       7.623   7.382  17.333  0.00  0.00    +0.000 NA
ATOM      5  C   UNL     1       6.509   6.782  16.577  0.00  0.00    +0.000 C 
ATOM      6  C   UNL     1       6.815   5.315  16.231  0.00  0.00    +0.000 C 
ENDROOT
BRANCH   1   8
ATOM      7  N   UNL     1       4.792   3.757  17.650  0.00  0.00    +0.000 N 
ATOM      8  C   UNL     1       5.892   4.252  18.335  0.00  0.00    +0.000 C 
ATOM      9  O   UNL     1       5.916   4.495  19.542  0.00  0.00    +0.000 OA
ATOM     10  H   UNL     1       4.899   3.539  16.668  0.00  0.00    +0.000 HD
BRANCH   7  15
ATOM     11  C   UNL     1       2.308   2.595  20.158  0.00  0.00    +0.000 A 
ATOM     12  C   UNL     1       1.114   2.744  19.453  0.00  0.00    +0.000 A 
ATOM     13  C   UNL     1       1.125   3.237  18.151  0.00  0.00    +0.000 A 
ATOM     14  C   UNL     1       2.332   3.573  17.552  0.00  0.00    +0.000 A 
ATOM     15  C   UNL     1       3.545   3.435  18.236  0.00  0.00    +0.000 A 
ATOM     16  C   UNL     1       3.522   2.947  19.555  0.00  0.00    +0.000 A 
BRANCH  11  18
ATOM     17  C   UNL     1       1.141   2.677  22.234  0.00  0.00    +0.000 C 
ATOM     18  O   UNL     1       2.156   2.096  21.426  0.00  0.00    +0.000 OA
ENDBRANCH  11  18
ENDBRANCH   7  15
ENDBRANCH   1   8
BRANCH   4  19
ATOM     19  C   UNL     1       7.324   8.790  17.635  0.00  0.00    +0.000 C 
BRANCH  19  20
ATOM     20  C   UNL     1       8.503   9.496  18.244  0.00  0.00    +0.000 C 
ATOM     21  C   UNL     1       8.867  10.747  17.920  0.00  0.00    +0.000 C 
BRANCH  21  22
ATOM     22  C   UNL     1      10.060  11.366  18.496  0.00  0.00    +0.000 A 
ATOM     23  C   UNL     1      10.241  11.323  19.883  0.00  0.00    +0.000 A 
ATOM     24  C   UNL     1      11.346  11.942  20.466  0.00  0.00    +0.000 A 
ATOM     25  C   UNL     1      12.277  12.600  19.666  0.00  0.00    +0.000 A 
ATOM     26  C   UNL     1      12.109  12.636  18.281  0.00  0.00    +0.000 A 
ATOM     27  C   UNL     1      10.999  12.019  17.696  0.00  0.00    +0.000 A 
ENDBRANCH  21  22
ENDBRANCH  19  20
ENDBRANCH   4  19
TORSDOF 6
ENDMDL
MODEL 5
REMARK VINA RESULT:      -7.8      3.447      7.374
REMARK  Name = 
REMARK  7 active torsions:
REMARK  status: ('A' for Active; 'I' for Inactive)
REMARK    1  A    between atoms: C_1  and  O_2
REMARK    2  A    between atoms: O_2  and  C_3
REMARK    3  A    between atoms: C_7  and  N_8
REMARK    4  A    between atoms: C_9  and  C_11
REMARK    5  A    between atoms: N_14  and  C_15
REMARK    6  A    between atoms: C_15  and  C_16
REMARK    7  A    between atoms: C_17  and  C_18
REMARK                            x       y       z     vdW  Elec       q    Type
REMARK                         _______ _______ _______ _____ _____    ______ ____
ROOT
ATOM      1  C   UNL     1       2.614   1.946  18.247  0.00  0.00    +0.000 C 
ATOM      2  C   UNL     1       1.205   2.401  18.622  0.00  0.00    +0.000 C 
ATOM      3  C   UNL     1       1.234   3.713  19.404  0.00  0.00    +0.000 C 
ATOM      4  N   UNL     1       2.029   3.576  20.634  0.00  0.00    +0.000 NA
ATOM      5  C   UNL     1       3.423   3.220  20.311  0.00  0.00    +0.000 C 
ATOM      6  C   UNL     1       3.476   1.900  19.523  0.00  0.00    +0.000 C 
ENDROOT
BRANCH   1   8
ATOM      7  N   UNL     1       4.623   2.949  17.234  0.00  0.00    +0.000 N 
ATOM      8  C   UNL     1       3.239   2.867  17.195  0.00  0.00    +0.000 C 
ATOM      9  O   UNL     1       2.522   3.457  16.386  0.00  0.00    +0.000 OA
ATOM     10  H   UNL     1       5.118   2.376  17.905  0.00  0.00    +0.000 HD
BRANCH   7  15
ATOM     11  C   UNL     1       6.953   5.557  15.978  0.00  0.00    +0.000 A 
ATOM     12  C   UNL     1       6.993   5.258  14.615  0.00  0.00    +0.000 A 
ATOM     13  C   UNL     1       6.259   4.189  14.110  0.00  0.00    +0.000 A 
ATOM     14  C   UNL     1       5.477   3.425  14.967  0.00  0.00    +0.000 A 
ATOM     15  C   UNL     1       5.419   3.702  16.337  0.00  0.00    +0.000 A 
ATOM     16  C   UNL     1       6.174   4.777  16.839  0.00  0.00    +0.000 A 
BRANCH  11  18
ATOM     17  C   UNL     1       7.410   7.261  17.579  0.00  0.00    +0.000 C 
ATOM     18  O   UNL     1       7.718   6.636  16.340  0.00  0.00    +0.000 OA
ENDBRANCH  11  18
ENDBRANCH   7  15
ENDBRANCH   1   8
BRANCH   4  19
ATOM     19  C   UNL     1       1.999   4.827  21.408  0.00  0.00    +0.000 C 
BRANCH  19  20
ATOM     20  C   UNL     1       1.621   6.006  20.554  0.00  0.00    +0.000 C 
ATOM     21  C   UNL     1       1.842   7.281  20.910  0.00  0.00    +0.000 C 
BRANCH  21  22
ATOM     22  C   UNL     1       1.399   8.393  20.071  0.00  0.00    +0.000 A 
ATOM     23  C   UNL     1       1.907   8.504  18.772  0.00  0.00    +0.000 A 
ATOM     24  C   UNL     1       1.536   9.579  17.963  0.00  0.00    +0.000 A 
ATOM     25  C   UNL     1       0.653  10.541  18.445  0.00  0.00    +0.000 A 
ATOM     26  C   UNL     1       0.133  10.430  19.736  0.00  0.00    +0.000 A 
ATOM     27  C   UNL     1       0.506   9.355  20.550  0.00  0.00    +0.000 A 
ENDBRANCH  21  22
ENDBRANCH  19  20
ENDBRANCH   4  19
TORSDOF 6
ENDMDL
MODEL 6
REMARK VINA RESULT:      -7.7      1.280      1.657
REMARK  Name = 
REMARK  7 active torsions:
REMARK  status: ('A' for Active; 'I' for Inactive)
REMARK    1  A    between atoms: C_1  and  O_2
REMARK    2  A    between atoms: O_2  and  C_3
REMARK    3  A    between atoms: C_7  and  N_8
REMARK    4  A    between atoms: C_9  and  C_11
REMARK    5  A    between atoms: N_14  and  C_15
REMARK    6  A    between atoms: C_15  and  C_16
REMARK    7  A    between atoms: C_17  and  C_18
REMARK                            x       y       z     vdW  Elec       q    Type
REMARK                         _______ _______ _______ _____ _____    ______ ____
ROOT
ATOM      1  C   UNL     1       5.594   4.744  15.421  0.00  0.00    +0.000 C 
ATOM      2  C   UNL     1       7.094   4.582  15.665  0.00  0.00    +0.000 C 
ATOM      3  C   UNL     1       7.533   5.316  16.931  0.00  0.00    +0.000 C 
ATOM      4  N   UNL     1       7.221   6.751  16.844  0.00  0.00    +0.000 NA
ATOM      5  C   UNL     1       5.769   6.955  16.692  0.00  0.00    +0.000 C 
ATOM      6  C   UNL     1       5.251   6.246  15.430  0.00  0.00    +0.000 C 
ENDROOT
BRANCH   1   8
ATOM      7  N   UNL     1       3.634   4.644  16.909  0.00  0.00    +0.000 N 
ATOM      8  C   UNL     1       4.771   3.985  16.465  0.00  0.00    +0.000 C 
ATOM      9  O   UNL     1       5.126   2.867  16.839  0.00  0.00    +0.000 OA
ATOM     10  H   UNL     1       3.405   5.537  16.492  0.00  0.00    +0.000 HD
BRANCH   7  15
ATOM     11  C   UNL     1       1.405   4.431  19.875  0.00  0.00    +0.000 A 
ATOM     12  C   UNL     1       0.883   3.145  19.735  0.00  0.00    +0.000 A 
ATOM     13  C   UNL     1       1.257   2.349  18.656  0.00  0.00    +0.000 A 
ATOM     14  C   UNL     1       2.163   2.837  17.722  0.00  0.00    +0.000 A 
ATOM     15  C   UNL     1       2.702   4.123  17.837  0.00  0.00    +0.000 A 
ATOM     16  C   UNL     1       2.307   4.924  18.925  0.00  0.00    +0.000 A 
BRANCH  11  18
ATOM     17  C   UNL     1       1.305   6.478  21.090  0.00  0.00    +0.000 C 
ATOM     18  O   UNL     1       0.958   5.104  20.983  0.00  0.00    +0.000 OA
ENDBRANCH  11  18
ENDBRANCH   7  15
ENDBRANCH   1   8
BRANCH   4  19
ATOM     19  C   UNL     1       7.704   7.456  18.042  0.00  0.00    +0.000 C 
BRANCH  19  20
ATOM     20  C   UNL     1       8.317   8.785  17.700  0.00  0.00    +0.000 C 
ATOM     21  C   UNL     1       8.859   9.608  18.613  0.00  0.00    +0.000 C 
BRANCH  21  22
ATOM     22  C   UNL     1       9.386  10.919  18.238  0.00  0.00    +0.000 A 
ATOM     23  C   UNL     1       8.487  11.944  17.922  0.00  0.00    +0.000 A 
ATOM     24  C   UNL     1       8.961  13.192  17.517  0.00  0.00    +0.000 A 
ATOM     25  C   UNL     1      10.331  13.423  17.434  0.00  0.00    +0.000 A 
ATOM     26  C   UNL     1      11.233  12.409  17.759  0.00  0.00    +0.000 A 
ATOM     27  C   UNL     1      10.760  11.156  18.161  0.00  0.00    +0.000 A 
ENDBRANCH  21  22
ENDBRANCH  19  20
ENDBRANCH   4  19
TORSDOF 6
ENDMDL
MODEL 7
REMARK VINA RESULT:      -7.7      0.929      1.058
REMARK  Name = 
REMARK  7 active torsions:
REMARK  status: ('A' for Active; 'I' for Inactive)
REMARK    1  A    between atoms: C_1  and  O_2
REMARK    2  A    between atoms: O_2  and  C_3
REMARK    3  A    between atoms: C_7  and  N_8
REMARK    4  A    between atoms: C_9  and  C_11
REMARK    5  A    between atoms: N_14  and  C_15
REMARK    6  A    between atoms: C_15  and  C_16
REMARK    7  A    between atoms: C_17  and  C_18
REMARK                            x       y       z     vdW  Elec       q    Type
REMARK                         _______ _______ _______ _____ _____    ______ ____
ROOT
ATOM      1  C   UNL     1       7.014   4.311  16.374  0.00  0.00    +0.000 C 
ATOM      2  C   UNL     1       7.756   4.691  17.655  0.00  0.00    +0.000 C 
ATOM      3  C   UNL     1       7.313   6.059  18.168  0.00  0.00    +0.000 C 
ATOM      4  N   UNL     1       7.547   7.104  17.160  0.00  0.00    +0.000 NA
ATOM      5  C   UNL     1       6.780   6.818  15.934  0.00  0.00    +0.000 C 
ATOM      6  C   UNL     1       7.176   5.452  15.351  0.00  0.00    +0.000 C 
ENDROOT
BRANCH   1   8
ATOM      7  N   UNL     1       5.263   3.487  17.898  0.00  0.00    +0.000 N 
ATOM      8  C   UNL     1       5.536   4.023  16.648  0.00  0.00    +0.000 C 
ATOM      9  O   UNL     1       4.687   4.281  15.794  0.00  0.00    +0.000 OA
ATOM     10  H   UNL     1       6.031   3.368  18.546  0.00  0.00    +0.000 HD
BRANCH   7  15
ATOM     11  C   UNL     1       2.354   3.305  20.203  0.00  0.00    +0.000 A 
ATOM     12  C   UNL     1       1.441   2.579  19.437  0.00  0.00    +0.000 A 
ATOM     13  C   UNL     1       1.779   2.157  18.154  0.00  0.00    +0.000 A 
ATOM     14  C   UNL     1       3.036   2.453  17.642  0.00  0.00    +0.000 A 
ATOM     15  C   UNL     1       3.971   3.180  18.387  0.00  0.00    +0.000 A 
ATOM     16  C   UNL     1       3.614   3.612  19.677  0.00  0.00    +0.000 A 
BRANCH  11  18
ATOM     17  C   UNL     1       1.217   2.650  22.192  0.00  0.00    +0.000 C 
ATOM     18  O   UNL     1       1.894   3.653  21.447  0.00  0.00    +0.000 OA
ENDBRANCH  11  18
ENDBRANCH   7  15
ENDBRANCH   1   8
BRANCH   4  19
ATOM     19  C   UNL     1       7.173   8.424  17.689  0.00  0.00    +0.000 C 
BRANCH  19  20
ATOM     20  C   UNL     1       8.355   9.349  17.776  0.00  0.00    +0.000 C 
ATOM     21  C   UNL     1       8.798   9.880  18.927  0.00  0.00    +0.000 C 
BRANCH  21  22
ATOM     22  C   UNL     1       9.915  10.824  18.949  0.00  0.00    +0.000 A 
ATOM     23  C   UNL     1      10.362  11.314  20.181  0.00  0.00    +0.000 A 
ATOM     24  C   UNL     1      11.396  12.249  20.231  0.00  0.00    +0.000 A 
ATOM     25  C   UNL     1      11.990  12.692  19.053  0.00  0.00    +0.000 A 
ATOM     26  C   UNL     1      11.558  12.199  17.822  0.00  0.00    +0.000 A 
ATOM     27  C   UNL     1      10.518  11.264  17.769  0.00  0.00    +0.000 A 
ENDBRANCH  21  22
ENDBRANCH  19  20
ENDBRANCH   4  19
TORSDOF 6
ENDMDL
MODEL 8
REMARK VINA RESULT:      -7.5      0.731      1.218
REMARK  Name = 
REMARK  7 active torsions:
REMARK  status: ('A' for Active; 'I' for Inactive)
REMARK    1  A    between atoms: C_1  and  O_2
REMARK    2  A    between atoms: O_2  and  C_3
REMARK    3  A    between atoms: C_7  and  N_8
REMARK    4  A    between atoms: C_9  and  C_11
REMARK    5  A    between atoms: N_14  and  C_15
REMARK    6  A    between atoms: C_15  and  C_16
REMARK    7  A    between atoms: C_17  and  C_18
REMARK                            x       y       z     vdW  Elec       q    Type
REMARK                         _______ _______ _______ _____ _____    ______ ____
ROOT
ATOM      1  C   UNL     1       6.797   4.677  16.531  0.00  0.00    +0.000 C 
ATOM      2  C   UNL     1       7.711   4.597  17.753  0.00  0.00    +0.000 C 
ATOM      3  C   UNL     1       7.557   5.830  18.642  0.00  0.00    +0.000 C 
ATOM      4  N   UNL     1       7.870   7.060  17.898  0.00  0.00    +0.000 NA
ATOM      5  C   UNL     1       6.953   7.219  16.755  0.00  0.00    +0.000 C 
ATOM      6  C   UNL     1       7.054   6.012  15.807  0.00  0.00    +0.000 C 
ENDROOT
BRANCH   1   8
ATOM      7  N   UNL     1       5.040   3.481  17.775  0.00  0.00    +0.000 N 
ATOM      8  C   UNL     1       5.324   4.538  16.922  0.00  0.00    +0.000 C 
ATOM      9  O   UNL     1       4.493   5.340  16.496  0.00  0.00    +0.000 OA
ATOM     10  H   UNL     1       5.809   2.917  18.111  0.00  0.00    +0.000 HD
BRANCH   7  15
ATOM     11  C   UNL     1       1.916   3.813  19.761  0.00  0.00    +0.000 A 
ATOM     12  C   UNL     1       1.243   2.641  19.413  0.00  0.00    +0.000 A 
ATOM     13  C   UNL     1       1.814   1.745  18.514  0.00  0.00    +0.000 A 
ATOM     14  C   UNL     1       3.063   2.016  17.972  0.00  0.00    +0.000 A 
ATOM     15  C   UNL     1       3.761   3.183  18.302  0.00  0.00    +0.000 A 
ATOM     16  C   UNL     1       3.170   4.088  19.202  0.00  0.00    +0.000 A 
BRANCH  11  18
ATOM     17  C   UNL     1       1.590   5.982  20.691  0.00  0.00    +0.000 C 
ATOM     18  O   UNL     1       1.245   4.604  20.658  0.00  0.00    +0.000 OA
ENDBRANCH  11  18
ENDBRANCH   7  15
ENDBRANCH   1   8
BRANCH   4  19
ATOM     19  C   UNL     1       7.778   8.233  18.781  0.00  0.00    +0.000 C 
BRANCH  19  20
ATOM     20  C   UNL     1       8.837   9.254  18.469  0.00  0.00    +0.000 C 
ATOM     21  C   UNL     1       9.313  10.128  19.371  0.00  0.00    +0.000 C 
BRANCH  21  22
ATOM     22  C   UNL     1      10.298  11.143  19.001  0.00  0.00    +0.000 A 
ATOM     23  C   UNL     1      10.422  11.504  17.654  0.00  0.00    +0.000 A 
ATOM     24  C   UNL     1      11.383  12.437  17.264  0.00  0.00    +0.000 A 
ATOM     25  C   UNL     1      12.218  13.016  18.216  0.00  0.00    +0.000 A 
ATOM     26  C   UNL     1      12.091  12.669  19.562  0.00  0.00    +0.000 A 
ATOM     27  C   UNL     1      11.130  11.731  19.955  0.00  0.00    +0.000 A 
ENDBRANCH  21  22
ENDBRANCH  19  20
ENDBRANCH   4  19
TORSDOF 6
ENDMDL
MODEL 9
REMARK VINA RESULT:      -7.4      2.359      3.733
REMARK  Name = 
REMARK  7 active torsions:
REMARK  status: ('A' for Active; 'I' for Inactive)
REMARK    1  A    between atoms: C_1  and  O_2
REMARK    2  A    between atoms: O_2  and  C_3
REMARK    3  A    between atoms: C_7  and  N_8
REMARK    4  A    between atoms: C_9  and  C_11
REMARK    5  A    between atoms: N_14  and  C_15
REMARK    6  A    between atoms: C_15  and  C_16
REMARK    7  A    between atoms: C_17  and  C_18
REMARK                            x       y       z     vdW  Elec       q    Type
REMARK                         _______ _______ _______ _____ _____    ______ ____
ROOT
ATOM      1  C   UNL     1       4.449   5.422  16.906  0.00  0.00    +0.000 C 
ATOM      2  C   UNL     1       5.417   4.502  17.648  0.00  0.00    +0.000 C 
ATOM      3  C   UNL     1       6.344   5.296  18.567  0.00  0.00    +0.000 C 
ATOM      4  N   UNL     1       7.123   6.285  17.805  0.00  0.00    +0.000 NA
ATOM      5  C   UNL     1       6.225   7.246  17.140  0.00  0.00    +0.000 C 
ATOM      6  C   UNL     1       5.259   6.519  16.189  0.00  0.00    +0.000 C 
ENDROOT
BRANCH   1   8
ATOM      7  N   UNL     1       3.190   7.391  17.684  0.00  0.00    +0.000 N 
ATOM      8  C   UNL     1       3.417   6.034  17.857  0.00  0.00    +0.000 C 
ATOM      9  O   UNL     1       2.847   5.327  18.688  0.00  0.00    +0.000 OA
ATOM     10  H   UNL     1       3.672   7.865  16.931  0.00  0.00    +0.000 HD
BRANCH   7  15
ATOM     11  C   UNL     1       1.129   8.601  20.530  0.00  0.00    +0.000 A 
ATOM     12  C   UNL     1       0.392   9.618  19.923  0.00  0.00    +0.000 A 
ATOM     13  C   UNL     1       0.580   9.914  18.576  0.00  0.00    +0.000 A 
ATOM     14  C   UNL     1       1.500   9.184  17.834  0.00  0.00    +0.000 A 
ATOM     15  C   UNL     1       2.254   8.160  18.416  0.00  0.00    +0.000 A 
ATOM     16  C   UNL     1       2.064   7.877  19.781  0.00  0.00    +0.000 A 
BRANCH  11  18
ATOM     17  C   UNL     1      -0.316   9.057  22.369  0.00  0.00    +0.000 C 
ATOM     18  O   UNL     1       0.843   8.411  21.858  0.00  0.00    +0.000 OA
ENDBRANCH  11  18
ENDBRANCH   7  15
ENDBRANCH   1   8
BRANCH   4  19
ATOM     19  C   UNL     1       8.054   6.999  18.692  0.00  0.00    +0.000 C 
BRANCH  19  20
ATOM     20  C   UNL     1       8.435   8.344  18.138  0.00  0.00    +0.000 C 
ATOM     21  C   UNL     1       8.904   9.351  18.892  0.00  0.00    +0.000 C 
BRANCH  21  22
ATOM     22  C   UNL     1       9.200  10.661  18.314  0.00  0.00    +0.000 A 
ATOM     23  C   UNL     1      10.537  11.029  18.122  0.00  0.00    +0.000 A 
ATOM     24  C   UNL     1      10.851  12.289  17.614  0.00  0.00    +0.000 A 
ATOM     25  C   UNL     1       9.834  13.182  17.288  0.00  0.00    +0.000 A 
ATOM     26  C   UNL     1       8.499  12.817  17.465  0.00  0.00    +0.000 A 
ATOM     27  C   UNL     1       8.181  11.555  17.979  0.00  0.00    +0.000 A 
ENDBRANCH  21  22
ENDBRANCH  19  20
ENDBRANCH   4  19
TORSDOF 6
ENDMDL
