MODEL 1
REMARK VINA RESULT:      -8.5      0.000      0.000
REMARK  Name = 
REMARK  4 active torsions:
REMARK  status: ('A' for Active; 'I' for Inactive)
REMARK    1  A    between atoms: C_2  and  C_4
REMARK    2  A    between atoms: C_7  and  C_8
REMARK    3  A    between atoms: C_11  and  C_12
REMARK    4  A    between atoms: C_15  and  C_16
REMARK                            x       y       z     vdW  Elec       q    Type
REMARK                         _______ _______ _______ _____ _____    ______ ____
ROOT
ATOM      1  C   UNL     1       2.819   6.506  18.836  0.00  0.00    +0.000 A 
ATOM      2  C   UNL     1       2.377   5.804  19.958  0.00  0.00    +0.000 A 
ATOM      3  C   UNL     1       1.579   6.571  20.818  0.00  0.00    +0.000 A 
ATOM      4  C   UNL     1       1.385   7.880  20.377  0.00  0.00    +0.000 A 
ATOM      5  S   UNL     1       2.203   8.064  18.924  0.00  0.00    +0.000 S 
ENDROOT
BRANCH   1   9
ATOM      6  C   UNL     1       5.491   5.125  15.748  0.00  0.00    +0.000 A 
ATOM      7  C   UNL     1       4.674   4.216  16.449  0.00  0.00    +0.000 A 
ATOM      8  C   UNL     1       3.796   4.656  17.441  0.00  0.00    +0.000 A 
ATOM      9  C   UNL     1       3.709   6.020  17.758  0.00  0.00    +0.000 A 
ATOM     10  C   UNL     1       4.508   6.931  17.049  0.00  0.00    +0.000 A 
ATOM     11  C   UNL     1       5.385   6.493  16.061  0.00  0.00    +0.000 A 
BRANCH   6  13
ATOM     12  N   UNL     1       7.515   5.305  14.471  0.00  0.00    +0.000 NA
ATOM     13  C   UNL     1       6.452   4.624  14.716  0.00  0.00    +0.000 C 
ATOM     14  N   UNL     1       6.216   3.429  13.977  0.00  0.00    +0.000 N 
ATOM     15  H   UNL     1       8.202   5.007  13.765  0.00  0.00    +0.000 HD
ATOM     16  H   UNL     1       6.890   3.123  13.260  0.00  0.00    +0.000 HD
ATOM     17  H   UNL     1       5.386   2.841  14.117  0.00  0.00    +0.000 HD
ENDBRANCH   6  13
ENDBRANCH   1   9
BRANCH   4  18
ATOM     18  C   UNL     1       0.629   8.959  21.051  0.00  0.00    +0.000 A 
ATOM     19  C   UNL     1       0.085  10.029  20.331  0.00  0.00    +0.000 A 
ATOM     20  C   UNL     1      -0.647  11.025  20.979  0.00  0.00    +0.000 A 
ATOM     21  C   UNL     1      -0.859  10.987  22.381  0.00  0.00    +0.000 A 
ATOM     22  C   UNL     1      -0.294   9.904  23.091  0.00  0.00    +0.000 A 
ATOM     23  C   UNL     1       0.433   8.913  22.439  0.00  0.00    +0.000 A 
BRANCH  21  24
ATOM     24  C   UNL     1      -1.662  12.050  23.095  0.00  0.00    +0.000 C 
ATOM     25  N   UNL     1      -1.149  13.190  23.410  0.00  0.00    +0.000 NA
ATOM     26  N   UNL     1      -3.027  11.841  23.444  0.00  0.00    +0.000 N 
ATOM     27  H   UNL     1      -0.185  13.479  23.217  0.00  0.00    +0.000 HD
ATOM     28  H   UNL     1      -3.541  10.977  23.241  0.00  0.00    +0.000 HD
ATOM     29  H   UNL     1      -3.549  12.589  23.924  0.00  0.00    +0.000 HD
ENDBRANCH  21  24
ENDBRANCH   4  18
TORSDOF 4
ENDMDL
MODEL 2
REMARK VINA RESULT:      -8.4      0.155      1.222
REMARK  Name = 
REMARK  4 active torsions:
REMARK  status: ('A' for Active; 'I' for Inactive)
REMARK    1  A    between atoms: C_2  and  C_4
REMARK    2  A    between atoms: C_7  and  C_8
REMARK    3  A    between atoms: C_11  and  C_12
REMARK    4  A    between atoms: C_15  and  C_16
REMARK                            x       y       z     vdW  Elec       q    Type
REMARK                         _______ _______ _______ _____ _____    ______ ____
ROOT
ATOM      1  C   UNL     1       2.846   6.427  18.813  0.00  0.00    +0.000 A 
ATOM      2  C   UNL     1       2.430   5.711  19.936  0.00  0.00    +0.000 A 
ATOM      3  C   UNL     1       1.626   6.458  20.808  0.00  0.00    +0.000 A 
ATOM      4  C   UNL     1       1.400   7.765  20.374  0.00  0.00    +0.000 A 
ATOM      5  S   UNL     1       2.200   7.972  18.915  0.00  0.00    +0.000 S 
ENDROOT
BRANCH   1   9
ATOM      6  C   UNL     1       5.513   5.125  15.687  0.00  0.00    +0.000 A 
ATOM      7  C   UNL     1       4.823   4.185  16.479  0.00  0.00    +0.000 A 
ATOM      8  C   UNL     1       3.947   4.598  17.484  0.00  0.00    +0.000 A 
ATOM      9  C   UNL     1       3.735   5.964  17.724  0.00  0.00    +0.000 A 
ATOM     10  C   UNL     1       4.406   6.903  16.924  0.00  0.00    +0.000 A 
ATOM     11  C   UNL     1       5.281   6.493  15.924  0.00  0.00    +0.000 A 
BRANCH   6  13
ATOM     12  N   UNL     1       6.227   3.565  14.008  0.00  0.00    +0.000 NA
ATOM     13  C   UNL     1       6.476   4.656  14.641  0.00  0.00    +0.000 C 
ATOM     14  N   UNL     1       7.674   5.367  14.340  0.00  0.00    +0.000 N 
ATOM     15  H   UNL     1       6.862   3.197  13.287  0.00  0.00    +0.000 HD
ATOM     16  H   UNL     1       8.324   5.006  13.627  0.00  0.00    +0.000 HD
ATOM     17  H   UNL     1       7.938   6.240  14.811  0.00  0.00    +0.000 HD
ENDBRANCH   6  13
ENDBRANCH   1   9
BRANCH   4  18
ATOM     18  C   UNL     1       0.629   8.825  21.061  0.00  0.00    +0.000 A 
ATOM     19  C   UNL     1       0.256   8.703  22.404  0.00  0.00    +0.000 A 
ATOM     20  C   UNL     1      -0.449   9.725  23.043  0.00  0.00    +0.000 A 
ATOM     21  C   UNL     1      -0.812  10.909  22.354  0.00  0.00    +0.000 A 
ATOM     22  C   UNL     1      -0.436  11.009  20.996  0.00  0.00    +0.000 A 
ATOM     23  C   UNL     1       0.269   9.989  20.365  0.00  0.00    +0.000 A 
BRANCH  21  24
ATOM     24  C   UNL     1      -1.564  12.030  23.035  0.00  0.00    +0.000 C 
ATOM     25  N   UNL     1      -1.001  13.160  23.301  0.00  0.00    +0.000 NA
ATOM     26  N   UNL     1      -2.932  11.891  23.405  0.00  0.00    +0.000 N 
ATOM     27  H   UNL     1      -0.028  13.401  23.088  0.00  0.00    +0.000 HD
ATOM     28  H   UNL     1      -3.483  11.042  23.239  0.00  0.00    +0.000 HD
ATOM     29  H   UNL     1      -3.418  12.678  23.861  0.00  0.00    +0.000 HD
ENDBRANCH  21  24
ENDBRANCH   4  18
TORSDOF 4
ENDMDL
MODEL 3
REMARK VINA RESULT:      -8.3      0.102      1.219
REMARK  Name = 
REMARK  4 active torsions:
REMARK  status: ('A' for Active; 'I' for Inactive)
REMARK    1  A    between atoms: C_2  and  C_4
REMARK    2  A    between atoms: C_7  and  C_8
REMARK    3  A    between atoms: C_11  and  C_12
REMARK    4  A    between atoms: C_15  and  C_16
REMARK                            x       y       z     vdW  Elec       q    Type
REMARK                         _______ _______ _______ _____ _____    ______ ____
ROOT
ATOM      1  C   UNL     1       2.865   6.531  18.869  0.00  0.00    +0.000 A 
ATOM      2  C   UNL     1       2.360   5.810  19.951  0.00  0.00    +0.000 A 
ATOM      3  C   UNL     1       1.531   6.568  20.789  0.00  0.00    +0.000 A 
ATOM      4  C   UNL     1       1.375   7.889  20.370  0.00  0.00    +0.000 A 
ATOM      5  S   UNL     1       2.266   8.096  18.964  0.00  0.00    +0.000 S 
ENDROOT
BRANCH   1   9
ATOM      6  C   UNL     1       5.513   5.116  15.776  0.00  0.00    +0.000 A 
ATOM      7  C   UNL     1       5.416   6.492  16.063  0.00  0.00    +0.000 A 
ATOM      8  C   UNL     1       4.572   6.958  17.072  0.00  0.00    +0.000 A 
ATOM      9  C   UNL     1       3.801   6.059  17.824  0.00  0.00    +0.000 A 
ATOM     10  C   UNL     1       3.910   4.685  17.555  0.00  0.00    +0.000 A 
ATOM     11  C   UNL     1       4.750   4.220  16.547  0.00  0.00    +0.000 A 
BRANCH   6  13
ATOM     12  N   UNL     1       7.478   5.293  14.409  0.00  0.00    +0.000 NA
ATOM     13  C   UNL     1       6.397   4.645  14.663  0.00  0.00    +0.000 C 
ATOM     14  N   UNL     1       6.067   3.516  13.858  0.00  0.00    +0.000 N 
ATOM     15  H   UNL     1       8.115   5.014  13.650  0.00  0.00    +0.000 HD
ATOM     16  H   UNL     1       6.689   3.231  13.088  0.00  0.00    +0.000 HD
ATOM     17  H   UNL     1       5.218   2.958  14.002  0.00  0.00    +0.000 HD
ENDBRANCH   6  13
ENDBRANCH   1   9
BRANCH   4  18
ATOM     18  C   UNL     1       0.601   8.963  21.032  0.00  0.00    +0.000 A 
ATOM     19  C   UNL     1       0.100  10.053  20.311  0.00  0.00    +0.000 A 
ATOM     20  C   UNL     1      -0.650  11.043  20.947  0.00  0.00    +0.000 A 
ATOM     21  C   UNL     1      -0.924  10.980  22.336  0.00  0.00    +0.000 A 
ATOM     22  C   UNL     1      -0.402   9.877  23.048  0.00  0.00    +0.000 A 
ATOM     23  C   UNL     1       0.343   8.892  22.409  0.00  0.00    +0.000 A 
BRANCH  21  24
ATOM     24  C   UNL     1      -1.747  12.037  23.036  0.00  0.00    +0.000 C 
ATOM     25  N   UNL     1      -2.942  11.798  23.458  0.00  0.00    +0.000 NA
ATOM     26  N   UNL     1      -1.232  13.345  23.271  0.00  0.00    +0.000 N 
ATOM     27  H   UNL     1      -3.435  10.904  23.362  0.00  0.00    +0.000 HD
ATOM     28  H   UNL     1      -0.295  13.647  22.986  0.00  0.00    +0.000 HD
ATOM     29  H   UNL     1      -1.817  14.040  23.759  0.00  0.00    +0.000 HD
ENDBRANCH  21  24
ENDBRANCH   4  18
TORSDOF 4
ENDMDL
MODEL 4
REMARK VINA RESULT:      -8.3      0.153      1.725
REMARK  Name = 
REMARK  4 active torsions:
REMARK  status: ('A' for Active; 'I' for Inactive)
REMARK    1  A    between atoms: C_2  and  C_4
REMARK    2  A    between atoms: C_7  and  C_8
REMARK    3  A    between atoms: C_11  and  C_12
REMARK    4  A    between atoms: C_15  and  C_16
REMARK                            x       y       z     vdW  Elec       q    Type
REMARK                         _______ _______ _______ _____ _____    ______ ____
ROOT
ATOM      1  C   UNL     1       2.887   6.437  18.861  0.00  0.00    +0.000 A 
ATOM      2  C   UNL     1       2.402   5.703  19.944  0.00  0.00    +0.000 A 
ATOM      3  C   UNL     1       1.566   6.444  20.791  0.00  0.00    +0.000 A 
ATOM      4  C   UNL     1       1.384   7.764  20.378  0.00  0.00    +0.000 A 
ATOM      5  S   UNL     1       2.262   7.991  18.966  0.00  0.00    +0.000 S 
ENDROOT
BRANCH   1   9
ATOM      6  C   UNL     1       5.538   5.073  15.748  0.00  0.00    +0.000 A 
ATOM      7  C   UNL     1       5.369   6.450  15.994  0.00  0.00    +0.000 A 
ATOM      8  C   UNL     1       4.524   6.900  17.009  0.00  0.00    +0.000 A 
ATOM      9  C   UNL     1       3.824   5.984  17.809  0.00  0.00    +0.000 A 
ATOM     10  C   UNL     1       4.005   4.611  17.580  0.00  0.00    +0.000 A 
ATOM     11  C   UNL     1       4.846   4.161  16.566  0.00  0.00    +0.000 A 
BRANCH   6  13
ATOM     12  N   UNL     1       6.156   3.506  14.038  0.00  0.00    +0.000 NA
ATOM     13  C   UNL     1       6.421   4.617  14.629  0.00  0.00    +0.000 C 
ATOM     14  N   UNL     1       7.562   5.361  14.211  0.00  0.00    +0.000 N 
ATOM     15  H   UNL     1       6.737   3.145  13.270  0.00  0.00    +0.000 HD
ATOM     16  H   UNL     1       8.159   5.008  13.449  0.00  0.00    +0.000 HD
ATOM     17  H   UNL     1       7.835   6.252  14.642  0.00  0.00    +0.000 HD
ENDBRANCH   6  13
ENDBRANCH   1   9
BRANCH   4  18
ATOM     18  C   UNL     1       0.596   8.822  21.048  0.00  0.00    +0.000 A 
ATOM     19  C   UNL     1       0.381   8.806  22.431  0.00  0.00    +0.000 A 
ATOM     20  C   UNL     1      -0.343   9.825  23.051  0.00  0.00    +0.000 A 
ATOM     21  C   UNL     1      -0.885  10.902  22.303  0.00  0.00    +0.000 A 
ATOM     22  C   UNL     1      -0.665  10.895  20.908  0.00  0.00    +0.000 A 
ATOM     23  C   UNL     1       0.060   9.878  20.296  0.00  0.00    +0.000 A 
BRANCH  21  24
ATOM     24  C   UNL     1      -1.659  12.021  22.962  0.00  0.00    +0.000 C 
ATOM     25  N   UNL     1      -2.867  11.855  23.380  0.00  0.00    +0.000 NA
ATOM     26  N   UNL     1      -1.081  13.309  23.158  0.00  0.00    +0.000 N 
ATOM     27  H   UNL     1      -3.403  10.985  23.310  0.00  0.00    +0.000 HD
ATOM     28  H   UNL     1      -0.128  13.555  22.871  0.00  0.00    +0.000 HD
ATOM     29  H   UNL     1      -1.634  14.048  23.618  0.00  0.00    +0.000 HD
ENDBRANCH  21  24
ENDBRANCH   4  18
TORSDOF 4
ENDMDL
MODEL 5
REMARK VINA RESULT:      -8.3      0.150      9.783
REMARK  Name = 
REMARK  4 active torsions:
REMARK  status: ('A' for Active; 'I' for Inactive)
REMARK    1  A    between atoms: C_2  and  C_4
REMARK    2  A    between atoms: C_7  and  C_8
REMARK    3  A    between atoms: C_11  and  C_12
REMARK    4  A    between atoms: C_15  and  C_16
REMARK                            x       y       z     vdW  Elec       q    Type
REMARK                         _______ _______ _______ _____ _____    ______ ____
ROOT
ATOM      1  C   UNL     1       1.425   7.796  20.430  0.00  0.00    +0.000 A 
ATOM      2  C   UNL     1       1.523   6.455  20.801  0.00  0.00    +0.000 A 
ATOM      3  C   UNL     1       2.347   5.700  19.955  0.00  0.00    +0.000 A 
ATOM      4  C   UNL     1       2.906   6.443  18.916  0.00  0.00    +0.000 A 
ATOM      5  S   UNL     1       2.372   8.026  19.064  0.00  0.00    +0.000 S 
ENDROOT
BRANCH   1   9
ATOM      6  C   UNL     1      -0.874  10.898  22.348  0.00  0.00    +0.000 A 
ATOM      7  C   UNL     1      -0.590  10.963  20.969  0.00  0.00    +0.000 A 
ATOM      8  C   UNL     1       0.142   9.957  20.337  0.00  0.00    +0.000 A 
ATOM      9  C   UNL     1       0.609   8.853  21.068  0.00  0.00    +0.000 A 
ATOM     10  C   UNL     1       0.312   8.775  22.438  0.00  0.00    +0.000 A 
ATOM     11  C   UNL     1      -0.416   9.779  23.069  0.00  0.00    +0.000 A 
BRANCH   6  13
ATOM     12  N   UNL     1      -1.024  13.122  23.238  0.00  0.00    +0.000 NA
ATOM     13  C   UNL     1      -1.627  12.010  23.009  0.00  0.00    +0.000 C 
ATOM     14  N   UNL     1      -2.985  11.868  23.417  0.00  0.00    +0.000 N 
ATOM     15  H   UNL     1      -1.495  13.913  23.697  0.00  0.00    +0.000 HD
ATOM     16  H   UNL     1      -3.468  12.647  23.887  0.00  0.00    +0.000 HD
ATOM     17  H   UNL     1      -3.524  11.007  23.271  0.00  0.00    +0.000 HD
ENDBRANCH   6  13
ENDBRANCH   1   9
BRANCH   4  18
ATOM     18  C   UNL     1       3.791   5.960  17.833  0.00  0.00    +0.000 A 
ATOM     19  C   UNL     1       3.932   4.595  17.559  0.00  0.00    +0.000 A 
ATOM     20  C   UNL     1       4.751   4.158  16.517  0.00  0.00    +0.000 A 
ATOM     21  C   UNL     1       5.466   5.078  15.708  0.00  0.00    +0.000 A 
ATOM     22  C   UNL     1       5.319   6.451  16.007  0.00  0.00    +0.000 A 
ATOM     23  C   UNL     1       4.499   6.881  17.045  0.00  0.00    +0.000 A 
BRANCH  21  24
ATOM     24  C   UNL     1       6.346   4.622  14.567  0.00  0.00    +0.000 C 
ATOM     25  N   UNL     1       6.065   3.572  13.872  0.00  0.00    +0.000 NA
ATOM     26  N   UNL     1       7.521   5.339  14.202  0.00  0.00    +0.000 N 
ATOM     27  H   UNL     1       5.252   2.966  14.018  0.00  0.00    +0.000 HD
ATOM     28  H   UNL     1       7.840   6.189  14.678  0.00  0.00    +0.000 HD
ATOM     29  H   UNL     1       8.095   5.006  13.413  0.00  0.00    +0.000 HD
ENDBRANCH  21  24
ENDBRANCH   4  18
TORSDOF 4
ENDMDL
MODEL 6
REMARK VINA RESULT:      -8.3      0.129      9.745
REMARK  Name = 
REMARK  4 active torsions:
REMARK  status: ('A' for Active; 'I' for Inactive)
REMARK    1  A    between atoms: C_2  and  C_4
REMARK    2  A    between atoms: C_7  and  C_8
REMARK    3  A    between atoms: C_11  and  C_12
REMARK    4  A    between atoms: C_15  and  C_16
REMARK                            x       y       z     vdW  Elec       q    Type
REMARK                         _______ _______ _______ _____ _____    ______ ____
ROOT
ATOM      1  C   UNL     1       1.347   7.884  20.454  0.00  0.00    +0.000 A 
ATOM      2  C   UNL     1       1.458   6.540  20.810  0.00  0.00    +0.000 A 
ATOM      3  C   UNL     1       2.286   5.801  19.954  0.00  0.00    +0.000 A 
ATOM      4  C   UNL     1       2.835   6.560  18.920  0.00  0.00    +0.000 A 
ATOM      5  S   UNL     1       2.287   8.137  19.087  0.00  0.00    +0.000 S 
ENDROOT
BRANCH   1   9
ATOM      6  C   UNL     1      -0.970  10.948  22.409  0.00  0.00    +0.000 A 
ATOM      7  C   UNL     1      -0.743  10.997  21.019  0.00  0.00    +0.000 A 
ATOM      8  C   UNL     1      -0.006  10.002  20.376  0.00  0.00    +0.000 A 
ATOM      9  C   UNL     1       0.525   8.927  21.106  0.00  0.00    +0.000 A 
ATOM     10  C   UNL     1       0.285   8.865  22.488  0.00  0.00    +0.000 A 
ATOM     11  C   UNL     1      -0.448   9.858  23.130  0.00  0.00    +0.000 A 
BRANCH   6  13
ATOM     12  N   UNL     1      -1.127  13.151  23.350  0.00  0.00    +0.000 NA
ATOM     13  C   UNL     1      -1.731  12.048  23.081  0.00  0.00    +0.000 C 
ATOM     14  N   UNL     1      -3.098  11.905  23.456  0.00  0.00    +0.000 N 
ATOM     15  H   UNL     1      -1.603  13.933  23.818  0.00  0.00    +0.000 HD
ATOM     16  H   UNL     1      -3.586  12.676  23.934  0.00  0.00    +0.000 HD
ATOM     17  H   UNL     1      -3.639  11.051  23.278  0.00  0.00    +0.000 HD
ENDBRANCH   6  13
ENDBRANCH   1   9
BRANCH   4  18
ATOM     18  C   UNL     1       3.720   6.097  17.829  0.00  0.00    +0.000 A 
ATOM     19  C   UNL     1       4.403   7.002  17.007  0.00  0.00    +0.000 A 
ATOM     20  C   UNL     1       5.253   6.546  15.999  0.00  0.00    +0.000 A 
ATOM     21  C   UNL     1       5.450   5.160  15.773  0.00  0.00    +0.000 A 
ATOM     22  C   UNL     1       4.745   4.263  16.605  0.00  0.00    +0.000 A 
ATOM     23  C   UNL     1       3.900   4.722  17.611  0.00  0.00    +0.000 A 
BRANCH  21  24
ATOM     24  C   UNL     1       6.379   4.652  14.694  0.00  0.00    +0.000 C 
ATOM     25  N   UNL     1       7.500   5.235  14.434  0.00  0.00    +0.000 NA
ATOM     26  N   UNL     1       6.061   3.497  13.923  0.00  0.00    +0.000 N 
ATOM     27  H   UNL     1       7.858   6.069  14.910  0.00  0.00    +0.000 HD
ATOM     28  H   UNL     1       5.203   2.950  14.045  0.00  0.00    +0.000 HD
ATOM     29  H   UNL     1       6.721   3.171  13.201  0.00  0.00    +0.000 HD
ENDBRANCH  21  24
ENDBRANCH   4  18
TORSDOF 4
ENDMDL
MODEL 7
REMARK VINA RESULT:      -8.1      0.137      9.739
REMARK  Name = 
REMARK  4 active torsions:
REMARK  status: ('A' for Active; 'I' for Inactive)
REMARK    1  A    between atoms: C_2  and  C_4
REMARK    2  A    between atoms: C_7  and  C_8
REMARK    3  A    between atoms: C_11  and  C_12
REMARK    4  A    between atoms: C_15  and  C_16
REMARK                            x       y       z     vdW  Elec       q    Type
REMARK                         _______ _______ _______ _____ _____    ______ ____
ROOT
ATOM      1  C   UNL     1       1.434   7.900  20.485  0.00  0.00    +0.000 A 
ATOM      2  C   UNL     1       1.476   6.544  20.811  0.00  0.00    +0.000 A 
ATOM      3  C   UNL     1       2.267   5.785  19.937  0.00  0.00    +0.000 A 
ATOM      4  C   UNL     1       2.855   6.538  18.921  0.00  0.00    +0.000 A 
ATOM      5  S   UNL     1       2.387   8.137  19.125  0.00  0.00    +0.000 S 
ENDROOT
BRANCH   1   9
ATOM      6  C   UNL     1      -0.886  10.991  22.393  0.00  0.00    +0.000 A 
ATOM      7  C   UNL     1      -0.392   9.902  23.138  0.00  0.00    +0.000 A 
ATOM      8  C   UNL     1       0.371   8.904  22.531  0.00  0.00    +0.000 A 
ATOM      9  C   UNL     1       0.664   8.969  21.160  0.00  0.00    +0.000 A 
ATOM     10  C   UNL     1       0.190  10.063  20.419  0.00  0.00    +0.000 A 
ATOM     11  C   UNL     1      -0.573  11.057  21.023  0.00  0.00    +0.000 A 
BRANCH   6  13
ATOM     12  N   UNL     1      -1.200  13.146  23.403  0.00  0.00    +0.000 NA
ATOM     13  C   UNL     1      -1.735  12.029  23.060  0.00  0.00    +0.000 C 
ATOM     14  N   UNL     1      -3.113  11.809  23.351  0.00  0.00    +0.000 N 
ATOM     15  H   UNL     1      -1.739  13.888  23.871  0.00  0.00    +0.000 HD
ATOM     16  H   UNL     1      -3.663  12.538  23.827  0.00  0.00    +0.000 HD
ATOM     17  H   UNL     1      -3.601  10.939  23.111  0.00  0.00    +0.000 HD
ENDBRANCH   6  13
ENDBRANCH   1   9
BRANCH   4  18
ATOM     18  C   UNL     1       3.717   6.056  17.820  0.00  0.00    +0.000 A 
ATOM     19  C   UNL     1       4.417   6.945  16.997  0.00  0.00    +0.000 A 
ATOM     20  C   UNL     1       5.246   6.471  15.979  0.00  0.00    +0.000 A 
ATOM     21  C   UNL     1       5.401   5.082  15.744  0.00  0.00    +0.000 A 
ATOM     22  C   UNL     1       4.678   4.200  16.578  0.00  0.00    +0.000 A 
ATOM     23  C   UNL     1       3.856   4.678  17.593  0.00  0.00    +0.000 A 
BRANCH  21  24
ATOM     24  C   UNL     1       6.306   4.553  14.654  0.00  0.00    +0.000 C 
ATOM     25  N   UNL     1       6.043   3.457  14.027  0.00  0.00    +0.000 NA
ATOM     26  N   UNL     1       7.487   5.249  14.266  0.00  0.00    +0.000 N 
ATOM     27  H   UNL     1       5.229   2.858  14.197  0.00  0.00    +0.000 HD
ATOM     28  H   UNL     1       7.793   6.130  14.690  0.00  0.00    +0.000 HD
ATOM     29  H   UNL     1       8.078   4.865  13.513  0.00  0.00    +0.000 HD
ENDBRANCH  21  24
ENDBRANCH   4  18
TORSDOF 4
ENDMDL
MODEL 8
REMARK VINA RESULT:      -8.1      0.157      9.735
REMARK  Name = 
REMARK  4 active torsions:
REMARK  status: ('A' for Active; 'I' for Inactive)
REMARK    1  A    between atoms: C_2  and  C_4
REMARK    2  A    between atoms: C_7  and  C_8
REMARK    3  A    between atoms: C_11  and  C_12
REMARK    4  A    between atoms: C_15  and  C_16
REMARK                            x       y       z     vdW  Elec       q    Type
REMARK                         _______ _______ _______ _____ _____    ______ ____
ROOT
ATOM      1  C   UNL     1       1.406   7.864  20.499  0.00  0.00    +0.000 A 
ATOM      2  C   UNL     1       1.403   6.503  20.807  0.00  0.00    +0.000 A 
ATOM      3  C   UNL     1       2.205   5.735  19.952  0.00  0.00    +0.000 A 
ATOM      4  C   UNL     1       2.848   6.487  18.968  0.00  0.00    +0.000 A 
ATOM      5  S   UNL     1       2.413   8.094  19.177  0.00  0.00    +0.000 S 
ENDROOT
BRANCH   1   9
ATOM      6  C   UNL     1      -0.906  10.985  22.368  0.00  0.00    +0.000 A 
ATOM      7  C   UNL     1      -0.430   9.895  23.123  0.00  0.00    +0.000 A 
ATOM      8  C   UNL     1       0.331   8.887  22.529  0.00  0.00    +0.000 A 
ATOM      9  C   UNL     1       0.639   8.942  21.161  0.00  0.00    +0.000 A 
ATOM     10  C   UNL     1       0.183  10.037  20.410  0.00  0.00    +0.000 A 
ATOM     11  C   UNL     1      -0.578  11.041  21.001  0.00  0.00    +0.000 A 
BRANCH   6  13
ATOM     12  N   UNL     1      -1.258  13.205  23.211  0.00  0.00    +0.000 NA
ATOM     13  C   UNL     1      -1.752  12.033  23.021  0.00  0.00    +0.000 C 
ATOM     14  N   UNL     1      -3.081  11.769  23.463  0.00  0.00    +0.000 N 
ATOM     15  H   UNL     1      -1.796  13.957  23.663  0.00  0.00    +0.000 HD
ATOM     16  H   UNL     1      -3.629  12.509  23.925  0.00  0.00    +0.000 HD
ATOM     17  H   UNL     1      -3.535  10.856  23.349  0.00  0.00    +0.000 HD
ENDBRANCH   6  13
ENDBRANCH   1   9
BRANCH   4  18
ATOM     18  C   UNL     1       3.737   5.997  17.891  0.00  0.00    +0.000 A 
ATOM     19  C   UNL     1       3.842   4.633  17.595  0.00  0.00    +0.000 A 
ATOM     20  C   UNL     1       4.666   4.191  16.559  0.00  0.00    +0.000 A 
ATOM     21  C   UNL     1       5.422   5.103  15.780  0.00  0.00    +0.000 A 
ATOM     22  C   UNL     1       5.310   6.474  16.101  0.00  0.00    +0.000 A 
ATOM     23  C   UNL     1       4.485   6.910  17.133  0.00  0.00    +0.000 A 
BRANCH  21  24
ATOM     24  C   UNL     1       6.307   4.641  14.646  0.00  0.00    +0.000 C 
ATOM     25  N   UNL     1       7.390   5.267  14.332  0.00  0.00    +0.000 NA
ATOM     26  N   UNL     1       5.988   3.484  13.878  0.00  0.00    +0.000 N 
ATOM     27  H   UNL     1       7.744   6.108  14.800  0.00  0.00    +0.000 HD
ATOM     28  H   UNL     1       5.158   2.905  14.039  0.00  0.00    +0.000 HD
ATOM     29  H   UNL     1       6.618   3.191  13.116  0.00  0.00    +0.000 HD
ENDBRANCH  21  24
ENDBRANCH   4  18
TORSDOF 4
ENDMDL
MODEL 9
REMARK VINA RESULT:      -7.8      1.705      2.573
REMARK  Name = 
REMARK  4 active torsions:
REMARK  status: ('A' for Active; 'I' for Inactive)
REMARK    1  A    between atoms: C_2  and  C_4
REMARK    2  A    between atoms: C_7  and  C_8
REMARK    3  A    between atoms: C_11  and  C_12
REMARK    4  A    between atoms: C_15  and  C_16
REMARK                            x       y       z     vdW  Elec       q    Type
REMARK                         _______ _______ _______ _____ _____    ______ ____
ROOT
ATOM      1  C   UNL     1       1.858   8.467  18.789  0.00  0.00    +0.000 A 
ATOM      2  C   UNL     1       1.198   9.320  17.905  0.00  0.00    +0.000 A 
ATOM      3  C   UNL     1       0.298  10.190  18.536  0.00  0.00    +0.000 A 
ATOM      4  C   UNL     1       0.247  10.030  19.921  0.00  0.00    +0.000 A 
ATOM      5  S   UNL     1       1.322   8.813  20.341  0.00  0.00    +0.000 S 
ENDROOT
BRANCH   1   9
ATOM      6  C   UNL     1       4.766   5.427  17.849  0.00  0.00    +0.000 A 
ATOM      7  C   UNL     1       3.875   5.258  18.928  0.00  0.00    +0.000 A 
ATOM      8  C   UNL     1       2.921   6.231  19.231  0.00  0.00    +0.000 A 
ATOM      9  C   UNL     1       2.831   7.401  18.461  0.00  0.00    +0.000 A 
ATOM     10  C   UNL     1       3.703   7.563  17.373  0.00  0.00    +0.000 A 
ATOM     11  C   UNL     1       4.656   6.594  17.071  0.00  0.00    +0.000 A 
BRANCH   6  13
ATOM     12  N   UNL     1       5.616   3.562  16.599  0.00  0.00    +0.000 NA
ATOM     13  C   UNL     1       5.805   4.386  17.568  0.00  0.00    +0.000 C 
ATOM     14  N   UNL     1       6.985   4.261  18.356  0.00  0.00    +0.000 N 
ATOM     15  H   UNL     1       6.296   2.824  16.372  0.00  0.00    +0.000 HD
ATOM     16  H   UNL     1       7.671   3.521  18.147  0.00  0.00    +0.000 HD
ATOM     17  H   UNL     1       7.196   4.880  19.147  0.00  0.00    +0.000 HD
ENDBRANCH   6  13
ENDBRANCH   1   9
BRANCH   4  18
ATOM     18  C   UNL     1      -0.610  10.755  20.884  0.00  0.00    +0.000 A 
ATOM     19  C   UNL     1      -1.473  11.776  20.470  0.00  0.00    +0.000 A 
ATOM     20  C   UNL     1      -2.293  12.432  21.389  0.00  0.00    +0.000 A 
ATOM     21  C   UNL     1      -2.275  12.091  22.765  0.00  0.00    +0.000 A 
ATOM     22  C   UNL     1      -1.390  11.065  23.165  0.00  0.00    +0.000 A 
ATOM     23  C   UNL     1      -0.577  10.412  22.245  0.00  0.00    +0.000 A 
BRANCH  21  24
ATOM     24  C   UNL     1      -3.168  12.782  23.771  0.00  0.00    +0.000 C 
ATOM     25  N   UNL     1      -2.965  14.004  24.130  0.00  0.00    +0.000 NA
ATOM     26  N   UNL     1      -4.280  12.115  24.359  0.00  0.00    +0.000 N 
ATOM     27  H   UNL     1      -2.209  14.604  23.786  0.00  0.00    +0.000 HD
ATOM     28  H   UNL     1      -4.541  11.147  24.147  0.00  0.00    +0.000 HD
ATOM     29  H   UNL     1      -4.874  12.618  25.036  0.00  0.00    +0.000 HD
ENDBRANCH  21  24
ENDBRANCH   4  18
TORSDOF 4
ENDMDL
