MODEL 1
REMARK VINA RESULT:      -8.0      0.000      0.000
REMARK  Name = 
REMARK  3 active torsions:
REMARK  status: ('A' for Active; 'I' for Inactive)
REMARK    1  A    between atoms: N_11  and  C_12
REMARK    2  A    between atoms: C_12  and  C_13
REMARK    3  A    between atoms: C_15  and  C_16
REMARK                            x       y       z     vdW  Elec       q    Type
REMARK                         _______ _______ _______ _____ _____    ______ ____
ROOT
ATOM      1 CL   UNL     1       1.647   2.513  21.759  0.00  0.00    +0.000 Cl
ATOM      2  C   UNL     1       2.556   3.306  20.532  0.00  0.00    +0.000 A 
ATOM      3  C   UNL     1       3.573   2.628  19.873  0.00  0.00    +0.000 A 
ATOM      4  C   UNL     1       4.305   3.272  18.870  0.00  0.00    +0.000 A 
ATOM      5  C   UNL     1       4.042   4.601  18.504  0.00  0.00    +0.000 A 
ATOM      6  C   UNL     1       3.012   5.278  19.200  0.00  0.00    +0.000 A 
ATOM      7  C   UNL     1       2.269   4.624  20.200  0.00  0.00    +0.000 A 
ATOM      8  C   UNL     1       2.665   6.712  18.876  0.00  0.00    +0.000 C 
ATOM      9  C   UNL     1       3.761   7.397  18.072  0.00  0.00    +0.000 C 
ATOM     10  C   UNL     1       4.200   6.480  16.943  0.00  0.00    +0.000 C 
ATOM     11  N   UNL     1       4.754   5.250  17.503  0.00  0.00    +0.000 N 
ENDROOT
BRANCH  11  12
ATOM     12  C   UNL     1       6.087   4.817  17.064  0.00  0.00    +0.000 C 
BRANCH  12  13
ATOM     13  C   UNL     1       6.397   4.854  15.604  0.00  0.00    +0.000 A 
ATOM     14  N   UNL     1       5.794   4.249  14.601  0.00  0.00    +0.000 NA
ATOM     15  C   UNL     1       6.656   4.489  13.562  0.00  0.00    +0.000 A 
ATOM     16  N   UNL     1       7.725   5.231  13.876  0.00  0.00    +0.000 NA
ATOM     17  O   UNL     1       7.554   5.480  15.240  0.00  0.00    +0.000 OA
BRANCH  15  18
ATOM     18  C   UNL     1       6.470   3.902  12.171  0.00  0.00    +0.000 C 
ATOM     19  C   UNL     1       6.382   2.392  12.043  0.00  0.00    +0.000 C 
ATOM     20  C   UNL     1       5.164   3.220  11.818  0.00  0.00    +0.000 C 
ENDBRANCH  15  18
ENDBRANCH  12  13
ENDBRANCH  11  12
TORSDOF 3
ENDMDL
MODEL 2
REMARK VINA RESULT:      -7.7      2.085      3.117
REMARK  Name = 
REMARK  3 active torsions:
REMARK  status: ('A' for Active; 'I' for Inactive)
REMARK    1  A    between atoms: N_11  and  C_12
REMARK    2  A    between atoms: C_12  and  C_13
REMARK    3  A    between atoms: C_15  and  C_16
REMARK                            x       y       z     vdW  Elec       q    Type
REMARK                         _______ _______ _______ _____ _____    ______ ____
ROOT
ATOM      1 CL   UNL     1       1.705   9.300  17.755  0.00  0.00    +0.000 Cl
ATOM      2  C   UNL     1       2.607   7.835  17.750  0.00  0.00    +0.000 A 
ATOM      3  C   UNL     1       3.991   7.872  17.637  0.00  0.00    +0.000 A 
ATOM      4  C   UNL     1       4.723   6.680  17.641  0.00  0.00    +0.000 A 
ATOM      5  C   UNL     1       4.095   5.430  17.756  0.00  0.00    +0.000 A 
ATOM      6  C   UNL     1       2.683   5.416  17.853  0.00  0.00    +0.000 A 
ATOM      7  C   UNL     1       1.950   6.616  17.860  0.00  0.00    +0.000 A 
ATOM      8  C   UNL     1       1.924   4.116  17.973  0.00  0.00    +0.000 C 
ATOM      9  C   UNL     1       2.776   2.917  17.578  0.00  0.00    +0.000 C 
ATOM     10  C   UNL     1       4.137   3.031  18.244  0.00  0.00    +0.000 C 
ATOM     11  N   UNL     1       4.809   4.239  17.772  0.00  0.00    +0.000 N 
ENDROOT
BRANCH  11  12
ATOM     12  C   UNL     1       6.170   4.118  17.231  0.00  0.00    +0.000 C 
BRANCH  12  13
ATOM     13  C   UNL     1       6.382   4.404  15.781  0.00  0.00    +0.000 A 
ATOM     14  N   UNL     1       5.843   3.832  14.724  0.00  0.00    +0.000 NA
ATOM     15  C   UNL     1       6.586   4.364  13.701  0.00  0.00    +0.000 A 
ATOM     16  N   UNL     1       7.517   5.247  14.080  0.00  0.00    +0.000 NA
ATOM     17  O   UNL     1       7.383   5.279  15.470  0.00  0.00    +0.000 OA
BRANCH  15  18
ATOM     18  C   UNL     1       6.429   3.940  12.248  0.00  0.00    +0.000 C 
ATOM     19  C   UNL     1       6.454   2.454  11.936  0.00  0.00    +0.000 C 
ATOM     20  C   UNL     1       5.175   3.208  11.816  0.00  0.00    +0.000 C 
ENDBRANCH  15  18
ENDBRANCH  12  13
ENDBRANCH  11  12
TORSDOF 3
ENDMDL
MODEL 3
REMARK VINA RESULT:      -7.5      1.135      1.135
REMARK  Name = 
REMARK  3 active torsions:
REMARK  status: ('A' for Active; 'I' for Inactive)
REMARK    1  A    between atoms: N_11  and  C_12
REMARK    2  A    between atoms: C_12  and  C_13
REMARK    3  A    between atoms: C_15  and  C_16
REMARK                            x       y       z     vdW  Elec       q    Type
REMARK                         _______ _______ _______ _____ _____    ______ ____
ROOT
ATOM      1 CL   UNL     1       0.535   1.988  19.307  0.00  0.00    +0.000 Cl
ATOM      2  C   UNL     1       1.713   3.050  18.641  0.00  0.00    +0.000 A 
ATOM      3  C   UNL     1       2.837   2.532  18.011  0.00  0.00    +0.000 A 
ATOM      4  C   UNL     1       3.790   3.398  17.463  0.00  0.00    +0.000 A 
ATOM      5  C   UNL     1       3.645   4.792  17.531  0.00  0.00    +0.000 A 
ATOM      6  C   UNL     1       2.499   5.297  18.191  0.00  0.00    +0.000 A 
ATOM      7  C   UNL     1       1.537   4.425  18.731  0.00  0.00    +0.000 A 
ATOM      8  C   UNL     1       2.264   6.783  18.317  0.00  0.00    +0.000 C 
ATOM      9  C   UNL     1       3.528   7.587  18.040  0.00  0.00    +0.000 C 
ATOM     10  C   UNL     1       4.190   7.057  16.779  0.00  0.00    +0.000 C 
ATOM     11  N   UNL     1       4.577   5.663  16.983  0.00  0.00    +0.000 N 
ENDROOT
BRANCH  11  12
ATOM     12  C   UNL     1       5.965   5.272  16.704  0.00  0.00    +0.000 C 
BRANCH  12  13
ATOM     13  C   UNL     1       6.380   5.108  15.279  0.00  0.00    +0.000 A 
ATOM     14  N   UNL     1       5.797   4.438  14.306  0.00  0.00    +0.000 NA
ATOM     15  C   UNL     1       6.750   4.479  13.320  0.00  0.00    +0.000 A 
ATOM     16  N   UNL     1       7.857   5.163  13.633  0.00  0.00    +0.000 NA
ATOM     17  O   UNL     1       7.613   5.588  14.941  0.00  0.00    +0.000 OA
BRANCH  15  18
ATOM     18  C   UNL     1       6.610   3.745  11.994  0.00  0.00    +0.000 C 
ATOM     19  C   UNL     1       6.278   2.264  12.033  0.00  0.00    +0.000 C 
ATOM     20  C   UNL     1       5.251   3.235  11.564  0.00  0.00    +0.000 C 
ENDBRANCH  15  18
ENDBRANCH  12  13
ENDBRANCH  11  12
TORSDOF 3
ENDMDL
MODEL 4
REMARK VINA RESULT:      -7.5      0.859      1.014
REMARK  Name = 
REMARK  3 active torsions:
REMARK  status: ('A' for Active; 'I' for Inactive)
REMARK    1  A    between atoms: N_11  and  C_12
REMARK    2  A    between atoms: C_12  and  C_13
REMARK    3  A    between atoms: C_15  and  C_16
REMARK                            x       y       z     vdW  Elec       q    Type
REMARK                         _______ _______ _______ _____ _____    ______ ____
ROOT
ATOM      1 CL   UNL     1       1.304   2.285  22.243  0.00  0.00    +0.000 Cl
ATOM      2  C   UNL     1       2.150   3.218  21.070  0.00  0.00    +0.000 A 
ATOM      3  C   UNL     1       3.251   2.680  20.419  0.00  0.00    +0.000 A 
ATOM      4  C   UNL     1       3.933   3.437  19.460  0.00  0.00    +0.000 A 
ATOM      5  C   UNL     1       3.534   4.742  19.131  0.00  0.00    +0.000 A 
ATOM      6  C   UNL     1       2.417   5.275  19.820  0.00  0.00    +0.000 A 
ATOM      7  C   UNL     1       1.727   4.508  20.776  0.00  0.00    +0.000 A 
ATOM      8  C   UNL     1       1.923   6.673  19.536  0.00  0.00    +0.000 C 
ATOM      9  C   UNL     1       2.956   7.505  18.788  0.00  0.00    +0.000 C 
ATOM     10  C   UNL     1       3.522   6.684  17.641  0.00  0.00    +0.000 C 
ATOM     11  N   UNL     1       4.194   5.502  18.175  0.00  0.00    +0.000 N 
ENDROOT
BRANCH  11  12
ATOM     12  C   UNL     1       5.577   5.234  17.759  0.00  0.00    +0.000 C 
BRANCH  12  13
ATOM     13  C   UNL     1       5.846   4.992  16.311  0.00  0.00    +0.000 A 
ATOM     14  N   UNL     1       5.476   3.987  15.544  0.00  0.00    +0.000 NA
ATOM     15  C   UNL     1       6.200   4.217  14.402  0.00  0.00    +0.000 A 
ATOM     16  N   UNL     1       6.956   5.321  14.427  0.00  0.00    +0.000 NA
ATOM     17  O   UNL     1       6.721   5.844  15.700  0.00  0.00    +0.000 OA
BRANCH  15  18
ATOM     18  C   UNL     1       6.213   3.264  13.216  0.00  0.00    +0.000 C 
ATOM     19  C   UNL     1       5.308   3.581  12.039  0.00  0.00    +0.000 C 
ATOM     20  C   UNL     1       6.783   3.728  11.892  0.00  0.00    +0.000 C 
ENDBRANCH  15  18
ENDBRANCH  12  13
ENDBRANCH  11  12
TORSDOF 3
ENDMDL
MODEL 5
REMARK VINA RESULT:      -7.3      2.842      4.348
REMARK  Name = 
REMARK  3 active torsions:
REMARK  status: ('A' for Active; 'I' for Inactive)
REMARK    1  A    between atoms: N_11  and  C_12
REMARK    2  A    between atoms: C_12  and  C_13
REMARK    3  A    between atoms: C_15  and  C_16
REMARK                            x       y       z     vdW  Elec       q    Type
REMARK                         _______ _______ _______ _____ _____    ______ ____
ROOT
ATOM      1 CL   UNL     1       1.091   8.623  21.062  0.00  0.00    +0.000 Cl
ATOM      2  C   UNL     1       1.673   7.192  20.306  0.00  0.00    +0.000 A 
ATOM      3  C   UNL     1       2.488   7.281  19.186  0.00  0.00    +0.000 A 
ATOM      4  C   UNL     1       2.967   6.115  18.577  0.00  0.00    +0.000 A 
ATOM      5  C   UNL     1       2.643   4.841  19.069  0.00  0.00    +0.000 A 
ATOM      6  C   UNL     1       1.798   4.775  20.202  0.00  0.00    +0.000 A 
ATOM      7  C   UNL     1       1.327   5.947  20.819  0.00  0.00    +0.000 A 
ATOM      8  C   UNL     1       1.393   3.446  20.794  0.00  0.00    +0.000 C 
ATOM      9  C   UNL     1       1.646   2.291  19.835  0.00  0.00    +0.000 C 
ATOM     10  C   UNL     1       3.038   2.431  19.241  0.00  0.00    +0.000 C 
ATOM     11  N   UNL     1       3.119   3.676  18.481  0.00  0.00    +0.000 N 
ENDROOT
BRANCH  11  12
ATOM     12  C   UNL     1       3.595   3.620  17.093  0.00  0.00    +0.000 C 
BRANCH  12  13
ATOM     13  C   UNL     1       4.821   4.393  16.734  0.00  0.00    +0.000 A 
ATOM     14  N   UNL     1       5.833   4.763  17.492  0.00  0.00    +0.000 NA
ATOM     15  C   UNL     1       6.516   5.615  16.662  0.00  0.00    +0.000 A 
ATOM     16  N   UNL     1       5.990   5.752  15.438  0.00  0.00    +0.000 NA
ATOM     17  O   UNL     1       4.859   4.934  15.481  0.00  0.00    +0.000 OA
BRANCH  15  18
ATOM     18  C   UNL     1       7.735   6.412  17.104  0.00  0.00    +0.000 C 
ATOM     19  C   UNL     1       7.517   7.836  17.583  0.00  0.00    +0.000 C 
ATOM     20  C   UNL     1       7.896   6.780  18.564  0.00  0.00    +0.000 C 
ENDBRANCH  15  18
ENDBRANCH  12  13
ENDBRANCH  11  12
TORSDOF 3
ENDMDL
MODEL 6
REMARK VINA RESULT:      -7.2      3.629      5.537
REMARK  Name = 
REMARK  3 active torsions:
REMARK  status: ('A' for Active; 'I' for Inactive)
REMARK    1  A    between atoms: N_11  and  C_12
REMARK    2  A    between atoms: C_12  and  C_13
REMARK    3  A    between atoms: C_15  and  C_16
REMARK                            x       y       z     vdW  Elec       q    Type
REMARK                         _______ _______ _______ _____ _____    ______ ____
ROOT
ATOM      1 CL   UNL     1       1.162   3.499  18.595  0.00  0.00    +0.000 Cl
ATOM      2  C   UNL     1       2.814   3.906  18.343  0.00  0.00    +0.000 A 
ATOM      3  C   UNL     1       3.596   4.328  19.410  0.00  0.00    +0.000 A 
ATOM      4  C   UNL     1       4.942   4.651  19.204  0.00  0.00    +0.000 A 
ATOM      5  C   UNL     1       5.535   4.562  17.935  0.00  0.00    +0.000 A 
ATOM      6  C   UNL     1       4.714   4.145  16.859  0.00  0.00    +0.000 A 
ATOM      7  C   UNL     1       3.365   3.810  17.071  0.00  0.00    +0.000 A 
ATOM      8  C   UNL     1       5.267   4.028  15.459  0.00  0.00    +0.000 C 
ATOM      9  C   UNL     1       6.591   4.764  15.303  0.00  0.00    +0.000 C 
ATOM     10  C   UNL     1       7.495   4.420  16.475  0.00  0.00    +0.000 C 
ATOM     11  N   UNL     1       6.872   4.870  17.717  0.00  0.00    +0.000 N 
ENDROOT
BRANCH  11  12
ATOM     12  C   UNL     1       7.652   5.720  18.626  0.00  0.00    +0.000 C 
BRANCH  12  13
ATOM     13  C   UNL     1       7.884   7.143  18.237  0.00  0.00    +0.000 A 
ATOM     14  N   UNL     1       8.653   8.053  18.799  0.00  0.00    +0.000 NA
ATOM     15  C   UNL     1       8.278   9.194  18.137  0.00  0.00    +0.000 A 
ATOM     16  N   UNL     1       7.351   9.015  17.187  0.00  0.00    +0.000 NA
ATOM     17  O   UNL     1       7.087   7.645  17.249  0.00  0.00    +0.000 OA
BRANCH  15  18
ATOM     18  C   UNL     1       8.805  10.576  18.491  0.00  0.00    +0.000 C 
ATOM     19  C   UNL     1       9.560  10.735  19.799  0.00  0.00    +0.000 C 
ATOM     20  C   UNL     1      10.300  10.822  18.509  0.00  0.00    +0.000 C 
ENDBRANCH  15  18
ENDBRANCH  12  13
ENDBRANCH  11  12
TORSDOF 3
ENDMDL
MODEL 7
REMARK VINA RESULT:      -6.9      4.358      6.533
REMARK  Name = 
REMARK  3 active torsions:
REMARK  status: ('A' for Active; 'I' for Inactive)
REMARK    1  A    between atoms: N_11  and  C_12
REMARK    2  A    between atoms: C_12  and  C_13
REMARK    3  A    between atoms: C_15  and  C_16
REMARK                            x       y       z     vdW  Elec       q    Type
REMARK                         _______ _______ _______ _____ _____    ______ ____
ROOT
ATOM      1 CL   UNL     1       6.000   3.288  12.185  0.00  0.00    +0.000 Cl
ATOM      2  C   UNL     1       6.080   3.916  13.785  0.00  0.00    +0.000 A 
ATOM      3  C   UNL     1       7.164   4.694  14.171  0.00  0.00    +0.000 A 
ATOM      4  C   UNL     1       7.224   5.210  15.471  0.00  0.00    +0.000 A 
ATOM      5  C   UNL     1       6.210   4.963  16.409  0.00  0.00    +0.000 A 
ATOM      6  C   UNL     1       5.123   4.155  15.997  0.00  0.00    +0.000 A 
ATOM      7  C   UNL     1       5.059   3.646  14.687  0.00  0.00    +0.000 A 
ATOM      8  C   UNL     1       3.991   3.832  16.943  0.00  0.00    +0.000 C 
ATOM      9  C   UNL     1       4.359   4.113  18.393  0.00  0.00    +0.000 C 
ATOM     10  C   UNL     1       5.019   5.479  18.485  0.00  0.00    +0.000 C 
ATOM     11  N   UNL     1       6.250   5.477  17.698  0.00  0.00    +0.000 N 
ENDROOT
BRANCH  11  12
ATOM     12  C   UNL     1       7.495   5.915  18.343  0.00  0.00    +0.000 C 
BRANCH  12  13
ATOM     13  C   UNL     1       7.908   7.341  18.189  0.00  0.00    +0.000 A 
ATOM     14  N   UNL     1       8.754   8.053  18.904  0.00  0.00    +0.000 NA
ATOM     15  C   UNL     1       8.542   9.320  18.421  0.00  0.00    +0.000 A 
ATOM     16  N   UNL     1       7.641   9.403  17.434  0.00  0.00    +0.000 NA
ATOM     17  O   UNL     1       7.216   8.082  17.274  0.00  0.00    +0.000 OA
BRANCH  15  18
ATOM     18  C   UNL     1       9.212  10.557  19.000  0.00  0.00    +0.000 C 
ATOM     19  C   UNL     1      10.406  11.131  18.257  0.00  0.00    +0.000 C 
ATOM     20  C   UNL     1       9.114  11.874  18.259  0.00  0.00    +0.000 C 
ENDBRANCH  15  18
ENDBRANCH  12  13
ENDBRANCH  11  12
TORSDOF 3
ENDMDL
MODEL 8
REMARK VINA RESULT:      -6.6      3.912      5.593
REMARK  Name = 
REMARK  3 active torsions:
REMARK  status: ('A' for Active; 'I' for Inactive)
REMARK    1  A    between atoms: N_11  and  C_12
REMARK    2  A    between atoms: C_12  and  C_13
REMARK    3  A    between atoms: C_15  and  C_16
REMARK                            x       y       z     vdW  Elec       q    Type
REMARK                         _______ _______ _______ _____ _____    ______ ____
ROOT
ATOM      1 CL   UNL     1      -1.322  11.338  23.034  0.00  0.00    +0.000 Cl
ATOM      2  C   UNL     1      -0.388  10.338  21.991  0.00  0.00    +0.000 A 
ATOM      3  C   UNL     1       0.004   9.073  22.409  0.00  0.00    +0.000 A 
ATOM      4  C   UNL     1       0.757   8.259  21.556  0.00  0.00    +0.000 A 
ATOM      5  C   UNL     1       1.135   8.686  20.273  0.00  0.00    +0.000 A 
ATOM      6  C   UNL     1       0.738   9.985  19.875  0.00  0.00    +0.000 A 
ATOM      7  C   UNL     1      -0.028  10.797  20.730  0.00  0.00    +0.000 A 
ATOM      8  C   UNL     1       1.107  10.529  18.515  0.00  0.00    +0.000 C 
ATOM      9  C   UNL     1       2.225   9.727  17.863  0.00  0.00    +0.000 C 
ATOM     10  C   UNL     1       1.920   8.245  17.997  0.00  0.00    +0.000 C 
ATOM     11  N   UNL     1       1.873   7.885  19.412  0.00  0.00    +0.000 N 
ENDROOT
BRANCH  11  12
ATOM     12  C   UNL     1       2.696   6.761  19.878  0.00  0.00    +0.000 C 
BRANCH  12  13
ATOM     13  C   UNL     1       3.224   5.803  18.862  0.00  0.00    +0.000 A 
ATOM     14  N   UNL     1       4.395   5.776  18.260  0.00  0.00    +0.000 NA
ATOM     15  C   UNL     1       4.201   4.818  17.298  0.00  0.00    +0.000 A 
ATOM     16  N   UNL     1       2.991   4.245  17.309  0.00  0.00    +0.000 NA
ATOM     17  O   UNL     1       2.335   4.898  18.355  0.00  0.00    +0.000 OA
BRANCH  15  18
ATOM     18  C   UNL     1       5.241   4.473  16.242  0.00  0.00    +0.000 C 
ATOM     19  C   UNL     1       5.513   5.495  15.152  0.00  0.00    +0.000 C 
ATOM     20  C   UNL     1       6.544   5.244  16.198  0.00  0.00    +0.000 C 
ENDBRANCH  15  18
ENDBRANCH  12  13
ENDBRANCH  11  12
TORSDOF 3
ENDMDL
MODEL 9
REMARK VINA RESULT:      -6.5      4.033      7.389
REMARK  Name = 
REMARK  3 active torsions:
REMARK  status: ('A' for Active; 'I' for Inactive)
REMARK    1  A    between atoms: N_11  and  C_12
REMARK    2  A    between atoms: C_12  and  C_13
REMARK    3  A    between atoms: C_15  and  C_16
REMARK                            x       y       z     vdW  Elec       q    Type
REMARK                         _______ _______ _______ _____ _____    ______ ____
ROOT
ATOM      1 CL   UNL     1       6.688   4.291  14.189  0.00  0.00    +0.000 Cl
ATOM      2  C   UNL     1       5.582   4.686  15.446  0.00  0.00    +0.000 A 
ATOM      3  C   UNL     1       5.539   5.979  15.952  0.00  0.00    +0.000 A 
ATOM      4  C   UNL     1       4.633   6.300  16.969  0.00  0.00    +0.000 A 
ATOM      5  C   UNL     1       3.755   5.345  17.502  0.00  0.00    +0.000 A 
ATOM      6  C   UNL     1       3.827   4.030  16.981  0.00  0.00    +0.000 A 
ATOM      7  C   UNL     1       4.731   3.712  15.951  0.00  0.00    +0.000 A 
ATOM      8  C   UNL     1       2.924   2.936  17.500  0.00  0.00    +0.000 C 
ATOM      9  C   UNL     1       2.286   3.306  18.833  0.00  0.00    +0.000 C 
ATOM     10  C   UNL     1       1.743   4.723  18.750  0.00  0.00    +0.000 C 
ATOM     11  N   UNL     1       2.843   5.651  18.504  0.00  0.00    +0.000 N 
ENDROOT
BRANCH  11  12
ATOM     12  C   UNL     1       3.000   6.807  19.397  0.00  0.00    +0.000 C 
BRANCH  12  13
ATOM     13  C   UNL     1       2.164   8.017  19.140  0.00  0.00    +0.000 A 
ATOM     14  N   UNL     1       1.355   8.667  19.950  0.00  0.00    +0.000 NA
ATOM     15  C   UNL     1       0.723   9.530  19.091  0.00  0.00    +0.000 A 
ATOM     16  N   UNL     1       1.130   9.458  17.818  0.00  0.00    +0.000 NA
ATOM     17  O   UNL     1       2.097   8.450  17.846  0.00  0.00    +0.000 OA
BRANCH  15  18
ATOM     18  C   UNL     1      -0.410  10.452  19.519  0.00  0.00    +0.000 C 
ATOM     19  C   UNL     1      -0.061  11.658  20.373  0.00  0.00    +0.000 C 
ATOM     20  C   UNL     1      -0.480  11.857  18.957  0.00  0.00    +0.000 C 
ENDBRANCH  15  18
ENDBRANCH  12  13
ENDBRANCH  11  12
TORSDOF 3
ENDMDL
