MODEL 1
REMARK VINA RESULT:      -9.0      0.000      0.000
REMARK  Name = 
REMARK  2 active torsions:
REMARK  status: ('A' for Active; 'I' for Inactive)
REMARK    1  A    between atoms: C_14  and  C_15
REMARK    2  A    between atoms: C_16  and  C_17
REMARK                            x       y       z     vdW  Elec       q    Type
REMARK                         _______ _______ _______ _____ _____    ______ ____
ROOT
ATOM      1  O   UNL     1       5.428   2.986  20.043  0.00  0.00    +0.000 OA
ATOM      2  C   UNL     1       4.666   2.987  19.079  0.00  0.00    +0.000 C 
ATOM      3  O   UNL     1       3.538   2.216  19.114  0.00  0.00    +0.000 OA
ATOM      4  C   UNL     1       2.536   2.159  18.073  0.00  0.00    +0.000 C 
ATOM      5  C   UNL     1       1.131   2.309  18.674  0.00  0.00    +0.000 C 
ATOM      6  C   UNL     1       0.674   3.742  18.367  0.00  0.00    +0.000 C 
ATOM      7  C   UNL     1       1.870   4.433  17.735  0.00  0.00    +0.000 C 
ATOM      8  C   UNL     1       2.618   3.286  17.067  0.00  0.00    +0.000 C 
ATOM      9  C   UNL     1       4.056   3.578  16.754  0.00  0.00    +0.000 C 
ATOM     10  N   UNL     1       4.839   3.774  17.954  0.00  0.00    +0.000 N 
ATOM     11  C   UNL     1       5.642   4.934  18.004  0.00  0.00    +0.000 A 
ATOM     12  C   UNL     1       7.001   4.850  18.286  0.00  0.00    +0.000 A 
ATOM     13  C   UNL     1       7.774   6.016  18.245  0.00  0.00    +0.000 A 
ATOM     14  C   UNL     1       7.159   7.237  17.984  0.00  0.00    +0.000 A 
ATOM     15  C   UNL     1       5.795   7.227  17.736  0.00  0.00    +0.000 A 
ATOM     16  N   UNL     1       5.039   6.105  17.693  0.00  0.00    +0.000 NA
ENDROOT
BRANCH  14  17
ATOM     17  C   UNL     1       7.888   8.468  17.959  0.00  0.00    +0.000 C 
ATOM     18  C   UNL     1       8.467   9.517  17.996  0.00  0.00    +0.000 C 
BRANCH  18  19
ATOM     19  C   UNL     1       9.134  10.783  18.098  0.00  0.00    +0.000 A 
ATOM     20  C   UNL     1      10.422  10.864  18.631  0.00  0.00    +0.000 A 
ATOM     21  C   UNL     1      11.069  12.100  18.710  0.00  0.00    +0.000 A 
ATOM     22  C   UNL     1      10.431  13.255  18.256  0.00  0.00    +0.000 A 
ATOM     23  C   UNL     1       9.145  13.176  17.724  0.00  0.00    +0.000 A 
ATOM     24  C   UNL     1       8.496  11.942  17.644  0.00  0.00    +0.000 A 
ENDBRANCH  18  19
ENDBRANCH  14  17
TORSDOF 2
ENDMDL
MODEL 2
REMARK VINA RESULT:      -8.6      0.706      1.200
REMARK  Name = 
REMARK  2 active torsions:
REMARK  status: ('A' for Active; 'I' for Inactive)
REMARK    1  A    between atoms: C_14  and  C_15
REMARK    2  A    between atoms: C_16  and  C_17
REMARK                            x       y       z     vdW  Elec       q    Type
REMARK                         _______ _______ _______ _____ _____    ______ ____
ROOT
ATOM      1  O   UNL     1       5.545   3.729  20.345  0.00  0.00    +0.000 OA
ATOM      2  C   UNL     1       4.967   3.561  19.274  0.00  0.00    +0.000 C 
ATOM      3  O   UNL     1       3.876   2.739  19.221  0.00  0.00    +0.000 OA
ATOM      4  C   UNL     1       3.078   2.490  18.042  0.00  0.00    +0.000 C 
ATOM      5  C   UNL     1       1.584   2.639  18.365  0.00  0.00    +0.000 C 
ATOM      6  C   UNL     1       1.143   3.992  17.788  0.00  0.00    +0.000 C 
ATOM      7  C   UNL     1       2.410   4.659  17.281  0.00  0.00    +0.000 C 
ATOM      8  C   UNL     1       3.302   3.478  16.918  0.00  0.00    +0.000 C 
ATOM      9  C   UNL     1       4.763   3.806  16.820  0.00  0.00    +0.000 C 
ATOM     10  N   UNL     1       5.313   4.201  18.098  0.00  0.00    +0.000 N 
ATOM     11  C   UNL     1       6.057   5.400  18.122  0.00  0.00    +0.000 A 
ATOM     12  C   UNL     1       7.346   5.431  18.644  0.00  0.00    +0.000 A 
ATOM     13  C   UNL     1       8.076   6.622  18.574  0.00  0.00    +0.000 A 
ATOM     14  C   UNL     1       7.478   7.762  18.044  0.00  0.00    +0.000 A 
ATOM     15  C   UNL     1       6.182   7.644  17.569  0.00  0.00    +0.000 A 
ATOM     16  N   UNL     1       5.482   6.485  17.552  0.00  0.00    +0.000 NA
ENDROOT
BRANCH  14  17
ATOM     17  C   UNL     1       8.161   9.018  17.974  0.00  0.00    +0.000 C 
ATOM     18  C   UNL     1       8.784  10.042  17.950  0.00  0.00    +0.000 C 
BRANCH  18  19
ATOM     19  C   UNL     1       9.579  11.236  17.946  0.00  0.00    +0.000 A 
ATOM     20  C   UNL     1       8.983  12.483  17.751  0.00  0.00    +0.000 A 
ATOM     21  C   UNL     1       9.765  13.642  17.766  0.00  0.00    +0.000 A 
ATOM     22  C   UNL     1      11.142  13.555  17.976  0.00  0.00    +0.000 A 
ATOM     23  C   UNL     1      11.739  12.310  18.170  0.00  0.00    +0.000 A 
ATOM     24  C   UNL     1      10.960  11.151  18.155  0.00  0.00    +0.000 A 
ENDBRANCH  18  19
ENDBRANCH  14  17
TORSDOF 2
ENDMDL
MODEL 3
REMARK VINA RESULT:      -7.7      5.445      7.463
REMARK  Name = 
REMARK  2 active torsions:
REMARK  status: ('A' for Active; 'I' for Inactive)
REMARK    1  A    between atoms: C_14  and  C_15
REMARK    2  A    between atoms: C_16  and  C_17
REMARK                            x       y       z     vdW  Elec       q    Type
REMARK                         _______ _______ _______ _____ _____    ______ ____
ROOT
ATOM      1  O   UNL     1       2.525   3.364  18.274  0.00  0.00    +0.000 OA
ATOM      2  C   UNL     1       3.611   3.881  18.021  0.00  0.00    +0.000 C 
ATOM      3  O   UNL     1       4.432   3.299  17.096  0.00  0.00    +0.000 OA
ATOM      4  C   UNL     1       5.710   3.825  16.672  0.00  0.00    +0.000 C 
ATOM      5  C   UNL     1       5.804   3.832  15.139  0.00  0.00    +0.000 C 
ATOM      6  C   UNL     1       5.602   5.287  14.694  0.00  0.00    +0.000 C 
ATOM      7  C   UNL     1       5.249   6.061  15.953  0.00  0.00    +0.000 C 
ATOM      8  C   UNL     1       5.947   5.270  17.052  0.00  0.00    +0.000 C 
ATOM      9  C   UNL     1       5.418   5.520  18.433  0.00  0.00    +0.000 C 
ATOM     10  N   UNL     1       4.052   5.069  18.577  0.00  0.00    +0.000 N 
ATOM     11  C   UNL     1       3.135   5.989  19.128  0.00  0.00    +0.000 A 
ATOM     12  C   UNL     1       2.348   5.646  20.222  0.00  0.00    +0.000 A 
ATOM     13  C   UNL     1       1.513   6.617  20.786  0.00  0.00    +0.000 A 
ATOM     14  C   UNL     1       1.442   7.880  20.206  0.00  0.00    +0.000 A 
ATOM     15  C   UNL     1       2.246   8.126  19.105  0.00  0.00    +0.000 A 
ATOM     16  N   UNL     1       3.119   7.230  18.587  0.00  0.00    +0.000 NA
ENDROOT
BRANCH  14  17
ATOM     17  C   UNL     1       0.583   8.905  20.716  0.00  0.00    +0.000 C 
ATOM     18  C   UNL     1      -0.098   9.809  21.111  0.00  0.00    +0.000 C 
BRANCH  18  19
ATOM     19  C   UNL     1      -0.880  10.931  21.545  0.00  0.00    +0.000 A 
ATOM     20  C   UNL     1      -1.357  11.862  20.620  0.00  0.00    +0.000 A 
ATOM     21  C   UNL     1      -2.132  12.942  21.052  0.00  0.00    +0.000 A 
ATOM     22  C   UNL     1      -2.432  13.091  22.406  0.00  0.00    +0.000 A 
ATOM     23  C   UNL     1      -1.957  12.163  23.331  0.00  0.00    +0.000 A 
ATOM     24  C   UNL     1      -1.182  11.083  22.902  0.00  0.00    +0.000 A 
ENDBRANCH  18  19
ENDBRANCH  14  17
TORSDOF 2
ENDMDL
MODEL 4
REMARK VINA RESULT:      -7.6      7.502      9.697
REMARK  Name = 
REMARK  2 active torsions:
REMARK  status: ('A' for Active; 'I' for Inactive)
REMARK    1  A    between atoms: C_14  and  C_15
REMARK    2  A    between atoms: C_16  and  C_17
REMARK                            x       y       z     vdW  Elec       q    Type
REMARK                         _______ _______ _______ _____ _____    ______ ____
ROOT
ATOM      1  O   UNL     1      -1.827  12.611  18.676  0.00  0.00    +0.000 OA
ATOM      2  C   UNL     1      -1.517  12.812  19.847  0.00  0.00    +0.000 C 
ATOM      3  O   UNL     1      -2.372  13.503  20.660  0.00  0.00    +0.000 OA
ATOM      4  C   UNL     1      -2.154  13.769  22.064  0.00  0.00    +0.000 C 
ATOM      5  C   UNL     1      -3.408  13.417  22.876  0.00  0.00    +0.000 C 
ATOM      6  C   UNL     1      -3.116  12.084  23.579  0.00  0.00    +0.000 C 
ATOM      7  C   UNL     1      -1.773  11.619  23.045  0.00  0.00    +0.000 C 
ATOM      8  C   UNL     1      -1.069  12.926  22.696  0.00  0.00    +0.000 C 
ATOM      9  C   UNL     1       0.077  12.780  21.739  0.00  0.00    +0.000 C 
ATOM     10  N   UNL     1      -0.362  12.332  20.437  0.00  0.00    +0.000 N 
ATOM     11  C   UNL     1       0.325  11.230  19.882  0.00  0.00    +0.000 A 
ATOM     12  C   UNL     1       0.876  11.300  18.608  0.00  0.00    +0.000 A 
ATOM     13  C   UNL     1       1.618  10.213  18.131  0.00  0.00    +0.000 A 
ATOM     14  C   UNL     1       1.735   9.068  18.912  0.00  0.00    +0.000 A 
ATOM     15  C   UNL     1       1.133   9.079  20.160  0.00  0.00    +0.000 A 
ATOM     16  N   UNL     1       0.477  10.145  20.677  0.00  0.00    +0.000 NA
ENDROOT
BRANCH  14  17
ATOM     17  C   UNL     1       2.452   7.912  18.467  0.00  0.00    +0.000 C 
ATOM     18  C   UNL     1       3.055   6.971  18.033  0.00  0.00    +0.000 C 
BRANCH  18  19
ATOM     19  C   UNL     1       3.782   5.877  17.457  0.00  0.00    +0.000 A 
ATOM     20  C   UNL     1       3.440   4.558  17.766  0.00  0.00    +0.000 A 
ATOM     21  C   UNL     1       4.145   3.500  17.187  0.00  0.00    +0.000 A 
ATOM     22  C   UNL     1       5.191   3.756  16.300  0.00  0.00    +0.000 A 
ATOM     23  C   UNL     1       5.534   5.072  15.991  0.00  0.00    +0.000 A 
ATOM     24  C   UNL     1       4.831   6.132  16.568  0.00  0.00    +0.000 A 
ENDBRANCH  18  19
ENDBRANCH  14  17
TORSDOF 2
ENDMDL
MODEL 5
REMARK VINA RESULT:      -7.6      5.153      7.249
REMARK  Name = 
REMARK  2 active torsions:
REMARK  status: ('A' for Active; 'I' for Inactive)
REMARK    1  A    between atoms: C_14  and  C_15
REMARK    2  A    between atoms: C_16  and  C_17
REMARK                            x       y       z     vdW  Elec       q    Type
REMARK                         _______ _______ _______ _____ _____    ______ ____
ROOT
ATOM      1  O   UNL     1       3.034   3.082  17.965  0.00  0.00    +0.000 OA
ATOM      2  C   UNL     1       4.059   3.663  17.616  0.00  0.00    +0.000 C 
ATOM      3  O   UNL     1       4.826   3.129  16.618  0.00  0.00    +0.000 OA
ATOM      4  C   UNL     1       6.025   3.730  16.080  0.00  0.00    +0.000 C 
ATOM      5  C   UNL     1       5.978   3.737  14.545  0.00  0.00    +0.000 C 
ATOM      6  C   UNL     1       5.648   5.176  14.123  0.00  0.00    +0.000 C 
ATOM      7  C   UNL     1       5.364   5.931  15.410  0.00  0.00    +0.000 C 
ATOM      8  C   UNL     1       6.208   5.188  16.440  0.00  0.00    +0.000 C 
ATOM      9  C   UNL     1       5.793   5.410  17.864  0.00  0.00    +0.000 C 
ATOM     10  N   UNL     1       4.475   4.877  18.131  0.00  0.00    +0.000 N 
ATOM     11  C   UNL     1       3.559   5.743  18.765  0.00  0.00    +0.000 A 
ATOM     12  C   UNL     1       2.897   5.356  19.926  0.00  0.00    +0.000 A 
ATOM     13  C   UNL     1       2.059   6.276  20.566  0.00  0.00    +0.000 A 
ATOM     14  C   UNL     1       1.858   7.530  19.998  0.00  0.00    +0.000 A 
ATOM     15  C   UNL     1       2.542   7.820  18.828  0.00  0.00    +0.000 A 
ATOM     16  N   UNL     1       3.418   6.978  18.231  0.00  0.00    +0.000 NA
ENDROOT
BRANCH  14  17
ATOM     17  C   UNL     1       0.989   8.503  20.586  0.00  0.00    +0.000 C 
ATOM     18  C   UNL     1       0.277   9.360  21.029  0.00  0.00    +0.000 C 
BRANCH  18  19
ATOM     19  C   UNL     1      -0.564  10.420  21.505  0.00  0.00    +0.000 A 
ATOM     20  C   UNL     1      -0.781  10.590  22.874  0.00  0.00    +0.000 A 
ATOM     21  C   UNL     1      -1.589  11.636  23.329  0.00  0.00    +0.000 A 
ATOM     22  C   UNL     1      -2.179  12.513  22.417  0.00  0.00    +0.000 A 
ATOM     23  C   UNL     1      -1.963  12.344  21.051  0.00  0.00    +0.000 A 
ATOM     24  C   UNL     1      -1.157  11.299  20.594  0.00  0.00    +0.000 A 
ENDBRANCH  18  19
ENDBRANCH  14  17
TORSDOF 2
ENDMDL
MODEL 6
REMARK VINA RESULT:      -7.5      7.868      9.963
REMARK  Name = 
REMARK  2 active torsions:
REMARK  status: ('A' for Active; 'I' for Inactive)
REMARK    1  A    between atoms: C_14  and  C_15
REMARK    2  A    between atoms: C_16  and  C_17
REMARK                            x       y       z     vdW  Elec       q    Type
REMARK                         _______ _______ _______ _____ _____    ______ ____
ROOT
ATOM      1  O   UNL     1      -3.305  11.874  18.870  0.00  0.00    +0.000 OA
ATOM      2  C   UNL     1      -2.855  12.403  19.884  0.00  0.00    +0.000 C 
ATOM      3  O   UNL     1      -3.703  13.066  20.727  0.00  0.00    +0.000 OA
ATOM      4  C   UNL     1      -3.317  13.691  21.973  0.00  0.00    +0.000 C 
ATOM      5  C   UNL     1      -4.277  13.279  23.098  0.00  0.00    +0.000 C 
ATOM      6  C   UNL     1      -3.536  12.239  23.949  0.00  0.00    +0.000 C 
ATOM      7  C   UNL     1      -2.233  11.958  23.220  0.00  0.00    +0.000 C 
ATOM      8  C   UNL     1      -1.959  13.267  22.487  0.00  0.00    +0.000 C 
ATOM      9  C   UNL     1      -1.000  13.150  21.340  0.00  0.00    +0.000 C 
ATOM     10  N   UNL     1      -1.531  12.328  20.275  0.00  0.00    +0.000 N 
ATOM     11  C   UNL     1      -0.694  11.299  19.792  0.00  0.00    +0.000 A 
ATOM     12  C   UNL     1      -0.412  11.187  18.435  0.00  0.00    +0.000 A 
ATOM     13  C   UNL     1       0.487  10.202  18.010  0.00  0.00    +0.000 A 
ATOM     14  C   UNL     1       1.028   9.320  18.942  0.00  0.00    +0.000 A 
ATOM     15  C   UNL     1       0.672   9.494  20.270  0.00  0.00    +0.000 A 
ATOM     16  N   UNL     1      -0.133  10.486  20.717  0.00  0.00    +0.000 NA
ENDROOT
BRANCH  14  17
ATOM     17  C   UNL     1       1.926   8.272  18.566  0.00  0.00    +0.000 C 
ATOM     18  C   UNL     1       2.674   7.415  18.188  0.00  0.00    +0.000 C 
BRANCH  18  19
ATOM     19  C   UNL     1       3.566   6.415  17.676  0.00  0.00    +0.000 A 
ATOM     20  C   UNL     1       4.771   6.783  17.072  0.00  0.00    +0.000 A 
ATOM     21  C   UNL     1       5.640   5.799  16.592  0.00  0.00    +0.000 A 
ATOM     22  C   UNL     1       5.309   4.450  16.716  0.00  0.00    +0.000 A 
ATOM     23  C   UNL     1       4.108   4.081  17.318  0.00  0.00    +0.000 A 
ATOM     24  C   UNL     1       3.236   5.061  17.798  0.00  0.00    +0.000 A 
ENDBRANCH  18  19
ENDBRANCH  14  17
TORSDOF 2
ENDMDL
MODEL 7
REMARK VINA RESULT:      -7.5      8.323     10.402
REMARK  Name = 
REMARK  2 active torsions:
REMARK  status: ('A' for Active; 'I' for Inactive)
REMARK    1  A    between atoms: C_14  and  C_15
REMARK    2  A    between atoms: C_16  and  C_17
REMARK                            x       y       z     vdW  Elec       q    Type
REMARK                         _______ _______ _______ _____ _____    ______ ____
ROOT
ATOM      1  O   UNL     1      -3.987  12.002  19.181  0.00  0.00    +0.000 OA
ATOM      2  C   UNL     1      -3.545  12.565  20.179  0.00  0.00    +0.000 C 
ATOM      3  O   UNL     1      -4.411  13.167  21.049  0.00  0.00    +0.000 OA
ATOM      4  C   UNL     1      -4.032  13.821  22.281  0.00  0.00    +0.000 C 
ATOM      5  C   UNL     1      -4.922  13.344  23.437  0.00  0.00    +0.000 C 
ATOM      6  C   UNL     1      -4.079  12.363  24.264  0.00  0.00    +0.000 C 
ATOM      7  C   UNL     1      -2.784  12.178  23.493  0.00  0.00    +0.000 C 
ATOM      8  C   UNL     1      -2.630  13.501  22.751  0.00  0.00    +0.000 C 
ATOM      9  C   UNL     1      -1.703  13.451  21.573  0.00  0.00    +0.000 C 
ATOM     10  N   UNL     1      -2.207  12.590  20.527  0.00  0.00    +0.000 N 
ATOM     11  C   UNL     1      -1.313  11.624  20.017  0.00  0.00    +0.000 A 
ATOM     12  C   UNL     1      -1.067  11.528  18.652  0.00  0.00    +0.000 A 
ATOM     13  C   UNL     1      -0.112  10.611  18.199  0.00  0.00    +0.000 A 
ATOM     14  C   UNL     1       0.523   9.775  19.113  0.00  0.00    +0.000 A 
ATOM     15  C   UNL     1       0.198   9.926  20.451  0.00  0.00    +0.000 A 
ATOM     16  N   UNL     1      -0.663  10.857  20.924  0.00  0.00    +0.000 NA
ENDROOT
BRANCH  14  17
ATOM     17  C   UNL     1       1.484   8.795  18.709  0.00  0.00    +0.000 C 
ATOM     18  C   UNL     1       2.238   7.937  18.344  0.00  0.00    +0.000 C 
BRANCH  18  19
ATOM     19  C   UNL     1       3.092   6.883  17.877  0.00  0.00    +0.000 A 
ATOM     20  C   UNL     1       2.721   5.547  18.039  0.00  0.00    +0.000 A 
ATOM     21  C   UNL     1       3.553   4.528  17.565  0.00  0.00    +0.000 A 
ATOM     22  C   UNL     1       4.754   4.844  16.929  0.00  0.00    +0.000 A 
ATOM     23  C   UNL     1       5.126   6.177  16.766  0.00  0.00    +0.000 A 
ATOM     24  C   UNL     1       4.297   7.197  17.239  0.00  0.00    +0.000 A 
ENDBRANCH  18  19
ENDBRANCH  14  17
TORSDOF 2
ENDMDL
MODEL 8
REMARK VINA RESULT:      -7.5      5.454     11.162
REMARK  Name = 
REMARK  2 active torsions:
REMARK  status: ('A' for Active; 'I' for Inactive)
REMARK    1  A    between atoms: C_14  and  C_15
REMARK    2  A    between atoms: C_16  and  C_17
REMARK                            x       y       z     vdW  Elec       q    Type
REMARK                         _______ _______ _______ _____ _____    ______ ____
ROOT
ATOM      1  O   UNL     1      12.333  14.474  16.812  0.00  0.00    +0.000 OA
ATOM      2  C   UNL     1      11.764  15.090  17.711  0.00  0.00    +0.000 C 
ATOM      3  O   UNL     1      11.876  16.451  17.766  0.00  0.00    +0.000 OA
ATOM      4  C   UNL     1      11.223  17.300  18.737  0.00  0.00    +0.000 C 
ATOM      5  C   UNL     1      10.532  18.480  18.038  0.00  0.00    +0.000 C 
ATOM      6  C   UNL     1       9.030  18.162  18.023  0.00  0.00    +0.000 C 
ATOM      7  C   UNL     1       8.899  16.752  18.571  0.00  0.00    +0.000 C 
ATOM      8  C   UNL     1      10.102  16.628  19.499  0.00  0.00    +0.000 C 
ATOM      9  C   UNL     1      10.492  15.218  19.829  0.00  0.00    +0.000 C 
ATOM     10  N   UNL     1      10.952  14.499  18.662  0.00  0.00    +0.000 N 
ATOM     11  C   UNL     1      10.370  13.235  18.427  0.00  0.00    +0.000 A 
ATOM     12  C   UNL     1      11.162  12.106  18.246  0.00  0.00    +0.000 A 
ATOM     13  C   UNL     1      10.541  10.861  18.097  0.00  0.00    +0.000 A 
ATOM     14  C   UNL     1       9.151  10.787  18.071  0.00  0.00    +0.000 A 
ATOM     15  C   UNL     1       8.443  11.967  18.236  0.00  0.00    +0.000 A 
ATOM     16  N   UNL     1       9.018  13.172  18.460  0.00  0.00    +0.000 NA
ENDROOT
BRANCH  14  17
ATOM     17  C   UNL     1       8.458   9.549  17.889  0.00  0.00    +0.000 C 
ATOM     18  C   UNL     1       7.886   8.499  17.803  0.00  0.00    +0.000 C 
BRANCH  18  19
ATOM     19  C   UNL     1       7.206   7.236  17.763  0.00  0.00    +0.000 A 
ATOM     20  C   UNL     1       7.756   6.115  18.388  0.00  0.00    +0.000 A 
ATOM     21  C   UNL     1       7.076   4.894  18.358  0.00  0.00    +0.000 A 
ATOM     22  C   UNL     1       5.849   4.792  17.703  0.00  0.00    +0.000 A 
ATOM     23  C   UNL     1       5.298   5.909  17.078  0.00  0.00    +0.000 A 
ATOM     24  C   UNL     1       5.975   7.131  17.107  0.00  0.00    +0.000 A 
ENDBRANCH  18  19
ENDBRANCH  14  17
TORSDOF 2
ENDMDL
MODEL 9
REMARK VINA RESULT:      -7.5      6.642      8.685
REMARK  Name = 
REMARK  2 active torsions:
REMARK  status: ('A' for Active; 'I' for Inactive)
REMARK    1  A    between atoms: C_14  and  C_15
REMARK    2  A    between atoms: C_16  and  C_17
REMARK                            x       y       z     vdW  Elec       q    Type
REMARK                         _______ _______ _______ _____ _____    ______ ____
ROOT
ATOM      1  O   UNL     1       0.465  10.881  22.383  0.00  0.00    +0.000 OA
ATOM      2  C   UNL     1      -0.264  11.325  21.498  0.00  0.00    +0.000 C 
ATOM      3  O   UNL     1      -0.934  12.498  21.706  0.00  0.00    +0.000 OA
ATOM      4  C   UNL     1      -1.783  13.154  20.738  0.00  0.00    +0.000 C 
ATOM      5  C   UNL     1      -1.429  14.644  20.637  0.00  0.00    +0.000 C 
ATOM      6  C   UNL     1      -0.630  14.819  19.338  0.00  0.00    +0.000 C 
ATOM      7  C   UNL     1      -0.410  13.418  18.795  0.00  0.00    +0.000 C 
ATOM      8  C   UNL     1      -1.617  12.649  19.321  0.00  0.00    +0.000 C 
ATOM      9  C   UNL     1      -1.450  11.159  19.333  0.00  0.00    +0.000 C 
ATOM     10  N   UNL     1      -0.417  10.740  20.254  0.00  0.00    +0.000 N 
ATOM     11  C   UNL     1       0.559   9.854  19.750  0.00  0.00    +0.000 A 
ATOM     12  C   UNL     1       0.839   8.655  20.398  0.00  0.00    +0.000 A 
ATOM     13  C   UNL     1       1.755   7.771  19.818  0.00  0.00    +0.000 A 
ATOM     14  C   UNL     1       2.410   8.134  18.645  0.00  0.00    +0.000 A 
ATOM     15  C   UNL     1       2.085   9.358  18.082  0.00  0.00    +0.000 A 
ATOM     16  N   UNL     1       1.146  10.197  18.579  0.00  0.00    +0.000 NA
ENDROOT
BRANCH  14  17
ATOM     17  C   UNL     1       3.381   7.288  18.021  0.00  0.00    +0.000 C 
ATOM     18  C   UNL     1       4.209   6.630  17.457  0.00  0.00    +0.000 C 
BRANCH  18  19
ATOM     19  C   UNL     1       5.217   5.895  16.748  0.00  0.00    +0.000 A 
ATOM     20  C   UNL     1       6.267   5.285  17.439  0.00  0.00    +0.000 A 
ATOM     21  C   UNL     1       7.233   4.558  16.740  0.00  0.00    +0.000 A 
ATOM     22  C   UNL     1       7.153   4.438  15.352  0.00  0.00    +0.000 A 
ATOM     23  C   UNL     1       6.107   5.046  14.661  0.00  0.00    +0.000 A 
ATOM     24  C   UNL     1       5.139   5.774  15.357  0.00  0.00    +0.000 A 
ENDBRANCH  18  19
ENDBRANCH  14  17
TORSDOF 2
ENDMDL
