MODEL 1
REMARK VINA RESULT:      -7.2      0.000      0.000
REMARK  Name = 
REMARK  12 active torsions:
REMARK  status: ('A' for Active; 'I' for Inactive)
REMARK    1  A    between atoms: C_1  and  O_2
REMARK    2  A    between atoms: O_2  and  C_3
REMARK    3  A    between atoms: C_3  and  C_4
REMARK    4  A    between atoms: C_4  and  N_5
REMARK    5  A    between atoms: C_6  and  C_8
REMARK    6  A    between atoms: C_8  and  C_9
REMARK    7  A    between atoms: C_8  and  N_14
REMARK    8  A    between atoms: N_14  and  C_27
REMARK    9  A    between atoms: C_15  and  C_17
REMARK   10  A    between atoms: C_17  and  N_18
REMARK   11  A    between atoms: C_31  and  C_32
REMARK   12  A    between atoms: C_32  and  C_33
REMARK                            x       y       z     vdW  Elec       q    Type
REMARK                         _______ _______ _______ _____ _____    ______ ____
ROOT
ATOM      1  N   UNL     1       0.147  12.218  20.253  0.00  0.00    +0.000 N 
ATOM      2  C   UNL     1       1.014  13.244  20.674  0.00  0.00    +0.000 C 
ATOM      3  O   UNL     1       2.192  13.022  20.993  0.00  0.00    +0.000 OA
ENDROOT
BRANCH   1   4
ATOM      4  C   UNL     1       0.644  10.870  20.394  0.00  0.00    +0.000 A 
ATOM      5  C   UNL     1       0.439  10.144  21.568  0.00  0.00    +0.000 A 
ATOM      6  C   UNL     1       0.860   8.815  21.684  0.00  0.00    +0.000 A 
ATOM      7  C   UNL     1       1.457   8.167  20.606  0.00  0.00    +0.000 A 
ATOM      8  C   UNL     1       1.620   8.849  19.399  0.00  0.00    +0.000 A 
ATOM      9  C   UNL     1       1.220  10.197  19.300  0.00  0.00    +0.000 A 
BRANCH   8  10
ATOM     10  C   UNL     1       2.229   8.186  18.210  0.00  0.00    +0.000 C 
ATOM     11  C   UNL     1       2.639   6.735  18.276  0.00  0.00    +0.000 C 
ATOM     12  O   UNL     1       2.382   8.839  17.173  0.00  0.00    +0.000 OA
ENDBRANCH   8  10
ENDBRANCH   1   4
BRANCH   1  13
ATOM     13  C   UNL     1      -1.234  12.448  19.698  0.00  0.00    +0.000 C 
BRANCH  13  14
ATOM     14  C   UNL     1      -2.290  12.612  20.802  0.00  0.00    +0.000 A 
ATOM     15  C   UNL     1      -2.152  12.423  22.174  0.00  0.00    +0.000 A 
ATOM     16  C   UNL     1      -3.381  12.507  22.885  0.00  0.00    +0.000 A 
ATOM     17  C   UNL     1      -4.435  12.787  22.050  0.00  0.00    +0.000 A 
ATOM     18  S   UNL     1      -3.938  12.949  20.421  0.00  0.00    +0.000 S 
ENDBRANCH  13  14
BRANCH  13  20
ATOM     19  N   UNL     1      -1.949  11.913  17.351  0.00  0.00    +0.000 N 
ATOM     20  C   UNL     1      -1.791  11.438  18.637  0.00  0.00    +0.000 C 
ATOM     21  O   UNL     1      -2.091  10.273  18.901  0.00  0.00    +0.000 OA
ATOM     22  H   UNL     1      -1.970  12.913  17.164  0.00  0.00    +0.000 HD
BRANCH  19  23
ATOM     23  C   UNL     1      -2.453  11.036  16.297  0.00  0.00    +0.000 C 
BRANCH  23  24
ATOM     24  C   UNL     1      -3.908  11.315  15.907  0.00  0.00    +0.000 C 
BRANCH  24  26
ATOM     25  C   UNL     1      -5.705  12.171  17.175  0.00  0.00    +0.000 C 
ATOM     26  O   UNL     1      -4.747  11.126  17.052  0.00  0.00    +0.000 OA
ENDBRANCH  24  26
ENDBRANCH  23  24
ENDBRANCH  19  23
ENDBRANCH  13  20
ENDBRANCH   1  13
BRANCH   2  27
ATOM     27  C   UNL     1       0.539  14.679  20.760  0.00  0.00    +0.000 C 
BRANCH  27  28
ATOM     28  N   UNL     1       1.232  15.552  19.837  0.00  0.00    +0.000 N 
ATOM     29  N   UNL     1       2.567  15.423  19.687  0.00  0.00    +0.000 NA
ATOM     30  N   UNL     1       2.934  16.201  18.675  0.00  0.00    +0.000 NA
ATOM     31  C   UNL     1       1.817  16.832  18.193  0.00  0.00    +0.000 A 
ATOM     32  C   UNL     1       1.664  17.745  17.138  0.00  0.00    +0.000 A 
ATOM     33  C   UNL     1       0.384  18.248  16.868  0.00  0.00    +0.000 A 
ATOM     34  C   UNL     1      -0.719  17.837  17.622  0.00  0.00    +0.000 A 
ATOM     35  C   UNL     1      -0.584  16.914  18.668  0.00  0.00    +0.000 A 
ATOM     36  C   UNL     1       0.706  16.436  18.931  0.00  0.00    +0.000 A 
ENDBRANCH  27  28
ENDBRANCH   2  27
TORSDOF 10
ENDMDL
MODEL 2
REMARK VINA RESULT:      -6.8      0.830      1.005
REMARK  Name = 
REMARK  12 active torsions:
REMARK  status: ('A' for Active; 'I' for Inactive)
REMARK    1  A    between atoms: C_1  and  O_2
REMARK    2  A    between atoms: O_2  and  C_3
REMARK    3  A    between atoms: C_3  and  C_4
REMARK    4  A    between atoms: C_4  and  N_5
REMARK    5  A    between atoms: C_6  and  C_8
REMARK    6  A    between atoms: C_8  and  C_9
REMARK    7  A    between atoms: C_8  and  N_14
REMARK    8  A    between atoms: N_14  and  C_27
REMARK    9  A    between atoms: C_15  and  C_17
REMARK   10  A    between atoms: C_17  and  N_18
REMARK   11  A    between atoms: C_31  and  C_32
REMARK   12  A    between atoms: C_32  and  C_33
REMARK                            x       y       z     vdW  Elec       q    Type
REMARK                         _______ _______ _______ _____ _____    ______ ____
ROOT
ATOM      1  N   UNL     1       0.059  12.043  20.144  0.00  0.00    +0.000 N 
ATOM      2  C   UNL     1       0.865  13.122  20.556  0.00  0.00    +0.000 C 
ATOM      3  O   UNL     1       2.040  12.965  20.922  0.00  0.00    +0.000 OA
ENDROOT
BRANCH   1   4
ATOM      4  C   UNL     1       0.609  10.725  20.351  0.00  0.00    +0.000 A 
ATOM      5  C   UNL     1       0.409  10.040  21.550  0.00  0.00    +0.000 A 
ATOM      6  C   UNL     1       0.883   8.736  21.730  0.00  0.00    +0.000 A 
ATOM      7  C   UNL     1       1.530   8.071  20.693  0.00  0.00    +0.000 A 
ATOM      8  C   UNL     1       1.691   8.709  19.462  0.00  0.00    +0.000 A 
ATOM      9  C   UNL     1       1.236  10.033  19.298  0.00  0.00    +0.000 A 
BRANCH   8  10
ATOM     10  C   UNL     1       2.353   8.024  18.314  0.00  0.00    +0.000 C 
ATOM     11  C   UNL     1       2.883   6.619  18.470  0.00  0.00    +0.000 C 
ATOM     12  O   UNL     1       2.450   8.620  17.237  0.00  0.00    +0.000 OA
ENDBRANCH   8  10
ENDBRANCH   1   4
BRANCH   1  13
ATOM     13  C   UNL     1      -1.310  12.191  19.533  0.00  0.00    +0.000 C 
BRANCH  13  14
ATOM     14  C   UNL     1      -2.395  12.468  20.587  0.00  0.00    +0.000 A 
ATOM     15  C   UNL     1      -2.303  12.388  21.973  0.00  0.00    +0.000 A 
ATOM     16  C   UNL     1      -3.549  12.557  22.635  0.00  0.00    +0.000 A 
ATOM     17  C   UNL     1      -4.570  12.790  21.747  0.00  0.00    +0.000 A 
ATOM     18  S   UNL     1      -4.021  12.808  20.128  0.00  0.00    +0.000 S 
ENDBRANCH  13  14
BRANCH  13  20
ATOM     19  N   UNL     1      -1.842  11.342  17.232  0.00  0.00    +0.000 N 
ATOM     20  C   UNL     1      -1.831  11.060  18.582  0.00  0.00    +0.000 C 
ATOM     21  O   UNL     1      -2.226   9.965  18.984  0.00  0.00    +0.000 OA
ATOM     22  H   UNL     1      -1.784  12.301  16.899  0.00  0.00    +0.000 HD
BRANCH  19  23
ATOM     23  C   UNL     1      -2.303  10.340  16.273  0.00  0.00    +0.000 C 
BRANCH  23  24
ATOM     24  C   UNL     1      -3.178  10.915  15.154  0.00  0.00    +0.000 C 
BRANCH  24  26
ATOM     25  C   UNL     1      -4.090  10.027  13.166  0.00  0.00    +0.000 C 
ATOM     26  O   UNL     1      -3.952   9.860  14.572  0.00  0.00    +0.000 OA
ENDBRANCH  24  26
ENDBRANCH  23  24
ENDBRANCH  19  23
ENDBRANCH  13  20
ENDBRANCH   1  13
BRANCH   2  27
ATOM     27  C   UNL     1       0.325  14.536  20.573  0.00  0.00    +0.000 C 
BRANCH  27  28
ATOM     28  N   UNL     1       1.087  15.434  19.732  0.00  0.00    +0.000 N 
ATOM     29  N   UNL     1       2.426  15.285  19.654  0.00  0.00    +0.000 NA
ATOM     30  N   UNL     1       2.865  16.098  18.701  0.00  0.00    +0.000 NA
ATOM     31  C   UNL     1       1.790  16.771  18.182  0.00  0.00    +0.000 A 
ATOM     32  C   UNL     1       1.716  17.731  17.160  0.00  0.00    +0.000 A 
ATOM     33  C   UNL     1       0.464  18.269  16.837  0.00  0.00    +0.000 A 
ATOM     34  C   UNL     1      -0.689  17.849  17.507  0.00  0.00    +0.000 A 
ATOM     35  C   UNL     1      -0.633  16.880  18.518  0.00  0.00    +0.000 A 
ATOM     36  C   UNL     1       0.631  16.366  18.835  0.00  0.00    +0.000 A 
ENDBRANCH  27  28
ENDBRANCH   2  27
TORSDOF 10
ENDMDL
MODEL 3
REMARK VINA RESULT:      -6.8      1.529      1.738
REMARK  Name = 
REMARK  12 active torsions:
REMARK  status: ('A' for Active; 'I' for Inactive)
REMARK    1  A    between atoms: C_1  and  O_2
REMARK    2  A    between atoms: O_2  and  C_3
REMARK    3  A    between atoms: C_3  and  C_4
REMARK    4  A    between atoms: C_4  and  N_5
REMARK    5  A    between atoms: C_6  and  C_8
REMARK    6  A    between atoms: C_8  and  C_9
REMARK    7  A    between atoms: C_8  and  N_14
REMARK    8  A    between atoms: N_14  and  C_27
REMARK    9  A    between atoms: C_15  and  C_17
REMARK   10  A    between atoms: C_17  and  N_18
REMARK   11  A    between atoms: C_31  and  C_32
REMARK   12  A    between atoms: C_32  and  C_33
REMARK                            x       y       z     vdW  Elec       q    Type
REMARK                         _______ _______ _______ _____ _____    ______ ____
ROOT
ATOM      1  N   UNL     1       0.274  13.140  20.751  0.00  0.00    +0.000 N 
ATOM      2  C   UNL     1       1.362  13.954  21.120  0.00  0.00    +0.000 C 
ATOM      3  O   UNL     1       2.501  13.495  21.293  0.00  0.00    +0.000 OA
ENDROOT
BRANCH   1   4
ATOM      4  C   UNL     1       0.512  11.717  20.769  0.00  0.00    +0.000 A 
ATOM      5  C   UNL     1       0.063  10.924  21.826  0.00  0.00    +0.000 A 
ATOM      6  C   UNL     1       0.233   9.535  21.817  0.00  0.00    +0.000 A 
ATOM      7  C   UNL     1       0.817   8.903  20.723  0.00  0.00    +0.000 A 
ATOM      8  C   UNL     1       1.221   9.664  19.624  0.00  0.00    +0.000 A 
ATOM      9  C   UNL     1       1.073  11.066  19.655  0.00  0.00    +0.000 A 
BRANCH   8  10
ATOM     10  C   UNL     1       1.826   9.027  18.419  0.00  0.00    +0.000 C 
ATOM     11  C   UNL     1       2.379   7.625  18.498  0.00  0.00    +0.000 C 
ATOM     12  O   UNL     1       1.858   9.660  17.360  0.00  0.00    +0.000 OA
ENDBRANCH   8  10
ENDBRANCH   1   4
BRANCH   1  13
ATOM     13  C   UNL     1      -1.085  13.662  20.366  0.00  0.00    +0.000 C 
BRANCH  13  14
ATOM     14  C   UNL     1      -1.828  14.293  21.555  0.00  0.00    +0.000 A 
ATOM     15  C   UNL     1      -2.637  15.426  21.574  0.00  0.00    +0.000 A 
ATOM     16  C   UNL     1      -3.036  15.817  22.881  0.00  0.00    +0.000 A 
ATOM     17  C   UNL     1      -2.549  14.962  23.839  0.00  0.00    +0.000 A 
ATOM     18  S   UNL     1      -1.621  13.696  23.159  0.00  0.00    +0.000 S 
ENDBRANCH  13  14
BRANCH  13  20
ATOM     19  N   UNL     1      -1.824  12.453  18.295  0.00  0.00    +0.000 N 
ATOM     20  C   UNL     1      -2.075  12.698  19.629  0.00  0.00    +0.000 C 
ATOM     21  O   UNL     1      -3.045  12.173  20.176  0.00  0.00    +0.000 OA
ATOM     22  H   UNL     1      -1.213  13.064  17.758  0.00  0.00    +0.000 HD
BRANCH  19  23
ATOM     23  C   UNL     1      -2.692  11.557  17.533  0.00  0.00    +0.000 C 
BRANCH  23  24
ATOM     24  C   UNL     1      -2.097  10.163  17.312  0.00  0.00    +0.000 C 
BRANCH  24  26
ATOM     25  C   UNL     1      -3.145  10.698  15.266  0.00  0.00    +0.000 C 
ATOM     26  O   UNL     1      -2.321   9.764  15.955  0.00  0.00    +0.000 OA
ENDBRANCH  24  26
ENDBRANCH  23  24
ENDBRANCH  19  23
ENDBRANCH  13  20
ENDBRANCH   1  13
BRANCH   2  27
ATOM     27  C   UNL     1       1.184  15.443  21.328  0.00  0.00    +0.000 C 
BRANCH  27  28
ATOM     28  N   UNL     1       1.630  16.222  20.193  0.00  0.00    +0.000 N 
ATOM     29  N   UNL     1       2.948  16.273  19.906  0.00  0.00    +0.000 NA
ATOM     30  N   UNL     1       3.081  16.892  18.739  0.00  0.00    +0.000 NA
ATOM     31  C   UNL     1       1.833  17.242  18.295  0.00  0.00    +0.000 A 
ATOM     32  C   UNL     1       1.429  17.905  17.125  0.00  0.00    +0.000 A 
ATOM     33  C   UNL     1       0.063  18.145  16.929  0.00  0.00    +0.000 A 
ATOM     34  C   UNL     1      -0.879  17.721  17.870  0.00  0.00    +0.000 A 
ATOM     35  C   UNL     1      -0.493  17.044  19.035  0.00  0.00    +0.000 A 
ATOM     36  C   UNL     1       0.879  16.828  19.218  0.00  0.00    +0.000 A 
ENDBRANCH  27  28
ENDBRANCH   2  27
TORSDOF 10
ENDMDL
MODEL 4
REMARK VINA RESULT:      -6.8      1.840      5.922
REMARK  Name = 
REMARK  12 active torsions:
REMARK  status: ('A' for Active; 'I' for Inactive)
REMARK    1  A    between atoms: C_1  and  O_2
REMARK    2  A    between atoms: O_2  and  C_3
REMARK    3  A    between atoms: C_3  and  C_4
REMARK    4  A    between atoms: C_4  and  N_5
REMARK    5  A    between atoms: C_6  and  C_8
REMARK    6  A    between atoms: C_8  and  C_9
REMARK    7  A    between atoms: C_8  and  N_14
REMARK    8  A    between atoms: N_14  and  C_27
REMARK    9  A    between atoms: C_15  and  C_17
REMARK   10  A    between atoms: C_17  and  N_18
REMARK   11  A    between atoms: C_31  and  C_32
REMARK   12  A    between atoms: C_32  and  C_33
REMARK                            x       y       z     vdW  Elec       q    Type
REMARK                         _______ _______ _______ _____ _____    ______ ____
ROOT
ATOM      1  N   UNL     1      -0.165  13.189  20.220  0.00  0.00    +0.000 N 
ATOM      2  C   UNL     1       0.658  12.119  20.621  0.00  0.00    +0.000 C 
ATOM      3  O   UNL     1       1.797  12.297  21.078  0.00  0.00    +0.000 OA
ENDROOT
BRANCH   1   4
ATOM      4  C   UNL     1       0.458  14.491  20.191  0.00  0.00    +0.000 A 
ATOM      5  C   UNL     1       0.449  15.320  21.314  0.00  0.00    +0.000 A 
ATOM      6  C   UNL     1       1.108  16.554  21.312  0.00  0.00    +0.000 A 
ATOM      7  C   UNL     1       1.833  16.965  20.198  0.00  0.00    +0.000 A 
ATOM      8  C   UNL     1       1.911  16.130  19.082  0.00  0.00    +0.000 A 
ATOM      9  C   UNL     1       1.219  14.901  19.081  0.00  0.00    +0.000 A 
BRANCH   8  10
ATOM     10  C   UNL     1       2.700  16.517  17.877  0.00  0.00    +0.000 C 
ATOM     11  C   UNL     1       3.716  15.565  17.296  0.00  0.00    +0.000 C 
ATOM     12  O   UNL     1       2.500  17.620  17.360  0.00  0.00    +0.000 OA
ENDBRANCH   8  10
ENDBRANCH   1   4
BRANCH   1  13
ATOM     13  C   UNL     1      -1.608  13.046  19.818  0.00  0.00    +0.000 C 
BRANCH  13  14
ATOM     14  C   UNL     1      -2.553  13.003  21.030  0.00  0.00    +0.000 A 
ATOM     15  C   UNL     1      -2.285  12.579  22.328  0.00  0.00    +0.000 A 
ATOM     16  C   UNL     1      -3.439  12.525  23.157  0.00  0.00    +0.000 A 
ATOM     17  C   UNL     1      -4.566  12.935  22.488  0.00  0.00    +0.000 A 
ATOM     18  S   UNL     1      -4.227  13.384  20.873  0.00  0.00    +0.000 S 
ENDBRANCH  13  14
BRANCH  13  20
ATOM     19  N   UNL     1      -1.762  12.077  17.507  0.00  0.00    +0.000 N 
ATOM     20  C   UNL     1      -2.003  11.878  18.851  0.00  0.00    +0.000 C 
ATOM     21  O   UNL     1      -2.513  10.824  19.233  0.00  0.00    +0.000 OA
ATOM     22  H   UNL     1      -1.602  13.011  17.139  0.00  0.00    +0.000 HD
BRANCH  19  23
ATOM     23  C   UNL     1      -2.091  11.035  16.536  0.00  0.00    +0.000 C 
BRANCH  23  24
ATOM     24  C   UNL     1      -3.406  11.281  15.790  0.00  0.00    +0.000 C 
BRANCH  24  26
ATOM     25  C   UNL     1      -5.288  11.904  17.072  0.00  0.00    +0.000 C 
ATOM     26  O   UNL     1      -4.497  10.821  16.594  0.00  0.00    +0.000 OA
ENDBRANCH  24  26
ENDBRANCH  23  24
ENDBRANCH  19  23
ENDBRANCH  13  20
ENDBRANCH   1  13
BRANCH   2  27
ATOM     27  C   UNL     1       0.182  10.686  20.506  0.00  0.00    +0.000 C 
BRANCH  27  28
ATOM     28  N   UNL     1       0.871   9.951  19.467  0.00  0.00    +0.000 N 
ATOM     29  N   UNL     1       1.130  10.561  18.291  0.00  0.00    +0.000 NA
ATOM     30  N   UNL     1       1.911   9.753  17.584  0.00  0.00    +0.000 NA
ATOM     31  C   UNL     1       2.135   8.620  18.321  0.00  0.00    +0.000 A 
ATOM     32  C   UNL     1       2.891   7.472  18.032  0.00  0.00    +0.000 A 
ATOM     33  C   UNL     1       2.937   6.444  18.982  0.00  0.00    +0.000 A 
ATOM     34  C   UNL     1       2.259   6.564  20.198  0.00  0.00    +0.000 A 
ATOM     35  C   UNL     1       1.514   7.710  20.508  0.00  0.00    +0.000 A 
ATOM     36  C   UNL     1       1.469   8.719  19.538  0.00  0.00    +0.000 A 
ENDBRANCH  27  28
ENDBRANCH   2  27
TORSDOF 10
ENDMDL
MODEL 5
REMARK VINA RESULT:      -6.6      2.988      6.174
REMARK  Name = 
REMARK  12 active torsions:
REMARK  status: ('A' for Active; 'I' for Inactive)
REMARK    1  A    between atoms: C_1  and  O_2
REMARK    2  A    between atoms: O_2  and  C_3
REMARK    3  A    between atoms: C_3  and  C_4
REMARK    4  A    between atoms: C_4  and  N_5
REMARK    5  A    between atoms: C_6  and  C_8
REMARK    6  A    between atoms: C_8  and  C_9
REMARK    7  A    between atoms: C_8  and  N_14
REMARK    8  A    between atoms: N_14  and  C_27
REMARK    9  A    between atoms: C_15  and  C_17
REMARK   10  A    between atoms: C_17  and  N_18
REMARK   11  A    between atoms: C_31  and  C_32
REMARK   12  A    between atoms: C_32  and  C_33
REMARK                            x       y       z     vdW  Elec       q    Type
REMARK                         _______ _______ _______ _____ _____    ______ ____
ROOT
ATOM      1  N   UNL     1      -0.571  11.185  19.740  0.00  0.00    +0.000 N 
ATOM      2  C   UNL     1      -1.682  10.955  18.905  0.00  0.00    +0.000 C 
ATOM      3  O   UNL     1      -1.985   9.819  18.510  0.00  0.00    +0.000 OA
ENDROOT
BRANCH   1   4
ATOM      4  C   UNL     1       0.305  10.059  19.955  0.00  0.00    +0.000 A 
ATOM      5  C   UNL     1       0.269   9.334  21.147  0.00  0.00    +0.000 A 
ATOM      6  C   UNL     1       1.069   8.201  21.334  0.00  0.00    +0.000 A 
ATOM      7  C   UNL     1       1.891   7.741  20.310  0.00  0.00    +0.000 A 
ATOM      8  C   UNL     1       1.902   8.410  19.085  0.00  0.00    +0.000 A 
ATOM      9  C   UNL     1       1.116   9.568  18.914  0.00  0.00    +0.000 A 
BRANCH   8  10
ATOM     10  C   UNL     1       2.747   7.936  17.950  0.00  0.00    +0.000 C 
ATOM     11  C   UNL     1       3.419   6.586  18.015  0.00  0.00    +0.000 C 
ATOM     12  O   UNL     1       2.878   8.660  16.959  0.00  0.00    +0.000 OA
ENDBRANCH   8  10
ENDBRANCH   1   4
BRANCH   1  13
ATOM     13  C   UNL     1      -0.253  12.509  20.384  0.00  0.00    +0.000 C 
BRANCH  13  14
ATOM     14  C   UNL     1       1.171  12.990  20.063  0.00  0.00    +0.000 A 
ATOM     15  C   UNL     1       2.184  13.361  20.942  0.00  0.00    +0.000 A 
ATOM     16  C   UNL     1       3.325  13.909  20.295  0.00  0.00    +0.000 A 
ATOM     17  C   UNL     1       3.178  13.923  18.929  0.00  0.00    +0.000 A 
ATOM     18  S   UNL     1       1.674  13.275  18.439  0.00  0.00    +0.000 S 
ENDBRANCH  13  14
BRANCH  13  20
ATOM     19  N   UNL     1      -1.094  13.827  22.348  0.00  0.00    +0.000 N 
ATOM     20  C   UNL     1      -0.484  12.664  21.926  0.00  0.00    +0.000 C 
ATOM     21  O   UNL     1      -0.143  11.816  22.752  0.00  0.00    +0.000 OA
ATOM     22  H   UNL     1      -1.139  14.642  21.741  0.00  0.00    +0.000 HD
BRANCH  19  23
ATOM     23  C   UNL     1      -1.357  14.049  23.768  0.00  0.00    +0.000 C 
BRANCH  23  24
ATOM     24  C   UNL     1      -2.815  14.406  24.077  0.00  0.00    +0.000 C 
BRANCH  24  26
ATOM     25  C   UNL     1      -1.707  15.521  25.838  0.00  0.00    +0.000 C 
ATOM     26  O   UNL     1      -2.908  14.880  25.425  0.00  0.00    +0.000 OA
ENDBRANCH  24  26
ENDBRANCH  23  24
ENDBRANCH  19  23
ENDBRANCH  13  20
ENDBRANCH   1  13
BRANCH   2  27
ATOM     27  C   UNL     1      -2.562  12.098  18.448  0.00  0.00    +0.000 C 
BRANCH  27  28
ATOM     28  N   UNL     1      -3.661  12.353  19.354  0.00  0.00    +0.000 N 
ATOM     29  N   UNL     1      -3.527  13.307  20.300  0.00  0.00    +0.000 NA
ATOM     30  N   UNL     1      -4.711  13.468  20.877  0.00  0.00    +0.000 NA
ATOM     31  C   UNL     1      -5.595  12.599  20.293  0.00  0.00    +0.000 A 
ATOM     32  C   UNL     1      -6.961  12.380  20.536  0.00  0.00    +0.000 A 
ATOM     33  C   UNL     1      -7.626  11.402  19.784  0.00  0.00    +0.000 A 
ATOM     34  C   UNL     1      -6.949  10.672  18.803  0.00  0.00    +0.000 A 
ATOM     35  C   UNL     1      -5.590  10.891  18.538  0.00  0.00    +0.000 A 
ATOM     36  C   UNL     1      -4.941  11.862  19.312  0.00  0.00    +0.000 A 
ENDBRANCH  27  28
ENDBRANCH   2  27
TORSDOF 10
ENDMDL
MODEL 6
REMARK VINA RESULT:      -6.5      2.906      6.116
REMARK  Name = 
REMARK  12 active torsions:
REMARK  status: ('A' for Active; 'I' for Inactive)
REMARK    1  A    between atoms: C_1  and  O_2
REMARK    2  A    between atoms: O_2  and  C_3
REMARK    3  A    between atoms: C_3  and  C_4
REMARK    4  A    between atoms: C_4  and  N_5
REMARK    5  A    between atoms: C_6  and  C_8
REMARK    6  A    between atoms: C_8  and  C_9
REMARK    7  A    between atoms: C_8  and  N_14
REMARK    8  A    between atoms: N_14  and  C_27
REMARK    9  A    between atoms: C_15  and  C_17
REMARK   10  A    between atoms: C_17  and  N_18
REMARK   11  A    between atoms: C_31  and  C_32
REMARK   12  A    between atoms: C_32  and  C_33
REMARK                            x       y       z     vdW  Elec       q    Type
REMARK                         _______ _______ _______ _____ _____    ______ ____
ROOT
ATOM      1  N   UNL     1      -0.975  11.293  19.523  0.00  0.00    +0.000 N 
ATOM      2  C   UNL     1      -2.053  10.956  18.683  0.00  0.00    +0.000 C 
ATOM      3  O   UNL     1      -2.311   9.782  18.378  0.00  0.00    +0.000 OA
ENDROOT
BRANCH   1   4
ATOM      4  C   UNL     1      -0.072  10.218  19.857  0.00  0.00    +0.000 A 
ATOM      5  C   UNL     1      -0.138   9.578  21.095  0.00  0.00    +0.000 A 
ATOM      6  C   UNL     1       0.691   8.491  21.398  0.00  0.00    +0.000 A 
ATOM      7  C   UNL     1       1.575   7.992  20.446  0.00  0.00    +0.000 A 
ATOM      8  C   UNL     1       1.620   8.573  19.178  0.00  0.00    +0.000 A 
ATOM      9  C   UNL     1       0.803   9.686  18.891  0.00  0.00    +0.000 A 
BRANCH   8  10
ATOM     10  C   UNL     1       2.531   8.052  18.118  0.00  0.00    +0.000 C 
ATOM     11  C   UNL     1       3.214   6.717  18.291  0.00  0.00    +0.000 C 
ATOM     12  O   UNL     1       2.709   8.724  17.098  0.00  0.00    +0.000 OA
ENDBRANCH   8  10
ENDBRANCH   1   4
BRANCH   1  13
ATOM     13  C   UNL     1      -0.716  12.676  20.060  0.00  0.00    +0.000 C 
BRANCH  13  14
ATOM     14  C   UNL     1       0.765  13.076  19.957  0.00  0.00    +0.000 A 
ATOM     15  C   UNL     1       1.675  13.319  20.982  0.00  0.00    +0.000 A 
ATOM     16  C   UNL     1       2.922  13.826  20.526  0.00  0.00    +0.000 A 
ATOM     17  C   UNL     1       2.956  13.938  19.157  0.00  0.00    +0.000 A 
ATOM     18  S   UNL     1       1.492  13.430  18.435  0.00  0.00    +0.000 S 
ENDBRANCH  13  14
BRANCH  13  20
ATOM     19  N   UNL     1      -1.732  14.288  21.694  0.00  0.00    +0.000 N 
ATOM     20  C   UNL     1      -1.215  13.023  21.504  0.00  0.00    +0.000 C 
ATOM     21  O   UNL     1      -1.158  12.236  22.449  0.00  0.00    +0.000 OA
ATOM     22  H   UNL     1      -1.548  15.032  21.025  0.00  0.00    +0.000 HD
BRANCH  19  23
ATOM     23  C   UNL     1      -2.231  14.692  23.006  0.00  0.00    +0.000 C 
BRANCH  23  24
ATOM     24  C   UNL     1      -3.394  15.687  22.944  0.00  0.00    +0.000 C 
BRANCH  24  26
ATOM     25  C   UNL     1      -5.566  15.811  23.860  0.00  0.00    +0.000 C 
ATOM     26  O   UNL     1      -4.192  15.553  24.126  0.00  0.00    +0.000 OA
ENDBRANCH  24  26
ENDBRANCH  23  24
ENDBRANCH  19  23
ENDBRANCH  13  20
ENDBRANCH   1  13
BRANCH   2  27
ATOM     27  C   UNL     1      -2.954  12.028  18.106  0.00  0.00    +0.000 C 
BRANCH  27  28
ATOM     28  N   UNL     1      -4.352  11.800  18.403  0.00  0.00    +0.000 N 
ATOM     29  N   UNL     1      -5.107  11.106  17.525  0.00  0.00    +0.000 NA
ATOM     30  N   UNL     1      -6.284  10.883  18.097  0.00  0.00    +0.000 NA
ATOM     31  C   UNL     1      -6.271  11.453  19.343  0.00  0.00    +0.000 A 
ATOM     32  C   UNL     1      -7.257  11.497  20.341  0.00  0.00    +0.000 A 
ATOM     33  C   UNL     1      -6.970  12.171  21.536  0.00  0.00    +0.000 A 
ATOM     34  C   UNL     1      -5.725  12.772  21.736  0.00  0.00    +0.000 A 
ATOM     35  C   UNL     1      -4.725  12.723  20.755  0.00  0.00    +0.000 A 
ATOM     36  C   UNL     1      -5.038  12.058  19.563  0.00  0.00    +0.000 A 
ENDBRANCH  27  28
ENDBRANCH   2  27
TORSDOF 10
ENDMDL
MODEL 7
REMARK VINA RESULT:      -6.5      2.937      6.215
REMARK  Name = 
REMARK  12 active torsions:
REMARK  status: ('A' for Active; 'I' for Inactive)
REMARK    1  A    between atoms: C_1  and  O_2
REMARK    2  A    between atoms: O_2  and  C_3
REMARK    3  A    between atoms: C_3  and  C_4
REMARK    4  A    between atoms: C_4  and  N_5
REMARK    5  A    between atoms: C_6  and  C_8
REMARK    6  A    between atoms: C_8  and  C_9
REMARK    7  A    between atoms: C_8  and  N_14
REMARK    8  A    between atoms: N_14  and  C_27
REMARK    9  A    between atoms: C_15  and  C_17
REMARK   10  A    between atoms: C_17  and  N_18
REMARK   11  A    between atoms: C_31  and  C_32
REMARK   12  A    between atoms: C_32  and  C_33
REMARK                            x       y       z     vdW  Elec       q    Type
REMARK                         _______ _______ _______ _____ _____    ______ ____
ROOT
ATOM      1  N   UNL     1      -1.182  11.404  19.239  0.00  0.00    +0.000 N 
ATOM      2  C   UNL     1      -2.310  10.933  18.540  0.00  0.00    +0.000 C 
ATOM      3  O   UNL     1      -2.562   9.723  18.433  0.00  0.00    +0.000 OA
ENDROOT
BRANCH   1   4
ATOM      4  C   UNL     1      -0.234  10.402  19.661  0.00  0.00    +0.000 A 
ATOM      5  C   UNL     1      -0.254   9.890  20.959  0.00  0.00    +0.000 A 
ATOM      6  C   UNL     1       0.621   8.871  21.354  0.00  0.00    +0.000 A 
ATOM      7  C   UNL     1       1.506   8.308  20.439  0.00  0.00    +0.000 A 
ATOM      8  C   UNL     1       1.506   8.757  19.117  0.00  0.00    +0.000 A 
ATOM      9  C   UNL     1       0.643   9.805  18.736  0.00  0.00    +0.000 A 
BRANCH   8  10
ATOM     10  C   UNL     1       2.418   8.163  18.097  0.00  0.00    +0.000 C 
ATOM     11  C   UNL     1       2.991   6.782  18.302  0.00  0.00    +0.000 C 
ATOM     12  O   UNL     1       2.687   8.814  17.083  0.00  0.00    +0.000 OA
ENDBRANCH   8  10
ENDBRANCH   1   4
BRANCH   1  13
ATOM     13  C   UNL     1      -0.917  12.855  19.544  0.00  0.00    +0.000 C 
BRANCH  13  14
ATOM     14  C   UNL     1       0.573  13.215  19.430  0.00  0.00    +0.000 A 
ATOM     15  C   UNL     1       1.384  13.218  18.298  0.00  0.00    +0.000 A 
ATOM     16  C   UNL     1       2.757  13.450  18.585  0.00  0.00    +0.000 A 
ATOM     17  C   UNL     1       2.971  13.648  19.927  0.00  0.00    +0.000 A 
ATOM     18  S   UNL     1       1.521  13.556  20.828  0.00  0.00    +0.000 S 
ENDBRANCH  13  14
BRANCH  13  20
ATOM     19  N   UNL     1      -1.389  12.632  22.000  0.00  0.00    +0.000 N 
ATOM     20  C   UNL     1      -1.460  13.447  20.889  0.00  0.00    +0.000 C 
ATOM     21  O   UNL     1      -1.941  14.577  20.988  0.00  0.00    +0.000 OA
ATOM     22  H   UNL     1      -1.255  11.628  21.902  0.00  0.00    +0.000 HD
BRANCH  19  23
ATOM     23  C   UNL     1      -1.863  13.108  23.297  0.00  0.00    +0.000 C 
BRANCH  23  24
ATOM     24  C   UNL     1      -3.121  12.390  23.795  0.00  0.00    +0.000 C 
BRANCH  24  26
ATOM     25  C   UNL     1      -3.821  14.598  24.250  0.00  0.00    +0.000 C 
ATOM     26  O   UNL     1      -3.826  13.248  24.700  0.00  0.00    +0.000 OA
ENDBRANCH  24  26
ENDBRANCH  23  24
ENDBRANCH  19  23
ENDBRANCH  13  20
ENDBRANCH   1  13
BRANCH   2  27
ATOM     27  C   UNL     1      -3.274  11.895  17.879  0.00  0.00    +0.000 C 
BRANCH  27  28
ATOM     28  N   UNL     1      -4.648  11.666  18.272  0.00  0.00    +0.000 N 
ATOM     29  N   UNL     1      -5.433  10.889  17.496  0.00  0.00    +0.000 NA
ATOM     30  N   UNL     1      -6.572  10.692  18.149  0.00  0.00    +0.000 NA
ATOM     31  C   UNL     1      -6.503  11.361  19.343  0.00  0.00    +0.000 A 
ATOM     32  C   UNL     1      -7.434  11.467  20.389  0.00  0.00    +0.000 A 
ATOM     33  C   UNL     1      -7.098  12.240  21.508  0.00  0.00    +0.000 A 
ATOM     34  C   UNL     1      -5.857  12.878  21.589  0.00  0.00    +0.000 A 
ATOM     35  C   UNL     1      -4.912  12.769  20.560  0.00  0.00    +0.000 A 
ATOM     36  C   UNL     1      -5.275  12.004  19.444  0.00  0.00    +0.000 A 
ENDBRANCH  27  28
ENDBRANCH   2  27
TORSDOF 10
ENDMDL
MODEL 8
REMARK VINA RESULT:      -6.5      3.058      7.209
REMARK  Name = 
REMARK  12 active torsions:
REMARK  status: ('A' for Active; 'I' for Inactive)
REMARK    1  A    between atoms: C_1  and  O_2
REMARK    2  A    between atoms: O_2  and  C_3
REMARK    3  A    between atoms: C_3  and  C_4
REMARK    4  A    between atoms: C_4  and  N_5
REMARK    5  A    between atoms: C_6  and  C_8
REMARK    6  A    between atoms: C_8  and  C_9
REMARK    7  A    between atoms: C_8  and  N_14
REMARK    8  A    between atoms: N_14  and  C_27
REMARK    9  A    between atoms: C_15  and  C_17
REMARK   10  A    between atoms: C_17  and  N_18
REMARK   11  A    between atoms: C_31  and  C_32
REMARK   12  A    between atoms: C_32  and  C_33
REMARK                            x       y       z     vdW  Elec       q    Type
REMARK                         _______ _______ _______ _____ _____    ______ ____
ROOT
ATOM      1  N   UNL     1       0.654   9.488  19.434  0.00  0.00    +0.000 N 
ATOM      2  C   UNL     1       1.685   8.530  19.406  0.00  0.00    +0.000 C 
ATOM      3  O   UNL     1       1.975   7.844  20.397  0.00  0.00    +0.000 OA
ENDROOT
BRANCH   1   4
ATOM      4  C   UNL     1       0.080   9.764  20.729  0.00  0.00    +0.000 A 
ATOM      5  C   UNL     1      -0.081   8.752  21.677  0.00  0.00    +0.000 A 
ATOM      6  C   UNL     1      -0.575   9.026  22.957  0.00  0.00    +0.000 A 
ATOM      7  C   UNL     1      -0.876  10.333  23.331  0.00  0.00    +0.000 A 
ATOM      8  C   UNL     1      -0.668  11.373  22.425  0.00  0.00    +0.000 A 
ATOM      9  C   UNL     1      -0.198  11.085  21.127  0.00  0.00    +0.000 A 
BRANCH   8  10
ATOM     10  C   UNL     1      -0.950  12.791  22.793  0.00  0.00    +0.000 C 
ATOM     11  C   UNL     1      -0.089  13.904  22.248  0.00  0.00    +0.000 C 
ATOM     12  O   UNL     1      -1.902  13.037  23.540  0.00  0.00    +0.000 OA
ENDBRANCH   8  10
ENDBRANCH   1   4
BRANCH   1  13
ATOM     13  C   UNL     1       0.148  10.227  18.223  0.00  0.00    +0.000 C 
BRANCH  13  14
ATOM     14  C   UNL     1       0.450  11.733  18.287  0.00  0.00    +0.000 A 
ATOM     15  C   UNL     1       1.681  12.370  18.415  0.00  0.00    +0.000 A 
ATOM     16  C   UNL     1       1.576  13.775  18.603  0.00  0.00    +0.000 A 
ATOM     17  C   UNL     1       0.269  14.195  18.588  0.00  0.00    +0.000 A 
ATOM     18  S   UNL     1      -0.819  12.898  18.345  0.00  0.00    +0.000 S 
ENDBRANCH  13  14
BRANCH  13  20
ATOM     19  N   UNL     1      -1.635  10.094  16.461  0.00  0.00    +0.000 N 
ATOM     20  C   UNL     1      -1.352  10.048  17.811  0.00  0.00    +0.000 C 
ATOM     21  O   UNL     1      -2.264   9.881  18.622  0.00  0.00    +0.000 OA
ATOM     22  H   UNL     1      -0.969  10.491  15.803  0.00  0.00    +0.000 HD
BRANCH  19  23
ATOM     23  C   UNL     1      -3.007   9.926  15.988  0.00  0.00    +0.000 C 
BRANCH  23  24
ATOM     24  C   UNL     1      -3.827  11.220  16.003  0.00  0.00    +0.000 C 
BRANCH  24  26
ATOM     25  C   UNL     1      -5.564  12.307  17.176  0.00  0.00    +0.000 C 
ATOM     26  O   UNL     1      -4.944  11.059  16.885  0.00  0.00    +0.000 OA
ENDBRANCH  24  26
ENDBRANCH  23  24
ENDBRANCH  19  23
ENDBRANCH  13  20
ENDBRANCH   1  13
BRANCH   2  27
ATOM     27  C   UNL     1       2.496   8.296  18.149  0.00  0.00    +0.000 C 
BRANCH  27  28
ATOM     28  N   UNL     1       2.887   6.912  17.987  0.00  0.00    +0.000 N 
ATOM     29  N   UNL     1       1.961   5.943  18.152  0.00  0.00    +0.000 NA
ATOM     30  N   UNL     1       2.513   4.794  17.783  0.00  0.00    +0.000 NA
ATOM     31  C   UNL     1       3.803   5.043  17.393  0.00  0.00    +0.000 A 
ATOM     32  C   UNL     1       4.800   4.177  16.916  0.00  0.00    +0.000 A 
ATOM     33  C   UNL     1       6.055   4.712  16.596  0.00  0.00    +0.000 A 
ATOM     34  C   UNL     1       6.304   6.081  16.734  0.00  0.00    +0.000 A 
ATOM     35  C   UNL     1       5.314   6.960  17.194  0.00  0.00    +0.000 A 
ATOM     36  C   UNL     1       4.072   6.401  17.521  0.00  0.00    +0.000 A 
ENDBRANCH  27  28
ENDBRANCH   2  27
TORSDOF 10
ENDMDL
MODEL 9
REMARK VINA RESULT:      -6.5      1.415      1.840
REMARK  Name = 
REMARK  12 active torsions:
REMARK  status: ('A' for Active; 'I' for Inactive)
REMARK    1  A    between atoms: C_1  and  O_2
REMARK    2  A    between atoms: O_2  and  C_3
REMARK    3  A    between atoms: C_3  and  C_4
REMARK    4  A    between atoms: C_4  and  N_5
REMARK    5  A    between atoms: C_6  and  C_8
REMARK    6  A    between atoms: C_8  and  C_9
REMARK    7  A    between atoms: C_8  and  N_14
REMARK    8  A    between atoms: N_14  and  C_27
REMARK    9  A    between atoms: C_15  and  C_17
REMARK   10  A    between atoms: C_17  and  N_18
REMARK   11  A    between atoms: C_31  and  C_32
REMARK   12  A    between atoms: C_32  and  C_33
REMARK                            x       y       z     vdW  Elec       q    Type
REMARK                         _______ _______ _______ _____ _____    ______ ____
ROOT
ATOM      1  N   UNL     1      -0.667  13.327  21.123  0.00  0.00    +0.000 N 
ATOM      2  C   UNL     1       0.192  14.329  21.614  0.00  0.00    +0.000 C 
ATOM      3  O   UNL     1       1.218  14.061  22.257  0.00  0.00    +0.000 OA
ENDROOT
BRANCH   1   4
ATOM      4  C   UNL     1      -0.393  11.982  21.569  0.00  0.00    +0.000 A 
ATOM      5  C   UNL     1      -0.928  11.495  22.762  0.00  0.00    +0.000 A 
ATOM      6  C   UNL     1      -0.719  10.171  23.167  0.00  0.00    +0.000 A 
ATOM      7  C   UNL     1      -0.006   9.291  22.358  0.00  0.00    +0.000 A 
ATOM      8  C   UNL     1       0.489   9.733  21.130  0.00  0.00    +0.000 A 
ATOM      9  C   UNL     1       0.300  11.077  20.744  0.00  0.00    +0.000 A 
BRANCH   8  10
ATOM     10  C   UNL     1       1.234   8.817  20.219  0.00  0.00    +0.000 C 
ATOM     11  C   UNL     1       1.666   7.453  20.699  0.00  0.00    +0.000 C 
ATOM     12  O   UNL     1       1.482   9.189  19.068  0.00  0.00    +0.000 OA
ENDBRANCH   8  10
ENDBRANCH   1   4
BRANCH   1  13
ATOM     13  C   UNL     1      -1.828  13.582  20.199  0.00  0.00    +0.000 C 
BRANCH  13  14
ATOM     14  C   UNL     1      -3.158  13.730  20.956  0.00  0.00    +0.000 A 
ATOM     15  C   UNL     1      -3.843  12.780  21.707  0.00  0.00    +0.000 A 
ATOM     16  C   UNL     1      -5.127  13.214  22.137  0.00  0.00    +0.000 A 
ATOM     17  C   UNL     1      -5.392  14.499  21.732  0.00  0.00    +0.000 A 
ATOM     18  S   UNL     1      -4.096  15.172  20.843  0.00  0.00    +0.000 S 
ENDBRANCH  13  14
BRANCH  13  20
ATOM     19  N   UNL     1      -3.247  11.902  18.987  0.00  0.00    +0.000 N 
ATOM     20  C   UNL     1      -2.058  12.602  18.999  0.00  0.00    +0.000 C 
ATOM     21  O   UNL     1      -1.238  12.431  18.096  0.00  0.00    +0.000 OA
ATOM     22  H   UNL     1      -3.809  11.816  19.831  0.00  0.00    +0.000 HD
BRANCH  19  23
ATOM     23  C   UNL     1      -3.548  10.975  17.900  0.00  0.00    +0.000 C 
BRANCH  23  24
ATOM     24  C   UNL     1      -4.408  11.586  16.788  0.00  0.00    +0.000 C 
BRANCH  24  26
ATOM     25  C   UNL     1      -2.744  10.355  15.653  0.00  0.00    +0.000 C 
ATOM     26  O   UNL     1      -3.841  11.250  15.517  0.00  0.00    +0.000 OA
ENDBRANCH  24  26
ENDBRANCH  23  24
ENDBRANCH  19  23
ENDBRANCH  13  20
ENDBRANCH   1  13
BRANCH   2  27
ATOM     27  C   UNL     1      -0.106  15.794  21.377  0.00  0.00    +0.000 C 
BRANCH  27  28
ATOM     28  N   UNL     1       0.677  16.355  20.297  0.00  0.00    +0.000 N 
ATOM     29  N   UNL     1       1.988  16.046  20.205  0.00  0.00    +0.000 NA
ATOM     30  N   UNL     1       2.435  16.532  19.054  0.00  0.00    +0.000 NA
ATOM     31  C   UNL     1       1.395  17.162  18.422  0.00  0.00    +0.000 A 
ATOM     32  C   UNL     1       1.341  17.828  17.187  0.00  0.00    +0.000 A 
ATOM     33  C   UNL     1       0.126  18.398  16.786  0.00  0.00    +0.000 A 
ATOM     34  C   UNL     1      -1.012  18.294  17.591  0.00  0.00    +0.000 A 
ATOM     35  C   UNL     1      -0.978  17.619  18.819  0.00  0.00    +0.000 A 
ATOM     36  C   UNL     1       0.250  17.069  19.206  0.00  0.00    +0.000 A 
ENDBRANCH  27  28
ENDBRANCH   2  27
TORSDOF 10
ENDMDL
