MODEL 1
REMARK VINA RESULT:      -6.2      0.000      0.000
REMARK  Name = 
REMARK  6 active torsions:
REMARK  status: ('A' for Active; 'I' for Inactive)
REMARK    1  A    between atoms: C_1  and  O_2
REMARK    2  A    between atoms: O_2  and  C_3
REMARK    3  A    between atoms: C_7  and  N_8
REMARK    4  A    between atoms: C_9  and  C_11
REMARK    5  A    between atoms: C_11  and  C_12
REMARK    6  A    between atoms: C_11  and  C_13
REMARK                            x       y       z     vdW  Elec       q    Type
REMARK                         _______ _______ _______ _____ _____    ______ ____
ROOT
ATOM      1  C   UNL     1       6.852   4.914  16.805  0.00  0.00    +0.000 A 
ATOM      2  C   UNL     1       7.566   5.557  17.817  0.00  0.00    +0.000 A 
ATOM      3  C   UNL     1       7.036   5.659  19.098  0.00  0.00    +0.000 A 
ATOM      4  C   UNL     1       5.777   5.124  19.372  0.00  0.00    +0.000 A 
ATOM      5  C   UNL     1       5.036   4.491  18.369  0.00  0.00    +0.000 A 
ATOM      6  C   UNL     1       5.593   4.370  17.087  0.00  0.00    +0.000 A 
ENDROOT
BRANCH   5   7
ATOM      7  N   UNL     1       3.743   3.955  18.591  0.00  0.00    +0.000 N 
ATOM      8  C   UNL     1       2.544   4.633  18.426  0.00  0.00    +0.000 C 
ATOM      9  O   UNL     1       2.437   5.781  18.003  0.00  0.00    +0.000 OA
ATOM     10  H   UNL     1       3.690   2.963  18.777  0.00  0.00    +0.000 HD
BRANCH   8  11
ATOM     11  C   UNL     1       1.306   3.810  18.780  0.00  0.00    +0.000 C 
ATOM     12  C   UNL     1       1.507   2.331  18.450  0.00  0.00    +0.000 C 
ATOM     13  C   UNL     1       0.983   3.970  20.268  0.00  0.00    +0.000 C 
ENDBRANCH   8  11
ENDBRANCH   5   7
BRANCH   1  15
ATOM     14  C   UNL     1       6.704   4.629  14.447  0.00  0.00    +0.000 C 
ATOM     15  O   UNL     1       7.494   4.888  15.597  0.00  0.00    +0.000 OA
ENDBRANCH   1  15
TORSDOF 3
ENDMDL
MODEL 2
REMARK VINA RESULT:      -6.1      1.949      2.064
REMARK  Name = 
REMARK  6 active torsions:
REMARK  status: ('A' for Active; 'I' for Inactive)
REMARK    1  A    between atoms: C_1  and  O_2
REMARK    2  A    between atoms: O_2  and  C_3
REMARK    3  A    between atoms: C_7  and  N_8
REMARK    4  A    between atoms: C_9  and  C_11
REMARK    5  A    between atoms: C_11  and  C_12
REMARK    6  A    between atoms: C_11  and  C_13
REMARK                            x       y       z     vdW  Elec       q    Type
REMARK                         _______ _______ _______ _____ _____    ______ ____
ROOT
ATOM      1  C   UNL     1       5.346   4.304  15.603  0.00  0.00    +0.000 A 
ATOM      2  C   UNL     1       5.601   5.638  15.285  0.00  0.00    +0.000 A 
ATOM      3  C   UNL     1       5.072   6.661  16.063  0.00  0.00    +0.000 A 
ATOM      4  C   UNL     1       4.271   6.353  17.163  0.00  0.00    +0.000 A 
ATOM      5  C   UNL     1       3.988   5.024  17.490  0.00  0.00    +0.000 A 
ATOM      6  C   UNL     1       4.550   3.998  16.715  0.00  0.00    +0.000 A 
ENDROOT
BRANCH   5   7
ATOM      7  N   UNL     1       3.160   4.660  18.582  0.00  0.00    +0.000 N 
ATOM      8  C   UNL     1       1.825   4.291  18.501  0.00  0.00    +0.000 C 
ATOM      9  O   UNL     1       1.192   4.168  17.456  0.00  0.00    +0.000 OA
ATOM     10  H   UNL     1       3.614   4.556  19.479  0.00  0.00    +0.000 HD
BRANCH   8  11
ATOM     11  C   UNL     1       1.176   3.991  19.851  0.00  0.00    +0.000 C 
ATOM     12  C   UNL     1       1.222   2.498  20.172  0.00  0.00    +0.000 C 
ATOM     13  C   UNL     1       1.884   4.781  20.956  0.00  0.00    +0.000 C 
ENDBRANCH   8  11
ENDBRANCH   5   7
BRANCH   1  15
ATOM     14  C   UNL     1       6.408   3.899  13.512  0.00  0.00    +0.000 C 
ATOM     15  O   UNL     1       5.930   3.404  14.754  0.00  0.00    +0.000 OA
ENDBRANCH   1  15
TORSDOF 3
ENDMDL
MODEL 3
REMARK VINA RESULT:      -6.1      1.805      2.702
REMARK  Name = 
REMARK  6 active torsions:
REMARK  status: ('A' for Active; 'I' for Inactive)
REMARK    1  A    between atoms: C_1  and  O_2
REMARK    2  A    between atoms: O_2  and  C_3
REMARK    3  A    between atoms: C_7  and  N_8
REMARK    4  A    between atoms: C_9  and  C_11
REMARK    5  A    between atoms: C_11  and  C_12
REMARK    6  A    between atoms: C_11  and  C_13
REMARK                            x       y       z     vdW  Elec       q    Type
REMARK                         _______ _______ _______ _____ _____    ______ ____
ROOT
ATOM      1  C   UNL     1       6.621   5.914  16.729  0.00  0.00    +0.000 A 
ATOM      2  C   UNL     1       6.588   4.958  15.713  0.00  0.00    +0.000 A 
ATOM      3  C   UNL     1       5.569   4.013  15.668  0.00  0.00    +0.000 A 
ATOM      4  C   UNL     1       4.579   4.013  16.650  0.00  0.00    +0.000 A 
ATOM      5  C   UNL     1       4.601   4.951  17.687  0.00  0.00    +0.000 A 
ATOM      6  C   UNL     1       5.619   5.917  17.708  0.00  0.00    +0.000 A 
ENDROOT
BRANCH   5   7
ATOM      7  N   UNL     1       3.633   4.976  18.722  0.00  0.00    +0.000 N 
ATOM      8  C   UNL     1       3.467   4.009  19.703  0.00  0.00    +0.000 C 
ATOM      9  O   UNL     1       4.183   3.022  19.845  0.00  0.00    +0.000 OA
ATOM     10  H   UNL     1       3.093   5.826  18.815  0.00  0.00    +0.000 HD
BRANCH   8  11
ATOM     11  C   UNL     1       2.312   4.285  20.664  0.00  0.00    +0.000 C 
ATOM     12  C   UNL     1       1.799   5.718  20.523  0.00  0.00    +0.000 C 
ATOM     13  C   UNL     1       1.170   3.298  20.401  0.00  0.00    +0.000 C 
ENDBRANCH   8  11
ENDBRANCH   5   7
BRANCH   1  15
ATOM     14  C   UNL     1       7.712   7.851  17.580  0.00  0.00    +0.000 C 
ATOM     15  O   UNL     1       7.677   6.779  16.649  0.00  0.00    +0.000 OA
ENDBRANCH   1  15
TORSDOF 3
ENDMDL
MODEL 4
REMARK VINA RESULT:      -6.1      1.794      2.744
REMARK  Name = 
REMARK  6 active torsions:
REMARK  status: ('A' for Active; 'I' for Inactive)
REMARK    1  A    between atoms: C_1  and  O_2
REMARK    2  A    between atoms: O_2  and  C_3
REMARK    3  A    between atoms: C_7  and  N_8
REMARK    4  A    between atoms: C_9  and  C_11
REMARK    5  A    between atoms: C_11  and  C_12
REMARK    6  A    between atoms: C_11  and  C_13
REMARK                            x       y       z     vdW  Elec       q    Type
REMARK                         _______ _______ _______ _____ _____    ______ ____
ROOT
ATOM      1  C   UNL     1       6.620   4.536  17.930  0.00  0.00    +0.000 A 
ATOM      2  C   UNL     1       6.509   4.403  16.545  0.00  0.00    +0.000 A 
ATOM      3  C   UNL     1       5.271   4.172  15.956  0.00  0.00    +0.000 A 
ATOM      4  C   UNL     1       4.133   4.062  16.755  0.00  0.00    +0.000 A 
ATOM      5  C   UNL     1       4.223   4.176  18.146  0.00  0.00    +0.000 A 
ATOM      6  C   UNL     1       5.473   4.436  18.728  0.00  0.00    +0.000 A 
ENDROOT
BRANCH   5   7
ATOM      7  N   UNL     1       3.101   4.047  19.002  0.00  0.00    +0.000 N 
ATOM      8  C   UNL     1       2.507   2.854  19.389  0.00  0.00    +0.000 C 
ATOM      9  O   UNL     1       2.916   1.735  19.088  0.00  0.00    +0.000 OA
ATOM     10  H   UNL     1       2.777   4.891  19.455  0.00  0.00    +0.000 HD
BRANCH   8  11
ATOM     11  C   UNL     1       1.284   3.026  20.287  0.00  0.00    +0.000 C 
ATOM     12  C   UNL     1       1.553   2.511  21.701  0.00  0.00    +0.000 C 
ATOM     13  C   UNL     1       0.882   4.503  20.343  0.00  0.00    +0.000 C 
ENDBRANCH   8  11
ENDBRANCH   5   7
BRANCH   1  15
ATOM     14  C   UNL     1       8.100   5.869  19.235  0.00  0.00    +0.000 C 
ATOM     15  O   UNL     1       7.896   4.761  18.370  0.00  0.00    +0.000 OA
ENDBRANCH   1  15
TORSDOF 3
ENDMDL
MODEL 5
REMARK VINA RESULT:      -6.1      1.599      1.793
REMARK  Name = 
REMARK  6 active torsions:
REMARK  status: ('A' for Active; 'I' for Inactive)
REMARK    1  A    between atoms: C_1  and  O_2
REMARK    2  A    between atoms: O_2  and  C_3
REMARK    3  A    between atoms: C_7  and  N_8
REMARK    4  A    between atoms: C_9  and  C_11
REMARK    5  A    between atoms: C_11  and  C_12
REMARK    6  A    between atoms: C_11  and  C_13
REMARK                            x       y       z     vdW  Elec       q    Type
REMARK                         _______ _______ _______ _____ _____    ______ ____
ROOT
ATOM      1  C   UNL     1       5.961   4.140  16.306  0.00  0.00    +0.000 A 
ATOM      2  C   UNL     1       7.116   4.671  16.882  0.00  0.00    +0.000 A 
ATOM      3  C   UNL     1       7.112   5.094  18.207  0.00  0.00    +0.000 A 
ATOM      4  C   UNL     1       5.943   4.998  18.962  0.00  0.00    +0.000 A 
ATOM      5  C   UNL     1       4.770   4.485  18.400  0.00  0.00    +0.000 A 
ATOM      6  C   UNL     1       4.792   4.036  17.071  0.00  0.00    +0.000 A 
ENDROOT
BRANCH   5   7
ATOM      7  N   UNL     1       3.551   4.390  19.118  0.00  0.00    +0.000 N 
ATOM      8  C   UNL     1       3.007   3.228  19.645  0.00  0.00    +0.000 C 
ATOM      9  O   UNL     1       3.545   2.124  19.615  0.00  0.00    +0.000 OA
ATOM     10  H   UNL     1       3.098   5.261  19.358  0.00  0.00    +0.000 HD
BRANCH   8  11
ATOM     11  C   UNL     1       1.658   3.424  20.334  0.00  0.00    +0.000 C 
ATOM     12  C   UNL     1       1.598   2.677  21.666  0.00  0.00    +0.000 C 
ATOM     13  C   UNL     1       1.404   4.917  20.565  0.00  0.00    +0.000 C 
ENDBRANCH   8  11
ENDBRANCH   5   7
BRANCH   1  15
ATOM     14  C   UNL     1       6.834   4.642  14.149  0.00  0.00    +0.000 C 
ATOM     15  O   UNL     1       6.110   3.765  14.999  0.00  0.00    +0.000 OA
ENDBRANCH   1  15
TORSDOF 3
ENDMDL
MODEL 6
REMARK VINA RESULT:      -6.0      1.315      1.625
REMARK  Name = 
REMARK  6 active torsions:
REMARK  status: ('A' for Active; 'I' for Inactive)
REMARK    1  A    between atoms: C_1  and  O_2
REMARK    2  A    between atoms: O_2  and  C_3
REMARK    3  A    between atoms: C_7  and  N_8
REMARK    4  A    between atoms: C_9  and  C_11
REMARK    5  A    between atoms: C_11  and  C_12
REMARK    6  A    between atoms: C_11  and  C_13
REMARK                            x       y       z     vdW  Elec       q    Type
REMARK                         _______ _______ _______ _____ _____    ______ ____
ROOT
ATOM      1  C   UNL     1       6.992   5.404  16.478  0.00  0.00    +0.000 A 
ATOM      2  C   UNL     1       7.639   6.364  17.257  0.00  0.00    +0.000 A 
ATOM      3  C   UNL     1       7.465   6.387  18.636  0.00  0.00    +0.000 A 
ATOM      4  C   UNL     1       6.630   5.449  19.245  0.00  0.00    +0.000 A 
ATOM      5  C   UNL     1       5.959   4.489  18.482  0.00  0.00    +0.000 A 
ATOM      6  C   UNL     1       6.163   4.459  17.094  0.00  0.00    +0.000 A 
ENDROOT
BRANCH   5   7
ATOM      7  N   UNL     1       5.081   3.532  19.050  0.00  0.00    +0.000 N 
ATOM      8  C   UNL     1       3.794   3.780  19.504  0.00  0.00    +0.000 C 
ATOM      9  O   UNL     1       3.213   4.859  19.418  0.00  0.00    +0.000 OA
ATOM     10  H   UNL     1       5.381   2.567  19.018  0.00  0.00    +0.000 HD
BRANCH   8  11
ATOM     11  C   UNL     1       3.097   2.561  20.106  0.00  0.00    +0.000 C 
ATOM     12  C   UNL     1       2.445   2.897  21.447  0.00  0.00    +0.000 C 
ATOM     13  C   UNL     1       2.038   2.033  19.134  0.00  0.00    +0.000 C 
ENDBRANCH   8  11
ENDBRANCH   5   7
BRANCH   1  15
ATOM     14  C   UNL     1       6.572   4.604  14.276  0.00  0.00    +0.000 C 
ATOM     15  O   UNL     1       7.255   5.501  15.139  0.00  0.00    +0.000 OA
ENDBRANCH   1  15
TORSDOF 3
ENDMDL
MODEL 7
REMARK VINA RESULT:      -6.0      1.666      2.373
REMARK  Name = 
REMARK  6 active torsions:
REMARK  status: ('A' for Active; 'I' for Inactive)
REMARK    1  A    between atoms: C_1  and  O_2
REMARK    2  A    between atoms: O_2  and  C_3
REMARK    3  A    between atoms: C_7  and  N_8
REMARK    4  A    between atoms: C_9  and  C_11
REMARK    5  A    between atoms: C_11  and  C_12
REMARK    6  A    between atoms: C_11  and  C_13
REMARK                            x       y       z     vdW  Elec       q    Type
REMARK                         _______ _______ _______ _____ _____    ______ ____
ROOT
ATOM      1  C   UNL     1       5.902   6.189  16.717  0.00  0.00    +0.000 A 
ATOM      2  C   UNL     1       6.222   5.234  15.751  0.00  0.00    +0.000 A 
ATOM      3  C   UNL     1       5.571   4.006  15.731  0.00  0.00    +0.000 A 
ATOM      4  C   UNL     1       4.597   3.722  16.689  0.00  0.00    +0.000 A 
ATOM      5  C   UNL     1       4.273   4.657  17.676  0.00  0.00    +0.000 A 
ATOM      6  C   UNL     1       4.917   5.904  17.671  0.00  0.00    +0.000 A 
ENDROOT
BRANCH   5   7
ATOM      7  N   UNL     1       3.310   4.407  18.686  0.00  0.00    +0.000 N 
ATOM      8  C   UNL     1       1.955   4.188  18.480  0.00  0.00    +0.000 C 
ATOM      9  O   UNL     1       1.413   4.119  17.380  0.00  0.00    +0.000 OA
ATOM     10  H   UNL     1       3.663   4.268  19.623  0.00  0.00    +0.000 HD
BRANCH   8  11
ATOM     11  C   UNL     1       1.152   3.986  19.764  0.00  0.00    +0.000 C 
ATOM     12  C   UNL     1       1.447   2.627  20.398  0.00  0.00    +0.000 C 
ATOM     13  C   UNL     1       1.474   5.103  20.761  0.00  0.00    +0.000 C 
ENDBRANCH   8  11
ENDBRANCH   5   7
BRANCH   1  15
ATOM     14  C   UNL     1       7.625   7.578  17.593  0.00  0.00    +0.000 C 
ATOM     15  O   UNL     1       6.621   7.349  16.616  0.00  0.00    +0.000 OA
ENDBRANCH   1  15
TORSDOF 3
ENDMDL
MODEL 8
REMARK VINA RESULT:      -6.0      1.638      1.907
REMARK  Name = 
REMARK  6 active torsions:
REMARK  status: ('A' for Active; 'I' for Inactive)
REMARK    1  A    between atoms: C_1  and  O_2
REMARK    2  A    between atoms: O_2  and  C_3
REMARK    3  A    between atoms: C_7  and  N_8
REMARK    4  A    between atoms: C_9  and  C_11
REMARK    5  A    between atoms: C_11  and  C_12
REMARK    6  A    between atoms: C_11  and  C_13
REMARK                            x       y       z     vdW  Elec       q    Type
REMARK                         _______ _______ _______ _____ _____    ______ ____
ROOT
ATOM      1  C   UNL     1       6.531   4.896  16.609  0.00  0.00    +0.000 A 
ATOM      2  C   UNL     1       7.417   5.635  17.393  0.00  0.00    +0.000 A 
ATOM      3  C   UNL     1       7.167   5.829  18.746  0.00  0.00    +0.000 A 
ATOM      4  C   UNL     1       6.017   5.290  19.323  0.00  0.00    +0.000 A 
ATOM      5  C   UNL     1       5.106   4.561  18.553  0.00  0.00    +0.000 A 
ATOM      6  C   UNL     1       5.382   4.348  17.194  0.00  0.00    +0.000 A 
ENDROOT
BRANCH   5   7
ATOM      7  N   UNL     1       3.911   4.016  19.086  0.00  0.00    +0.000 N 
ATOM      8  C   UNL     1       3.813   2.851  19.834  0.00  0.00    +0.000 C 
ATOM      9  O   UNL     1       4.765   2.163  20.192  0.00  0.00    +0.000 OA
ATOM     10  H   UNL     1       3.079   4.584  19.005  0.00  0.00    +0.000 HD
BRANCH   8  11
ATOM     11  C   UNL     1       2.386   2.487  20.240  0.00  0.00    +0.000 C 
ATOM     12  C   UNL     1       1.742   3.595  21.072  0.00  0.00    +0.000 C 
ATOM     13  C   UNL     1       1.542   2.220  18.990  0.00  0.00    +0.000 C 
ENDBRANCH   8  11
ENDBRANCH   5   7
BRANCH   1  15
ATOM     14  C   UNL     1       6.139   3.915  14.475  0.00  0.00    +0.000 C 
ATOM     15  O   UNL     1       6.903   4.786  15.296  0.00  0.00    +0.000 OA
ENDBRANCH   1  15
TORSDOF 3
ENDMDL
MODEL 9
REMARK VINA RESULT:      -6.0      1.283      2.352
REMARK  Name = 
REMARK  6 active torsions:
REMARK  status: ('A' for Active; 'I' for Inactive)
REMARK    1  A    between atoms: C_1  and  O_2
REMARK    2  A    between atoms: O_2  and  C_3
REMARK    3  A    between atoms: C_7  and  N_8
REMARK    4  A    between atoms: C_9  and  C_11
REMARK    5  A    between atoms: C_11  and  C_12
REMARK    6  A    between atoms: C_11  and  C_13
REMARK                            x       y       z     vdW  Elec       q    Type
REMARK                         _______ _______ _______ _____ _____    ______ ____
ROOT
ATOM      1  C   UNL     1       6.708   4.508  17.895  0.00  0.00    +0.000 A 
ATOM      2  C   UNL     1       6.802   4.605  16.506  0.00  0.00    +0.000 A 
ATOM      3  C   UNL     1       5.688   4.373  15.707  0.00  0.00    +0.000 A 
ATOM      4  C   UNL     1       4.471   4.032  16.297  0.00  0.00    +0.000 A 
ATOM      5  C   UNL     1       4.358   3.912  17.685  0.00  0.00    +0.000 A 
ATOM      6  C   UNL     1       5.482   4.175  18.484  0.00  0.00    +0.000 A 
ENDROOT
BRANCH   5   7
ATOM      7  N   UNL     1       3.151   3.543  18.330  0.00  0.00    +0.000 N 
ATOM      8  C   UNL     1       2.319   4.394  19.044  0.00  0.00    +0.000 C 
ATOM      9  O   UNL     1       2.484   5.605  19.161  0.00  0.00    +0.000 OA
ATOM     10  H   UNL     1       2.816   2.605  18.162  0.00  0.00    +0.000 HD
BRANCH   8  11
ATOM     11  C   UNL     1       1.105   3.705  19.666  0.00  0.00    +0.000 C 
ATOM     12  C   UNL     1       0.699   2.465  18.870  0.00  0.00    +0.000 C 
ATOM     13  C   UNL     1       1.415   3.312  21.113  0.00  0.00    +0.000 C 
ENDBRANCH   8  11
ENDBRANCH   5   7
BRANCH   1  15
ATOM     14  C   UNL     1       7.902   5.873  19.437  0.00  0.00    +0.000 C 
ATOM     15  O   UNL     1       7.881   4.762  18.554  0.00  0.00    +0.000 OA
ENDBRANCH   1  15
TORSDOF 3
ENDMDL
