MODEL 1
REMARK VINA RESULT:      -9.0      0.000      0.000
REMARK  Name = 
REMARK  4 active torsions:
REMARK  status: ('A' for Active; 'I' for Inactive)
REMARK    1  A    between atoms: C_11  and  C_12
REMARK    2  A    between atoms: C_13  and  C_14
REMARK    3  A    between atoms: C_18  and  N_19
REMARK    4  A    between atoms: N_26  and  C_27
REMARK                            x       y       z     vdW  Elec       q    Type
REMARK                         _______ _______ _______ _____ _____    ______ ____
ROOT
ATOM      1  O   UNL     1       3.641   2.349  17.242  0.00  0.00    +0.000 OA
ATOM      2  C   UNL     1       3.860   3.551  17.389  0.00  0.00    +0.000 A 
ATOM      3  C   UNL     1       4.710   4.235  16.402  0.00  0.00    +0.000 A 
ATOM      4  C   UNL     1       5.418   3.512  15.438  0.00  0.00    +0.000 A 
ATOM      5  C   UNL     1       6.234   4.200  14.544  0.00  0.00    +0.000 A 
ATOM      6  F   UNL     1       6.922   3.522  13.616  0.00  0.00    +0.000 F 
ATOM      7  C   UNL     1       6.352   5.584  14.608  0.00  0.00    +0.000 A 
ATOM      8  C   UNL     1       5.633   6.292  15.575  0.00  0.00    +0.000 A 
ATOM      9  C   UNL     1       4.802   5.620  16.478  0.00  0.00    +0.000 A 
ATOM     10  N   UNL     1       4.110   6.365  17.439  0.00  0.00    +0.000 NA
ATOM     11  C   UNL     1       3.429   5.745  18.360  0.00  0.00    +0.000 A 
ATOM     12  N   UNL     1       3.324   4.354  18.408  0.00  0.00    +0.000 N 
ENDROOT
BRANCH  12  13
ATOM     13  C   UNL     1       2.643   3.673  19.464  0.00  0.00    +0.000 A 
ATOM     14  C   UNL     1       1.253   3.818  19.600  0.00  0.00    +0.000 A 
ATOM     15  C   UNL     1       0.589   3.271  20.700  0.00  0.00    +0.000 A 
ATOM     16  C   UNL     1       1.299   2.546  21.656  0.00  0.00    +0.000 A 
ATOM     17  C   UNL     1       2.670   2.344  21.501  0.00  0.00    +0.000 A 
ATOM     18  C   UNL     1       3.346   2.902  20.411  0.00  0.00    +0.000 A 
ATOM     19 CL   UNL     1       5.067   2.718  20.376  0.00  0.00    +0.000 Cl
ENDBRANCH  12  13
BRANCH  11  20
ATOM     20  C   UNL     1       2.792   6.567  19.450  0.00  0.00    +0.000 C 
ATOM     21  C   UNL     1       2.115   7.681  19.123  0.00  0.00    +0.000 C 
BRANCH  21  22
ATOM     22  C   UNL     1       1.475   8.632  20.053  0.00  0.00    +0.000 A 
ATOM     23  C   UNL     1       1.175   8.189  21.337  0.00  0.00    +0.000 A 
ATOM     24  C   UNL     1       0.611   9.078  22.234  0.00  0.00    +0.000 A 
ATOM     25  C   UNL     1       0.337  10.371  21.813  0.00  0.00    +0.000 A 
ATOM     26  C   UNL     1       0.595  10.764  20.497  0.00  0.00    +0.000 A 
ATOM     27  N   UNL     1       1.195   9.895  19.634  0.00  0.00    +0.000 NA
BRANCH  26  28
ATOM     28  N   UNL     1       0.271  12.046  20.078  0.00  0.00    +0.000 N 
ATOM     29  C   UNL     1       0.316  12.449  18.668  0.00  0.00    +0.000 C 
ATOM     30  C   UNL     1       1.430  13.468  18.434  0.00  0.00    +0.000 C 
ATOM     31  C   UNL     1       1.310  14.651  19.389  0.00  0.00    +0.000 C 
ATOM     32  C   UNL     1       1.268  14.168  20.837  0.00  0.00    +0.000 C 
ATOM     33  C   UNL     1       0.170  13.128  21.057  0.00  0.00    +0.000 C 
ENDBRANCH  26  28
ENDBRANCH  21  22
ENDBRANCH  11  20
TORSDOF 4
ENDMDL
MODEL 2
REMARK VINA RESULT:      -8.9      0.701      1.145
REMARK  Name = 
REMARK  4 active torsions:
REMARK  status: ('A' for Active; 'I' for Inactive)
REMARK    1  A    between atoms: C_11  and  C_12
REMARK    2  A    between atoms: C_13  and  C_14
REMARK    3  A    between atoms: C_18  and  N_19
REMARK    4  A    between atoms: N_26  and  C_27
REMARK                            x       y       z     vdW  Elec       q    Type
REMARK                         _______ _______ _______ _____ _____    ______ ____
ROOT
ATOM      1  O   UNL     1       3.596   2.389  17.097  0.00  0.00    +0.000 OA
ATOM      2  C   UNL     1       3.894   3.574  17.248  0.00  0.00    +0.000 A 
ATOM      3  C   UNL     1       4.785   4.204  16.261  0.00  0.00    +0.000 A 
ATOM      4  C   UNL     1       5.442   3.440  15.295  0.00  0.00    +0.000 A 
ATOM      5  C   UNL     1       6.301   4.075  14.401  0.00  0.00    +0.000 A 
ATOM      6  F   UNL     1       6.941   3.357  13.469  0.00  0.00    +0.000 F 
ATOM      7  C   UNL     1       6.509   5.448  14.469  0.00  0.00    +0.000 A 
ATOM      8  C   UNL     1       5.839   6.199  15.440  0.00  0.00    +0.000 A 
ATOM      9  C   UNL     1       4.968   5.580  16.342  0.00  0.00    +0.000 A 
ATOM     10  N   UNL     1       4.327   6.366  17.306  0.00  0.00    +0.000 NA
ATOM     11  C   UNL     1       3.608   5.788  18.227  0.00  0.00    +0.000 A 
ATOM     12  N   UNL     1       3.412   4.407  18.271  0.00  0.00    +0.000 N 
ENDROOT
BRANCH  12  13
ATOM     13  C   UNL     1       2.690   3.768  19.325  0.00  0.00    +0.000 A 
ATOM     14  C   UNL     1       1.306   3.977  19.444  0.00  0.00    +0.000 A 
ATOM     15  C   UNL     1       0.607   3.472  20.541  0.00  0.00    +0.000 A 
ATOM     16  C   UNL     1       1.273   2.726  21.513  0.00  0.00    +0.000 A 
ATOM     17  C   UNL     1       2.635   2.461  21.375  0.00  0.00    +0.000 A 
ATOM     18  C   UNL     1       3.347   2.976  20.288  0.00  0.00    +0.000 A 
ATOM     19 CL   UNL     1       5.058   2.714  20.275  0.00  0.00    +0.000 Cl
ENDBRANCH  12  13
BRANCH  11  20
ATOM     20  C   UNL     1       3.028   6.647  19.320  0.00  0.00    +0.000 C 
ATOM     21  C   UNL     1       2.111   7.578  19.009  0.00  0.00    +0.000 C 
BRANCH  21  22
ATOM     22  C   UNL     1       1.476   8.539  19.932  0.00  0.00    +0.000 A 
ATOM     23  C   UNL     1       1.269   8.140  21.249  0.00  0.00    +0.000 A 
ATOM     24  C   UNL     1       0.711   9.040  22.138  0.00  0.00    +0.000 A 
ATOM     25  C   UNL     1       0.352  10.299  21.679  0.00  0.00    +0.000 A 
ATOM     26  C   UNL     1       0.519  10.645  20.335  0.00  0.00    +0.000 A 
ATOM     27  N   UNL     1       1.113   9.768  19.477  0.00  0.00    +0.000 NA
BRANCH  26  28
ATOM     28  N   UNL     1       0.110  11.891  19.882  0.00  0.00    +0.000 N 
ATOM     29  C   UNL     1       0.795  13.131  20.263  0.00  0.00    +0.000 C 
ATOM     30  C   UNL     1      -0.104  13.994  21.147  0.00  0.00    +0.000 C 
ATOM     31  C   UNL     1      -1.458  14.238  20.489  0.00  0.00    +0.000 C 
ATOM     32  C   UNL     1      -2.120  12.913  20.117  0.00  0.00    +0.000 C 
ATOM     33  C   UNL     1      -1.203  12.043  19.257  0.00  0.00    +0.000 C 
ENDBRANCH  26  28
ENDBRANCH  21  22
ENDBRANCH  11  20
TORSDOF 4
ENDMDL
MODEL 3
REMARK VINA RESULT:      -8.7      1.814      2.423
REMARK  Name = 
REMARK  4 active torsions:
REMARK  status: ('A' for Active; 'I' for Inactive)
REMARK    1  A    between atoms: C_11  and  C_12
REMARK    2  A    between atoms: C_13  and  C_14
REMARK    3  A    between atoms: C_18  and  N_19
REMARK    4  A    between atoms: N_26  and  C_27
REMARK                            x       y       z     vdW  Elec       q    Type
REMARK                         _______ _______ _______ _____ _____    ______ ____
ROOT
ATOM      1  O   UNL     1       3.831   2.621  17.531  0.00  0.00    +0.000 OA
ATOM      2  C   UNL     1       3.948   3.845  17.580  0.00  0.00    +0.000 A 
ATOM      3  C   UNL     1       4.816   4.506  16.594  0.00  0.00    +0.000 A 
ATOM      4  C   UNL     1       5.647   3.762  15.753  0.00  0.00    +0.000 A 
ATOM      5  C   UNL     1       6.475   4.433  14.856  0.00  0.00    +0.000 A 
ATOM      6  F   UNL     1       7.280   3.734  14.045  0.00  0.00    +0.000 F 
ATOM      7  C   UNL     1       6.483   5.822  14.798  0.00  0.00    +0.000 A 
ATOM      8  C   UNL     1       5.642   6.551  15.643  0.00  0.00    +0.000 A 
ATOM      9  C   UNL     1       4.798   5.896  16.546  0.00  0.00    +0.000 A 
ATOM     10  N   UNL     1       3.981   6.664  17.383  0.00  0.00    +0.000 NA
ATOM     11  C   UNL     1       3.281   6.073  18.310  0.00  0.00    +0.000 A 
ATOM     12  N   UNL     1       3.277   4.688  18.480  0.00  0.00    +0.000 N 
ENDROOT
BRANCH  12  13
ATOM     13  C   UNL     1       2.571   4.049  19.546  0.00  0.00    +0.000 A 
ATOM     14  C   UNL     1       3.195   3.893  20.795  0.00  0.00    +0.000 A 
ATOM     15  C   UNL     1       2.577   3.155  21.806  0.00  0.00    +0.000 A 
ATOM     16  C   UNL     1       1.318   2.597  21.595  0.00  0.00    +0.000 A 
ATOM     17  C   UNL     1       0.662   2.795  20.381  0.00  0.00    +0.000 A 
ATOM     18  C   UNL     1       1.280   3.518  19.356  0.00  0.00    +0.000 A 
ATOM     19 CL   UNL     1       0.452   3.594  17.838  0.00  0.00    +0.000 Cl
ENDBRANCH  12  13
BRANCH  11  20
ATOM     20  C   UNL     1       2.503   6.933  19.271  0.00  0.00    +0.000 C 
ATOM     21  C   UNL     1       1.889   8.039  18.817  0.00  0.00    +0.000 C 
BRANCH  21  22
ATOM     22  C   UNL     1       1.132   9.023  19.615  0.00  0.00    +0.000 A 
ATOM     23  C   UNL     1       1.343   9.048  20.990  0.00  0.00    +0.000 A 
ATOM     24  C   UNL     1       0.672   9.990  21.750  0.00  0.00    +0.000 A 
ATOM     25  C   UNL     1      -0.209  10.855  21.119  0.00  0.00    +0.000 A 
ATOM     26  C   UNL     1      -0.441  10.761  19.743  0.00  0.00    +0.000 A 
ATOM     27  N   UNL     1       0.260   9.862  18.996  0.00  0.00    +0.000 NA
BRANCH  26  28
ATOM     28  N   UNL     1      -1.361  11.602  19.135  0.00  0.00    +0.000 N 
ATOM     29  C   UNL     1      -2.026  12.694  19.854  0.00  0.00    +0.000 C 
ATOM     30  C   UNL     1      -3.520  12.410  20.005  0.00  0.00    +0.000 C 
ATOM     31  C   UNL     1      -4.165  12.104  18.658  0.00  0.00    +0.000 C 
ATOM     32  C   UNL     1      -3.431  10.962  17.959  0.00  0.00    +0.000 C 
ATOM     33  C   UNL     1      -1.932  11.241  17.838  0.00  0.00    +0.000 C 
ENDBRANCH  26  28
ENDBRANCH  21  22
ENDBRANCH  11  20
TORSDOF 4
ENDMDL
MODEL 4
REMARK VINA RESULT:      -8.6      1.203      1.499
REMARK  Name = 
REMARK  4 active torsions:
REMARK  status: ('A' for Active; 'I' for Inactive)
REMARK    1  A    between atoms: C_11  and  C_12
REMARK    2  A    between atoms: C_13  and  C_14
REMARK    3  A    between atoms: C_18  and  N_19
REMARK    4  A    between atoms: N_26  and  C_27
REMARK                            x       y       z     vdW  Elec       q    Type
REMARK                         _______ _______ _______ _____ _____    ______ ____
ROOT
ATOM      1  O   UNL     1       3.770   2.504  17.407  0.00  0.00    +0.000 OA
ATOM      2  C   UNL     1       3.957   3.718  17.473  0.00  0.00    +0.000 A 
ATOM      3  C   UNL     1       4.826   4.350  16.468  0.00  0.00    +0.000 A 
ATOM      4  C   UNL     1       5.583   3.577  15.584  0.00  0.00    +0.000 A 
ATOM      5  C   UNL     1       6.415   4.218  14.670  0.00  0.00    +0.000 A 
ATOM      6  F   UNL     1       7.150   3.493  13.817  0.00  0.00    +0.000 F 
ATOM      7  C   UNL     1       6.499   5.606  14.637  0.00  0.00    +0.000 A 
ATOM      8  C   UNL     1       5.731   6.364  15.525  0.00  0.00    +0.000 A 
ATOM      9  C   UNL     1       4.884   5.739  16.446  0.00  0.00    +0.000 A 
ATOM     10  N   UNL     1       4.142   6.534  17.326  0.00  0.00    +0.000 NA
ATOM     11  C   UNL     1       3.443   5.965  18.267  0.00  0.00    +0.000 A 
ATOM     12  N   UNL     1       3.367   4.579  18.412  0.00  0.00    +0.000 N 
ENDROOT
BRANCH  12  13
ATOM     13  C   UNL     1       2.665   3.959  19.492  0.00  0.00    +0.000 A 
ATOM     14  C   UNL     1       3.324   3.740  20.712  0.00  0.00    +0.000 A 
ATOM     15  C   UNL     1       2.701   3.018  21.732  0.00  0.00    +0.000 A 
ATOM     16  C   UNL     1       1.404   2.538  21.558  0.00  0.00    +0.000 A 
ATOM     17  C   UNL     1       0.717   2.800  20.373  0.00  0.00    +0.000 A 
ATOM     18  C   UNL     1       1.339   3.508  19.340  0.00  0.00    +0.000 A 
ATOM     19 CL   UNL     1       0.461   3.664  17.856  0.00  0.00    +0.000 Cl
ENDBRANCH  12  13
BRANCH  11  20
ATOM     20  C   UNL     1       2.749   6.848  19.271  0.00  0.00    +0.000 C 
ATOM     21  C   UNL     1       2.056   7.916  18.841  0.00  0.00    +0.000 C 
BRANCH  21  22
ATOM     22  C   UNL     1       1.362   8.915  19.677  0.00  0.00    +0.000 A 
ATOM     23  C   UNL     1       1.198   8.635  21.029  0.00  0.00    +0.000 A 
ATOM     24  C   UNL     1       0.585   9.576  21.836  0.00  0.00    +0.000 A 
ATOM     25  C   UNL     1       0.129  10.754  21.262  0.00  0.00    +0.000 A 
ATOM     26  C   UNL     1       0.257  10.976  19.887  0.00  0.00    +0.000 A 
ATOM     27  N   UNL     1       0.905  10.063  19.109  0.00  0.00    +0.000 NA
BRANCH  26  28
ATOM     28  N   UNL     1      -0.247  12.137  19.321  0.00  0.00    +0.000 N 
ATOM     29  C   UNL     1       0.596  13.084  18.584  0.00  0.00    +0.000 C 
ATOM     30  C   UNL     1       0.717  14.405  19.343  0.00  0.00    +0.000 C 
ATOM     31  C   UNL     1      -0.655  14.973  19.690  0.00  0.00    +0.000 C 
ATOM     32  C   UNL     1      -1.484  13.943  20.455  0.00  0.00    +0.000 C 
ATOM     33  C   UNL     1      -1.576  12.616  19.702  0.00  0.00    +0.000 C 
ENDBRANCH  26  28
ENDBRANCH  21  22
ENDBRANCH  11  20
TORSDOF 4
ENDMDL
MODEL 5
REMARK VINA RESULT:      -8.5      5.146     10.642
REMARK  Name = 
REMARK  4 active torsions:
REMARK  status: ('A' for Active; 'I' for Inactive)
REMARK    1  A    between atoms: C_11  and  C_12
REMARK    2  A    between atoms: C_13  and  C_14
REMARK    3  A    between atoms: C_18  and  N_19
REMARK    4  A    between atoms: N_26  and  C_27
REMARK                            x       y       z     vdW  Elec       q    Type
REMARK                         _______ _______ _______ _____ _____    ______ ____
ROOT
ATOM      1  O   UNL     1      -0.980  15.011  20.896  0.00  0.00    +0.000 OA
ATOM      2  C   UNL     1      -0.935  13.878  21.375  0.00  0.00    +0.000 A 
ATOM      3  C   UNL     1      -1.959  13.491  22.358  0.00  0.00    +0.000 A 
ATOM      4  C   UNL     1      -2.837  14.436  22.893  0.00  0.00    +0.000 A 
ATOM      5  C   UNL     1      -3.769  14.030  23.844  0.00  0.00    +0.000 A 
ATOM      6  F   UNL     1      -4.616  14.925  24.369  0.00  0.00    +0.000 F 
ATOM      7  C   UNL     1      -3.826  12.706  24.263  0.00  0.00    +0.000 A 
ATOM      8  C   UNL     1      -2.943  11.771  23.714  0.00  0.00    +0.000 A 
ATOM      9  C   UNL     1      -2.004  12.158  22.753  0.00  0.00    +0.000 A 
ATOM     10  N   UNL     1      -1.131  11.194  22.238  0.00  0.00    +0.000 NA
ATOM     11  C   UNL     1      -0.175  11.562  21.433  0.00  0.00    +0.000 A 
ATOM     12  N   UNL     1      -0.005  12.886  21.024  0.00  0.00    +0.000 N 
ENDROOT
BRANCH  12  13
ATOM     13  C   UNL     1       1.091  13.301  20.206  0.00  0.00    +0.000 A 
ATOM     14  C   UNL     1       2.299  13.685  20.809  0.00  0.00    +0.000 A 
ATOM     15  C   UNL     1       3.335  14.219  20.040  0.00  0.00    +0.000 A 
ATOM     16  C   UNL     1       3.188  14.344  18.660  0.00  0.00    +0.000 A 
ATOM     17  C   UNL     1       2.016  13.911  18.041  0.00  0.00    +0.000 A 
ATOM     18  C   UNL     1       0.967  13.390  18.805  0.00  0.00    +0.000 A 
ATOM     19 CL   UNL     1      -0.501  13.009  17.969  0.00  0.00    +0.000 Cl
ENDBRANCH  12  13
BRANCH  11  20
ATOM     20  C   UNL     1       0.822  10.523  20.989  0.00  0.00    +0.000 C 
ATOM     21  C   UNL     1       0.708   9.985  19.763  0.00  0.00    +0.000 C 
BRANCH  21  22
ATOM     22  C   UNL     1       1.553   8.925  19.180  0.00  0.00    +0.000 A 
ATOM     23  C   UNL     1       2.159   9.173  17.952  0.00  0.00    +0.000 A 
ATOM     24  C   UNL     1       2.986   8.207  17.409  0.00  0.00    +0.000 A 
ATOM     25  C   UNL     1       3.159   7.013  18.093  0.00  0.00    +0.000 A 
ATOM     26  C   UNL     1       2.486   6.773  19.295  0.00  0.00    +0.000 A 
ATOM     27  N   UNL     1       1.711   7.750  19.846  0.00  0.00    +0.000 NA
BRANCH  26  28
ATOM     28  N   UNL     1       2.633   5.555  19.942  0.00  0.00    +0.000 N 
ATOM     29  C   UNL     1       3.663   4.581  19.564  0.00  0.00    +0.000 C 
ATOM     30  C   UNL     1       3.026   3.329  18.962  0.00  0.00    +0.000 C 
ATOM     31  C   UNL     1       1.966   2.745  19.890  0.00  0.00    +0.000 C 
ATOM     32  C   UNL     1       0.925   3.804  20.247  0.00  0.00    +0.000 C 
ATOM     33  C   UNL     1       1.572   5.065  20.821  0.00  0.00    +0.000 C 
ENDBRANCH  26  28
ENDBRANCH  21  22
ENDBRANCH  11  20
TORSDOF 4
ENDMDL
MODEL 6
REMARK VINA RESULT:      -8.2      5.473     11.052
REMARK  Name = 
REMARK  4 active torsions:
REMARK  status: ('A' for Active; 'I' for Inactive)
REMARK    1  A    between atoms: C_11  and  C_12
REMARK    2  A    between atoms: C_13  and  C_14
REMARK    3  A    between atoms: C_18  and  N_19
REMARK    4  A    between atoms: N_26  and  C_27
REMARK                            x       y       z     vdW  Elec       q    Type
REMARK                         _______ _______ _______ _____ _____    ______ ____
ROOT
ATOM      1  O   UNL     1      -0.381  15.870  21.985  0.00  0.00    +0.000 OA
ATOM      2  C   UNL     1      -0.704  14.684  21.931  0.00  0.00    +0.000 A 
ATOM      3  C   UNL     1      -1.811  14.220  22.782  0.00  0.00    +0.000 A 
ATOM      4  C   UNL     1      -2.351  15.043  23.773  0.00  0.00    +0.000 A 
ATOM      5  C   UNL     1      -3.377  14.549  24.574  0.00  0.00    +0.000 A 
ATOM      6  F   UNL     1      -3.905  15.324  25.531  0.00  0.00    +0.000 F 
ATOM      7  C   UNL     1      -3.857  13.256  24.400  0.00  0.00    +0.000 A 
ATOM      8  C   UNL     1      -3.308  12.447  23.401  0.00  0.00    +0.000 A 
ATOM      9  C   UNL     1      -2.282  12.927  22.580  0.00  0.00    +0.000 A 
ATOM     10  N   UNL     1      -1.752  12.081  21.601  0.00  0.00    +0.000 NA
ATOM     11  C   UNL     1      -0.717  12.470  20.911  0.00  0.00    +0.000 A 
ATOM     12  N   UNL     1      -0.131  13.726  21.080  0.00  0.00    +0.000 N 
ENDROOT
BRANCH  12  13
ATOM     13  C   UNL     1       1.051  14.120  20.380  0.00  0.00    +0.000 A 
ATOM     14  C   UNL     1       2.310  13.802  20.913  0.00  0.00    +0.000 A 
ATOM     15  C   UNL     1       3.474  14.292  20.318  0.00  0.00    +0.000 A 
ATOM     16  C   UNL     1       3.395  15.075  19.167  0.00  0.00    +0.000 A 
ATOM     17  C   UNL     1       2.153  15.348  18.594  0.00  0.00    +0.000 A 
ATOM     18  C   UNL     1       0.982  14.876  19.193  0.00  0.00    +0.000 A 
ATOM     19 CL   UNL     1      -0.518  15.381  18.491  0.00  0.00    +0.000 Cl
ENDBRANCH  12  13
BRANCH  11  20
ATOM     20  C   UNL     1      -0.095  11.494  19.947  0.00  0.00    +0.000 C 
ATOM     21  C   UNL     1       0.565  10.426  20.425  0.00  0.00    +0.000 C 
BRANCH  21  22
ATOM     22  C   UNL     1       1.277   9.400  19.639  0.00  0.00    +0.000 A 
ATOM     23  C   UNL     1       1.605   9.699  18.320  0.00  0.00    +0.000 A 
ATOM     24  C   UNL     1       2.307   8.766  17.580  0.00  0.00    +0.000 A 
ATOM     25  C   UNL     1       2.634   7.553  18.168  0.00  0.00    +0.000 A 
ATOM     26  C   UNL     1       2.235   7.263  19.476  0.00  0.00    +0.000 A 
ATOM     27  N   UNL     1       1.585   8.207  20.214  0.00  0.00    +0.000 NA
BRANCH  26  28
ATOM     28  N   UNL     1       2.528   6.027  20.034  0.00  0.00    +0.000 N 
ATOM     29  C   UNL     1       3.659   5.208  19.584  0.00  0.00    +0.000 C 
ATOM     30  C   UNL     1       3.166   3.936  18.895  0.00  0.00    +0.000 C 
ATOM     31  C   UNL     1       2.190   3.169  19.781  0.00  0.00    +0.000 C 
ATOM     32  C   UNL     1       1.037   4.072  20.216  0.00  0.00    +0.000 C 
ATOM     33  C   UNL     1       1.540   5.355  20.877  0.00  0.00    +0.000 C 
ENDBRANCH  26  28
ENDBRANCH  21  22
ENDBRANCH  11  20
TORSDOF 4
ENDMDL
MODEL 7
REMARK VINA RESULT:      -8.2      4.354      7.579
REMARK  Name = 
REMARK  4 active torsions:
REMARK  status: ('A' for Active; 'I' for Inactive)
REMARK    1  A    between atoms: C_11  and  C_12
REMARK    2  A    between atoms: C_13  and  C_14
REMARK    3  A    between atoms: C_18  and  N_19
REMARK    4  A    between atoms: N_26  and  C_27
REMARK                            x       y       z     vdW  Elec       q    Type
REMARK                         _______ _______ _______ _____ _____    ______ ____
ROOT
ATOM      1  O   UNL     1       2.212   9.864  17.608  0.00  0.00    +0.000 OA
ATOM      2  C   UNL     1       1.733   9.502  18.682  0.00  0.00    +0.000 A 
ATOM      3  C   UNL     1       1.915   8.102  19.095  0.00  0.00    +0.000 A 
ATOM      4  C   UNL     1       2.437   7.154  18.212  0.00  0.00    +0.000 A 
ATOM      5  C   UNL     1       2.563   5.833  18.636  0.00  0.00    +0.000 A 
ATOM      6  F   UNL     1       3.059   4.911  17.801  0.00  0.00    +0.000 F 
ATOM      7  C   UNL     1       2.171   5.458  19.916  0.00  0.00    +0.000 A 
ATOM      8  C   UNL     1       1.655   6.420  20.789  0.00  0.00    +0.000 A 
ATOM      9  C   UNL     1       1.528   7.752  20.384  0.00  0.00    +0.000 A 
ATOM     10  N   UNL     1       0.995   8.681  21.284  0.00  0.00    +0.000 NA
ATOM     11  C   UNL     1       0.758   9.898  20.881  0.00  0.00    +0.000 A 
ATOM     12  N   UNL     1       1.054  10.333  19.588  0.00  0.00    +0.000 N 
ENDROOT
BRANCH  12  13
ATOM     13  C   UNL     1       0.721  11.643  19.125  0.00  0.00    +0.000 A 
ATOM     14  C   UNL     1       1.562  12.723  19.437  0.00  0.00    +0.000 A 
ATOM     15  C   UNL     1       1.188  14.028  19.110  0.00  0.00    +0.000 A 
ATOM     16  C   UNL     1      -0.011  14.264  18.439  0.00  0.00    +0.000 A 
ATOM     17  C   UNL     1      -0.825  13.194  18.070  0.00  0.00    +0.000 A 
ATOM     18  C   UNL     1      -0.467  11.886  18.408  0.00  0.00    +0.000 A 
ATOM     19 CL   UNL     1      -1.606  10.637  18.033  0.00  0.00    +0.000 Cl
ENDBRANCH  12  13
BRANCH  11  20
ATOM     20  C   UNL     1       0.076  10.844  21.835  0.00  0.00    +0.000 C 
ATOM     21  C   UNL     1      -1.133  11.338  21.520  0.00  0.00    +0.000 C 
BRANCH  21  22
ATOM     22  C   UNL     1      -1.924  12.310  22.300  0.00  0.00    +0.000 A 
ATOM     23  C   UNL     1      -1.263  13.062  23.267  0.00  0.00    +0.000 A 
ATOM     24  C   UNL     1      -1.979  14.006  23.980  0.00  0.00    +0.000 A 
ATOM     25  C   UNL     1      -3.336  14.148  23.729  0.00  0.00    +0.000 A 
ATOM     26  C   UNL     1      -3.979  13.332  22.793  0.00  0.00    +0.000 A 
ATOM     27  N   UNL     1      -3.256  12.438  22.061  0.00  0.00    +0.000 NA
BRANCH  26  28
ATOM     28  N   UNL     1      -5.345  13.454  22.588  0.00  0.00    +0.000 N 
ATOM     29  C   UNL     1      -6.299  13.594  23.694  0.00  0.00    +0.000 C 
ATOM     30  C   UNL     1      -7.188  12.356  23.800  0.00  0.00    +0.000 C 
ATOM     31  C   UNL     1      -7.862  12.043  22.468  0.00  0.00    +0.000 C 
ATOM     32  C   UNL     1      -6.821  11.910  21.359  0.00  0.00    +0.000 C 
ATOM     33  C   UNL     1      -5.916  13.139  21.279  0.00  0.00    +0.000 C 
ENDBRANCH  26  28
ENDBRANCH  21  22
ENDBRANCH  11  20
TORSDOF 4
ENDMDL
MODEL 8
REMARK VINA RESULT:      -8.1      5.168     10.627
REMARK  Name = 
REMARK  4 active torsions:
REMARK  status: ('A' for Active; 'I' for Inactive)
REMARK    1  A    between atoms: C_11  and  C_12
REMARK    2  A    between atoms: C_13  and  C_14
REMARK    3  A    between atoms: C_18  and  N_19
REMARK    4  A    between atoms: N_26  and  C_27
REMARK                            x       y       z     vdW  Elec       q    Type
REMARK                         _______ _______ _______ _____ _____    ______ ____
ROOT
ATOM      1  O   UNL     1      -0.960  15.157  20.642  0.00  0.00    +0.000 OA
ATOM      2  C   UNL     1      -0.843  14.022  21.101  0.00  0.00    +0.000 A 
ATOM      3  C   UNL     1      -1.819  13.568  22.105  0.00  0.00    +0.000 A 
ATOM      4  C   UNL     1      -2.731  14.458  22.676  0.00  0.00    +0.000 A 
ATOM      5  C   UNL     1      -3.615  13.990  23.644  0.00  0.00    +0.000 A 
ATOM      6  F   UNL     1      -4.494  14.832  24.204  0.00  0.00    +0.000 F 
ATOM      7  C   UNL     1      -3.591  12.659  24.045  0.00  0.00    +0.000 A 
ATOM      8  C   UNL     1      -2.676  11.780  23.459  0.00  0.00    +0.000 A 
ATOM      9  C   UNL     1      -1.784  12.229  22.480  0.00  0.00    +0.000 A 
ATOM     10  N   UNL     1      -0.876  11.320  21.929  0.00  0.00    +0.000 NA
ATOM     11  C   UNL     1       0.039  11.749  21.106  0.00  0.00    +0.000 A 
ATOM     12  N   UNL     1       0.128  13.085  20.712  0.00  0.00    +0.000 N 
ENDROOT
BRANCH  12  13
ATOM     13  C   UNL     1       1.178  13.569  19.873  0.00  0.00    +0.000 A 
ATOM     14  C   UNL     1       1.193  13.224  18.512  0.00  0.00    +0.000 A 
ATOM     15  C   UNL     1       2.278  13.573  17.705  0.00  0.00    +0.000 A 
ATOM     16  C   UNL     1       3.341  14.298  18.239  0.00  0.00    +0.000 A 
ATOM     17  C   UNL     1       3.311  14.699  19.575  0.00  0.00    +0.000 A 
ATOM     18  C   UNL     1       2.237  14.339  20.394  0.00  0.00    +0.000 A 
ATOM     19 CL   UNL     1       2.352  14.760  22.070  0.00  0.00    +0.000 Cl
ENDBRANCH  12  13
BRANCH  11  20
ATOM     20  C   UNL     1       1.076  10.770  20.620  0.00  0.00    +0.000 C 
ATOM     21  C   UNL     1       0.732   9.845  19.709  0.00  0.00    +0.000 C 
BRANCH  21  22
ATOM     22  C   UNL     1       1.594   8.779  19.160  0.00  0.00    +0.000 A 
ATOM     23  C   UNL     1       2.210   9.005  17.933  0.00  0.00    +0.000 A 
ATOM     24  C   UNL     1       3.052   8.034  17.423  0.00  0.00    +0.000 A 
ATOM     25  C   UNL     1       3.229   6.858  18.136  0.00  0.00    +0.000 A 
ATOM     26  C   UNL     1       2.546   6.640  19.336  0.00  0.00    +0.000 A 
ATOM     27  N   UNL     1       1.755   7.623  19.856  0.00  0.00    +0.000 NA
BRANCH  26  28
ATOM     28  N   UNL     1       2.696   5.439  20.014  0.00  0.00    +0.000 N 
ATOM     29  C   UNL     1       3.700   4.440  19.631  0.00  0.00    +0.000 C 
ATOM     30  C   UNL     1       3.027   3.180  19.088  0.00  0.00    +0.000 C 
ATOM     31  C   UNL     1       1.990   2.639  20.065  0.00  0.00    +0.000 C 
ATOM     32  C   UNL     1       0.975   3.723  20.425  0.00  0.00    +0.000 C 
ATOM     33  C   UNL     1       1.658   4.990  20.940  0.00  0.00    +0.000 C 
ENDBRANCH  26  28
ENDBRANCH  21  22
ENDBRANCH  11  20
TORSDOF 4
ENDMDL
MODEL 9
REMARK VINA RESULT:      -8.0      4.306      7.322
REMARK  Name = 
REMARK  4 active torsions:
REMARK  status: ('A' for Active; 'I' for Inactive)
REMARK    1  A    between atoms: C_11  and  C_12
REMARK    2  A    between atoms: C_13  and  C_14
REMARK    3  A    between atoms: C_18  and  N_19
REMARK    4  A    between atoms: N_26  and  C_27
REMARK                            x       y       z     vdW  Elec       q    Type
REMARK                         _______ _______ _______ _____ _____    ______ ____
ROOT
ATOM      1  O   UNL     1       2.163   9.505  17.490  0.00  0.00    +0.000 OA
ATOM      2  C   UNL     1       1.731   9.176  18.594  0.00  0.00    +0.000 A 
ATOM      3  C   UNL     1       1.957   7.797  19.053  0.00  0.00    +0.000 A 
ATOM      4  C   UNL     1       2.466   6.825  18.188  0.00  0.00    +0.000 A 
ATOM      5  C   UNL     1       2.635   5.525  18.659  0.00  0.00    +0.000 A 
ATOM      6  F   UNL     1       3.119   4.580  17.842  0.00  0.00    +0.000 F 
ATOM      7  C   UNL     1       2.298   5.193  19.966  0.00  0.00    +0.000 A 
ATOM      8  C   UNL     1       1.795   6.179  20.819  0.00  0.00    +0.000 A 
ATOM      9  C   UNL     1       1.624   7.492  20.368  0.00  0.00    +0.000 A 
ATOM     10  N   UNL     1       1.106   8.445  21.251  0.00  0.00    +0.000 NA
ATOM     11  C   UNL     1       0.829   9.640  20.811  0.00  0.00    +0.000 A 
ATOM     12  N   UNL     1       1.069  10.029  19.492  0.00  0.00    +0.000 N 
ENDROOT
BRANCH  12  13
ATOM     13  C   UNL     1       0.692  11.313  18.991  0.00  0.00    +0.000 A 
ATOM     14  C   UNL     1       1.543  12.412  19.191  0.00  0.00    +0.000 A 
ATOM     15  C   UNL     1       1.135  13.697  18.828  0.00  0.00    +0.000 A 
ATOM     16  C   UNL     1      -0.110  13.894  18.234  0.00  0.00    +0.000 A 
ATOM     17  C   UNL     1      -0.940  12.803  17.976  0.00  0.00    +0.000 A 
ATOM     18  C   UNL     1      -0.546  11.515  18.350  0.00  0.00    +0.000 A 
ATOM     19 CL   UNL     1      -1.698  10.243  18.118  0.00  0.00    +0.000 Cl
ENDBRANCH  12  13
BRANCH  11  20
ATOM     20  C   UNL     1       0.163  10.609  21.752  0.00  0.00    +0.000 C 
ATOM     21  C   UNL     1      -1.091  11.018  21.497  0.00  0.00    +0.000 C 
BRANCH  21  22
ATOM     22  C   UNL     1      -1.878  11.997  22.272  0.00  0.00    +0.000 A 
ATOM     23  C   UNL     1      -1.190  12.891  23.085  0.00  0.00    +0.000 A 
ATOM     24  C   UNL     1      -1.908  13.841  23.789  0.00  0.00    +0.000 A 
ATOM     25  C   UNL     1      -3.290  13.850  23.682  0.00  0.00    +0.000 A 
ATOM     26  C   UNL     1      -3.953  12.897  22.902  0.00  0.00    +0.000 A 
ATOM     27  N   UNL     1      -3.234  11.995  22.175  0.00  0.00    +0.000 NA
BRANCH  26  28
ATOM     28  N   UNL     1      -5.339  12.889  22.844  0.00  0.00    +0.000 N 
ATOM     29  C   UNL     1      -6.075  12.969  21.577  0.00  0.00    +0.000 C 
ATOM     30  C   UNL     1      -6.830  14.294  21.474  0.00  0.00    +0.000 C 
ATOM     31  C   UNL     1      -7.716  14.523  22.693  0.00  0.00    +0.000 C 
ATOM     32  C   UNL     1      -6.896  14.427  23.978  0.00  0.00    +0.000 C 
ATOM     33  C   UNL     1      -6.120  13.113  24.059  0.00  0.00    +0.000 C 
ENDBRANCH  26  28
ENDBRANCH  21  22
ENDBRANCH  11  20
TORSDOF 4
ENDMDL
