MODEL 1
REMARK VINA RESULT:      -7.2      0.000      0.000
REMARK  Name = 
REMARK  6 active torsions:
REMARK  status: ('A' for Active; 'I' for Inactive)
REMARK    1  A    between atoms: C_1  and  C_2
REMARK    2  A    between atoms: C_2  and  C_3
REMARK    3  A    between atoms: C_3  and  O_5
REMARK    4  A    between atoms: O_5  and  C_6
REMARK    5  A    between atoms: C_17  and  C_18
REMARK    6  A    between atoms: C_17  and  C_24
REMARK                            x       y       z     vdW  Elec       q    Type
REMARK                         _______ _______ _______ _____ _____    ______ ____
ROOT
ATOM      1  C   UNL     1       0.579   8.916  17.793  0.00  0.00    +0.000 C 
ATOM      2  C   UNL     1       0.992   9.464  19.176  0.00  0.00    +0.000 C 
ATOM      3  C   UNL     1       2.009  10.601  18.996  0.00  0.00    +0.000 C 
ATOM      4  O   UNL     1       1.394  11.764  18.422  0.00  0.00    +0.000 OA
ATOM      5  C   UNL     1       0.365  12.241  19.296  0.00  0.00    +0.000 C 
ATOM      6  C   UNL     1      -0.772  11.192  19.535  0.00  0.00    +0.000 C 
ATOM      7  O   UNL     1      -0.153   9.920  19.936  0.00  0.00    +0.000 OA
ENDROOT
BRANCH   6   8
ATOM      8  C   UNL     1      -1.725  10.941  18.348  0.00  0.00    +0.000 A 
ATOM      9  C   UNL     1      -2.637   9.867  18.399  0.00  0.00    +0.000 A 
ATOM     10  C   UNL     1      -3.451   9.551  17.309  0.00  0.00    +0.000 A 
ATOM     11  C   UNL     1      -3.427  10.348  16.170  0.00  0.00    +0.000 A 
ATOM     12  C   UNL     1      -2.594  11.461  16.124  0.00  0.00    +0.000 A 
ATOM     13  C   UNL     1      -1.747  11.752  17.198  0.00  0.00    +0.000 A 
ENDBRANCH   6   8
BRANCH   6  14
ATOM     14  C   UNL     1      -1.609  11.751  20.717  0.00  0.00    +0.000 A 
ATOM     15  C   UNL     1      -2.684  12.649  20.481  0.00  0.00    +0.000 A 
ATOM     16  C   UNL     1      -3.417  13.193  21.537  0.00  0.00    +0.000 A 
ATOM     17  C   UNL     1      -3.114  12.857  22.845  0.00  0.00    +0.000 A 
ATOM     18  C   UNL     1      -2.063  11.979  23.101  0.00  0.00    +0.000 A 
ATOM     19  C   UNL     1      -1.304  11.435  22.049  0.00  0.00    +0.000 A 
ENDBRANCH   6  14
BRANCH   2  20
ATOM     20  C   UNL     1       1.744   8.281  19.863  0.00  0.00    +0.000 C 
ATOM     21  O   UNL     1       1.814   8.139  21.084  0.00  0.00    +0.000 OA
BRANCH  20  22
ATOM     22  O   UNL     1       2.436   7.488  18.998  0.00  0.00    +0.000 OA
BRANCH  22  23
ATOM     23  C   UNL     1       2.652   6.083  19.394  0.00  0.00    +0.000 C 
ATOM     24  C   UNL     1       4.505   5.668  19.369  0.00  0.00    +0.000 C 
ATOM     25  N   UNL     1       4.812   4.147  18.898  0.00  0.00    +0.000 NA
ATOM     26  C   UNL     1       3.477   4.016  19.167  0.00  0.00    +0.000 C 
ATOM     27  C   UNL     1       3.133   5.233  17.699  0.00  0.00    +0.000 C 
ATOM     28  C   UNL     1       1.842   4.958  18.158  0.00  0.00    +0.000 C 
ATOM     29  C   UNL     1       2.491   3.481  17.283  0.00  0.00    +0.000 C 
ATOM     30  C   UNL     1       4.367   3.393  17.554  0.00  0.00    +0.000 C 
ENDBRANCH  22  23
ENDBRANCH  20  22
ENDBRANCH   2  20
TORSDOF 5
ENDMDL
MODEL 2
REMARK VINA RESULT:      -7.0      1.273      1.620
REMARK  Name = 
REMARK  6 active torsions:
REMARK  status: ('A' for Active; 'I' for Inactive)
REMARK    1  A    between atoms: C_1  and  C_2
REMARK    2  A    between atoms: C_2  and  C_3
REMARK    3  A    between atoms: C_3  and  O_5
REMARK    4  A    between atoms: O_5  and  C_6
REMARK    5  A    between atoms: C_17  and  C_18
REMARK    6  A    between atoms: C_17  and  C_24
REMARK                            x       y       z     vdW  Elec       q    Type
REMARK                         _______ _______ _______ _____ _____    ______ ____
ROOT
ATOM      1  C   UNL     1       0.805   8.782  17.265  0.00  0.00    +0.000 C 
ATOM      2  C   UNL     1       1.430   9.148  18.629  0.00  0.00    +0.000 C 
ATOM      3  C   UNL     1       2.430  10.300  18.445  0.00  0.00    +0.000 C 
ATOM      4  O   UNL     1       1.758  11.526  18.123  0.00  0.00    +0.000 OA
ATOM      5  C   UNL     1       0.880  11.886  19.194  0.00  0.00    +0.000 C 
ATOM      6  C   UNL     1      -0.228  10.815  19.466  0.00  0.00    +0.000 C 
ATOM      7  O   UNL     1       0.420   9.501  19.604  0.00  0.00    +0.000 OA
ENDROOT
BRANCH   6   8
ATOM      8  C   UNL     1      -1.352  10.718  18.413  0.00  0.00    +0.000 A 
ATOM      9  C   UNL     1      -2.303   9.680  18.500  0.00  0.00    +0.000 A 
ATOM     10  C   UNL     1      -3.279   9.504  17.516  0.00  0.00    +0.000 A 
ATOM     11  C   UNL     1      -3.375  10.407  16.463  0.00  0.00    +0.000 A 
ATOM     12  C   UNL     1      -2.499  11.486  16.397  0.00  0.00    +0.000 A 
ATOM     13  C   UNL     1      -1.494  11.637  17.357  0.00  0.00    +0.000 A 
ENDBRANCH   6   8
BRANCH   6  14
ATOM     14  C   UNL     1      -0.869  11.216  20.822  0.00  0.00    +0.000 A 
ATOM     15  C   UNL     1      -1.678  12.379  20.923  0.00  0.00    +0.000 A 
ATOM     16  C   UNL     1      -2.224  12.776  22.144  0.00  0.00    +0.000 A 
ATOM     17  C   UNL     1      -1.995  12.031  23.289  0.00  0.00    +0.000 A 
ATOM     18  C   UNL     1      -1.204  10.887  23.214  0.00  0.00    +0.000 A 
ATOM     19  C   UNL     1      -0.631  10.483  21.994  0.00  0.00    +0.000 A 
ENDBRANCH   6  14
BRANCH   2  20
ATOM     20  C   UNL     1       2.254   7.887  19.039  0.00  0.00    +0.000 C 
ATOM     21  O   UNL     1       1.986   7.190  20.018  0.00  0.00    +0.000 OA
BRANCH  20  22
ATOM     22  O   UNL     1       3.382   7.698  18.299  0.00  0.00    +0.000 OA
BRANCH  22  23
ATOM     23  C   UNL     1       3.721   6.311  17.927  0.00  0.00    +0.000 C 
ATOM     24  C   UNL     1       4.752   5.494  19.298  0.00  0.00    +0.000 C 
ATOM     25  N   UNL     1       5.870   4.466  18.729  0.00  0.00    +0.000 NA
ATOM     26  C   UNL     1       5.098   4.577  17.604  0.00  0.00    +0.000 C 
ATOM     27  C   UNL     1       5.629   6.439  17.509  0.00  0.00    +0.000 C 
ATOM     28  C   UNL     1       4.783   6.318  16.403  0.00  0.00    +0.000 C 
ATOM     29  C   UNL     1       6.362   5.456  16.042  0.00  0.00    +0.000 C 
ATOM     30  C   UNL     1       7.036   4.729  17.660  0.00  0.00    +0.000 C 
ENDBRANCH  22  23
ENDBRANCH  20  22
ENDBRANCH   2  20
TORSDOF 5
ENDMDL
MODEL 3
REMARK VINA RESULT:      -6.9      4.315      7.560
REMARK  Name = 
REMARK  6 active torsions:
REMARK  status: ('A' for Active; 'I' for Inactive)
REMARK    1  A    between atoms: C_1  and  C_2
REMARK    2  A    between atoms: C_2  and  C_3
REMARK    3  A    between atoms: C_3  and  O_5
REMARK    4  A    between atoms: O_5  and  C_6
REMARK    5  A    between atoms: C_17  and  C_18
REMARK    6  A    between atoms: C_17  and  C_24
REMARK                            x       y       z     vdW  Elec       q    Type
REMARK                         _______ _______ _______ _____ _____    ______ ____
ROOT
ATOM      1  C   UNL     1       1.988  12.644  20.660  0.00  0.00    +0.000 C 
ATOM      2  C   UNL     1       1.446  12.859  19.229  0.00  0.00    +0.000 C 
ATOM      3  C   UNL     1       2.251  12.002  18.240  0.00  0.00    +0.000 C 
ATOM      4  O   UNL     1       1.978  10.604  18.420  0.00  0.00    +0.000 OA
ATOM      5  C   UNL     1       0.590  10.353  18.178  0.00  0.00    +0.000 C 
ATOM      6  C   UNL     1      -0.354  11.133  19.152  0.00  0.00    +0.000 C 
ATOM      7  O   UNL     1       0.035  12.552  19.139  0.00  0.00    +0.000 OA
ENDROOT
BRANCH   6   8
ATOM      8  C   UNL     1      -0.391  10.631  20.610  0.00  0.00    +0.000 A 
ATOM      9  C   UNL     1       0.154   9.369  20.929  0.00  0.00    +0.000 A 
ATOM     10  C   UNL     1       0.058   8.840  22.218  0.00  0.00    +0.000 A 
ATOM     11  C   UNL     1      -0.517   9.593  23.237  0.00  0.00    +0.000 A 
ATOM     12  C   UNL     1      -0.991  10.872  22.967  0.00  0.00    +0.000 A 
ATOM     13  C   UNL     1      -0.935  11.384  21.667  0.00  0.00    +0.000 A 
ENDBRANCH   6   8
BRANCH   6  14
ATOM     14  C   UNL     1      -1.780  10.987  18.554  0.00  0.00    +0.000 A 
ATOM     15  C   UNL     1      -2.056   9.989  17.581  0.00  0.00    +0.000 A 
ATOM     16  C   UNL     1      -3.321   9.874  17.003  0.00  0.00    +0.000 A 
ATOM     17  C   UNL     1      -4.342  10.731  17.376  0.00  0.00    +0.000 A 
ATOM     18  C   UNL     1      -4.094  11.719  18.327  0.00  0.00    +0.000 A 
ATOM     19  C   UNL     1      -2.820  11.859  18.907  0.00  0.00    +0.000 A 
ENDBRANCH   6  14
BRANCH   2  20
ATOM     20  C   UNL     1       1.764  14.353  18.905  0.00  0.00    +0.000 C 
ATOM     21  O   UNL     1       0.901  15.184  18.623  0.00  0.00    +0.000 OA
BRANCH  20  22
ATOM     22  O   UNL     1       3.096  14.631  18.827  0.00  0.00    +0.000 OA
BRANCH  22  23
ATOM     23  C   UNL     1       3.588  15.798  19.584  0.00  0.00    +0.000 C 
ATOM     24  C   UNL     1       4.633  16.919  18.463  0.00  0.00    +0.000 C 
ATOM     25  N   UNL     1       5.872  17.621  19.239  0.00  0.00    +0.000 NA
ATOM     26  C   UNL     1       5.143  17.224  20.327  0.00  0.00    +0.000 C 
ATOM     27  C   UNL     1       5.489  15.391  19.802  0.00  0.00    +0.000 C 
ATOM     28  C   UNL     1       4.709  15.225  20.950  0.00  0.00    +0.000 C 
ATOM     29  C   UNL     1       6.380  15.799  21.444  0.00  0.00    +0.000 C 
ATOM     30  C   UNL     1       7.052  16.942  20.087  0.00  0.00    +0.000 C 
ENDBRANCH  22  23
ENDBRANCH  20  22
ENDBRANCH   2  20
TORSDOF 5
ENDMDL
MODEL 4
REMARK VINA RESULT:      -6.9      1.939      3.959
REMARK  Name = 
REMARK  6 active torsions:
REMARK  status: ('A' for Active; 'I' for Inactive)
REMARK    1  A    between atoms: C_1  and  C_2
REMARK    2  A    between atoms: C_2  and  C_3
REMARK    3  A    between atoms: C_3  and  O_5
REMARK    4  A    between atoms: O_5  and  C_6
REMARK    5  A    between atoms: C_17  and  C_18
REMARK    6  A    between atoms: C_17  and  C_24
REMARK                            x       y       z     vdW  Elec       q    Type
REMARK                         _______ _______ _______ _____ _____    ______ ____
ROOT
ATOM      1  C   UNL     1      -0.351   9.515  19.999  0.00  0.00    +0.000 C 
ATOM      2  C   UNL     1       0.281  10.185  18.759  0.00  0.00    +0.000 C 
ATOM      3  C   UNL     1      -0.703  10.119  17.581  0.00  0.00    +0.000 C 
ATOM      4  O   UNL     1      -1.834  10.976  17.799  0.00  0.00    +0.000 OA
ATOM      5  C   UNL     1      -1.391  12.331  17.915  0.00  0.00    +0.000 C 
ATOM      6  C   UNL     1      -0.409  12.557  19.112  0.00  0.00    +0.000 C 
ATOM      7  O   UNL     1       0.664  11.554  19.027  0.00  0.00    +0.000 OA
ENDROOT
BRANCH   6   8
ATOM      8  C   UNL     1      -1.035  12.510  20.522  0.00  0.00    +0.000 A 
ATOM      9  C   UNL     1      -2.438  12.485  20.663  0.00  0.00    +0.000 A 
ATOM     10  C   UNL     1      -3.044  12.535  21.921  0.00  0.00    +0.000 A 
ATOM     11  C   UNL     1      -2.260  12.535  23.070  0.00  0.00    +0.000 A 
ATOM     12  C   UNL     1      -0.874  12.480  22.960  0.00  0.00    +0.000 A 
ATOM     13  C   UNL     1      -0.267  12.475  21.701  0.00  0.00    +0.000 A 
ENDBRANCH   6   8
BRANCH   6  14
ATOM     14  C   UNL     1       0.192  13.972  18.896  0.00  0.00    +0.000 A 
ATOM     15  C   UNL     1       1.586  14.140  18.682  0.00  0.00    +0.000 A 
ATOM     16  C   UNL     1       2.146  15.409  18.530  0.00  0.00    +0.000 A 
ATOM     17  C   UNL     1       1.345  16.538  18.575  0.00  0.00    +0.000 A 
ATOM     18  C   UNL     1      -0.025  16.397  18.786  0.00  0.00    +0.000 A 
ATOM     19  C   UNL     1      -0.602  15.126  18.958  0.00  0.00    +0.000 A 
ENDBRANCH   6  14
BRANCH   2  20
ATOM     20  C   UNL     1       1.496   9.275  18.392  0.00  0.00    +0.000 C 
ATOM     21  O   UNL     1       2.470   9.670  17.751  0.00  0.00    +0.000 OA
BRANCH  20  22
ATOM     22  O   UNL     1       1.326   7.965  18.724  0.00  0.00    +0.000 OA
BRANCH  22  23
ATOM     23  C   UNL     1       2.494   7.251  19.276  0.00  0.00    +0.000 C 
ATOM     24  C   UNL     1       3.362   6.253  17.913  0.00  0.00    +0.000 C 
ATOM     25  N   UNL     1       3.982   4.852  18.445  0.00  0.00    +0.000 NA
ATOM     26  C   UNL     1       3.787   5.465  19.653  0.00  0.00    +0.000 C 
ATOM     27  C   UNL     1       1.882   5.393  19.302  0.00  0.00    +0.000 C 
ATOM     28  C   UNL     1       1.927   6.023  20.549  0.00  0.00    +0.000 C 
ATOM     29  C   UNL     1       2.340   4.248  20.763  0.00  0.00    +0.000 C 
ATOM     30  C   UNL     1       3.251   3.648  19.212  0.00  0.00    +0.000 C 
ENDBRANCH  22  23
ENDBRANCH  20  22
ENDBRANCH   2  20
TORSDOF 5
ENDMDL
MODEL 5
REMARK VINA RESULT:      -6.8      1.389      2.102
REMARK  Name = 
REMARK  6 active torsions:
REMARK  status: ('A' for Active; 'I' for Inactive)
REMARK    1  A    between atoms: C_1  and  C_2
REMARK    2  A    between atoms: C_2  and  C_3
REMARK    3  A    between atoms: C_3  and  O_5
REMARK    4  A    between atoms: O_5  and  C_6
REMARK    5  A    between atoms: C_17  and  C_18
REMARK    6  A    between atoms: C_17  and  C_24
REMARK                            x       y       z     vdW  Elec       q    Type
REMARK                         _______ _______ _______ _____ _____    ______ ____
ROOT
ATOM      1  C   UNL     1       0.824   8.956  17.072  0.00  0.00    +0.000 C 
ATOM      2  C   UNL     1       1.530   9.269  18.409  0.00  0.00    +0.000 C 
ATOM      3  C   UNL     1       2.452  10.486  18.231  0.00  0.00    +0.000 C 
ATOM      4  O   UNL     1       1.695  11.690  18.042  0.00  0.00    +0.000 OA
ATOM      5  C   UNL     1       0.883  11.930  19.195  0.00  0.00    +0.000 C 
ATOM      6  C   UNL     1      -0.145  10.783  19.473  0.00  0.00    +0.000 C 
ATOM      7  O   UNL     1       0.579   9.502  19.475  0.00  0.00    +0.000 OA
ENDROOT
BRANCH   6   8
ATOM      8  C   UNL     1      -1.338  10.689  18.500  0.00  0.00    +0.000 A 
ATOM      9  C   UNL     1      -2.248   9.617  18.610  0.00  0.00    +0.000 A 
ATOM     10  C   UNL     1      -3.286   9.446  17.692  0.00  0.00    +0.000 A 
ATOM     11  C   UNL     1      -3.486  10.386  16.687  0.00  0.00    +0.000 A 
ATOM     12  C   UNL     1      -2.652  11.496  16.604  0.00  0.00    +0.000 A 
ATOM     13  C   UNL     1      -1.585  11.644  17.495  0.00  0.00    +0.000 A 
ENDBRANCH   6   8
BRANCH   6  14
ATOM     14  C   UNL     1      -0.702  11.060  20.896  0.00  0.00    +0.000 A 
ATOM     15  C   UNL     1      -0.423  10.170  21.967  0.00  0.00    +0.000 A 
ATOM     16  C   UNL     1      -0.953  10.382  23.240  0.00  0.00    +0.000 A 
ATOM     17  C   UNL     1      -1.759  11.481  23.488  0.00  0.00    +0.000 A 
ATOM     18  C   UNL     1      -2.047  12.367  22.453  0.00  0.00    +0.000 A 
ATOM     19  C   UNL     1      -1.534  12.157  21.159  0.00  0.00    +0.000 A 
ENDBRANCH   6  14
BRANCH   2  20
ATOM     20  C   UNL     1       2.447   8.034  18.673  0.00  0.00    +0.000 C 
ATOM     21  O   UNL     1       3.547   7.880  18.142  0.00  0.00    +0.000 OA
BRANCH  20  22
ATOM     22  O   UNL     1       1.867   7.068  19.438  0.00  0.00    +0.000 OA
BRANCH  22  23
ATOM     23  C   UNL     1       2.506   5.737  19.445  0.00  0.00    +0.000 C 
ATOM     24  C   UNL     1       1.845   4.682  18.011  0.00  0.00    +0.000 C 
ATOM     25  N   UNL     1       1.721   3.107  18.381  0.00  0.00    +0.000 NA
ATOM     26  C   UNL     1       2.533   3.500  19.411  0.00  0.00    +0.000 C 
ATOM     27  C   UNL     1       1.060   4.576  20.068  0.00  0.00    +0.000 C 
ATOM     28  C   UNL     1       2.059   4.841  21.009  0.00  0.00    +0.000 C 
ATOM     29  C   UNL     1       1.430   3.137  21.271  0.00  0.00    +0.000 C 
ATOM     30  C   UNL     1       0.931   2.411  19.591  0.00  0.00    +0.000 C 
ENDBRANCH  22  23
ENDBRANCH  20  22
ENDBRANCH   2  20
TORSDOF 5
ENDMDL
MODEL 6
REMARK VINA RESULT:      -6.8      4.807      8.727
REMARK  Name = 
REMARK  6 active torsions:
REMARK  status: ('A' for Active; 'I' for Inactive)
REMARK    1  A    between atoms: C_1  and  C_2
REMARK    2  A    between atoms: C_2  and  C_3
REMARK    3  A    between atoms: C_3  and  O_5
REMARK    4  A    between atoms: O_5  and  C_6
REMARK    5  A    between atoms: C_17  and  C_18
REMARK    6  A    between atoms: C_17  and  C_24
REMARK                            x       y       z     vdW  Elec       q    Type
REMARK                         _______ _______ _______ _____ _____    ______ ____
ROOT
ATOM      1  C   UNL     1       0.893  13.817  21.764  0.00  0.00    +0.000 C 
ATOM      2  C   UNL     1       0.353  14.169  20.360  0.00  0.00    +0.000 C 
ATOM      3  C   UNL     1       1.492  14.075  19.333  0.00  0.00    +0.000 C 
ATOM      4  O   UNL     1       1.898  12.713  19.129  0.00  0.00    +0.000 OA
ATOM      5  C   UNL     1       0.795  11.957  18.620  0.00  0.00    +0.000 C 
ATOM      6  C   UNL     1      -0.431  11.928  19.592  0.00  0.00    +0.000 C 
ATOM      7  O   UNL     1      -0.749  13.311  19.980  0.00  0.00    +0.000 OA
ENDROOT
BRANCH   6   8
ATOM      8  C   UNL     1      -0.270  11.069  20.863  0.00  0.00    +0.000 A 
ATOM      9  C   UNL     1      -1.173  11.228  21.934  0.00  0.00    +0.000 A 
ATOM     10  C   UNL     1      -1.007  10.537  23.136  0.00  0.00    +0.000 A 
ATOM     11  C   UNL     1       0.024   9.613  23.269  0.00  0.00    +0.000 A 
ATOM     12  C   UNL     1       0.882   9.378  22.199  0.00  0.00    +0.000 A 
ATOM     13  C   UNL     1       0.742  10.102  21.012  0.00  0.00    +0.000 A 
ENDBRANCH   6   8
BRANCH   6  14
ATOM     14  C   UNL     1      -1.606  11.345  18.761  0.00  0.00    +0.000 A 
ATOM     15  C   UNL     1      -1.387  10.279  17.848  0.00  0.00    +0.000 A 
ATOM     16  C   UNL     1      -2.424   9.775  17.062  0.00  0.00    +0.000 A 
ATOM     17  C   UNL     1      -3.701  10.302  17.166  0.00  0.00    +0.000 A 
ATOM     18  C   UNL     1      -3.939  11.349  18.054  0.00  0.00    +0.000 A 
ATOM     19  C   UNL     1      -2.900  11.880  18.840  0.00  0.00    +0.000 A 
ENDBRANCH   6  14
BRANCH   2  20
ATOM     20  C   UNL     1      -0.054  15.673  20.457  0.00  0.00    +0.000 C 
ATOM     21  O   UNL     1       0.160  16.492  19.563  0.00  0.00    +0.000 OA
BRANCH  20  22
ATOM     22  O   UNL     1      -0.545  16.036  21.674  0.00  0.00    +0.000 OA
BRANCH  22  23
ATOM     23  C   UNL     1      -2.012  16.024  21.842  0.00  0.00    +0.000 C 
ATOM     24  C   UNL     1      -2.588  17.607  22.719  0.00  0.00    +0.000 C 
ATOM     25  N   UNL     1      -3.848  17.365  23.710  0.00  0.00    +0.000 NA
ATOM     26  C   UNL     1      -3.923  16.202  22.991  0.00  0.00    +0.000 C 
ATOM     27  C   UNL     1      -2.216  15.700  23.761  0.00  0.00    +0.000 C 
ATOM     28  C   UNL     1      -2.500  14.606  22.938  0.00  0.00    +0.000 C 
ATOM     29  C   UNL     1      -3.605  14.554  24.401  0.00  0.00    +0.000 C 
ATOM     30  C   UNL     1      -3.994  16.334  24.930  0.00  0.00    +0.000 C 
ENDBRANCH  22  23
ENDBRANCH  20  22
ENDBRANCH   2  20
TORSDOF 5
ENDMDL
MODEL 7
REMARK VINA RESULT:      -6.8      4.263      7.714
REMARK  Name = 
REMARK  6 active torsions:
REMARK  status: ('A' for Active; 'I' for Inactive)
REMARK    1  A    between atoms: C_1  and  C_2
REMARK    2  A    between atoms: C_2  and  C_3
REMARK    3  A    between atoms: C_3  and  O_5
REMARK    4  A    between atoms: O_5  and  C_6
REMARK    5  A    between atoms: C_17  and  C_18
REMARK    6  A    between atoms: C_17  and  C_24
REMARK                            x       y       z     vdW  Elec       q    Type
REMARK                         _______ _______ _______ _____ _____    ______ ____
ROOT
ATOM      1  C   UNL     1       1.955  12.894  20.876  0.00  0.00    +0.000 C 
ATOM      2  C   UNL     1       1.329  13.213  19.500  0.00  0.00    +0.000 C 
ATOM      3  C   UNL     1       2.176  12.574  18.389  0.00  0.00    +0.000 C 
ATOM      4  O   UNL     1       2.065  11.144  18.407  0.00  0.00    +0.000 OA
ATOM      5  C   UNL     1       0.704  10.767  18.180  0.00  0.00    +0.000 C 
ATOM      6  C   UNL     1      -0.275  11.315  19.271  0.00  0.00    +0.000 C 
ATOM      7  O   UNL     1      -0.044  12.760  19.418  0.00  0.00    +0.000 OA
ENDROOT
BRANCH   6   8
ATOM      8  C   UNL     1      -0.191  10.644  20.658  0.00  0.00    +0.000 A 
ATOM      9  C   UNL     1      -0.928  11.175  21.737  0.00  0.00    +0.000 A 
ATOM     10  C   UNL     1      -0.807  10.654  23.027  0.00  0.00    +0.000 A 
ATOM     11  C   UNL     1      -0.006   9.539  23.253  0.00  0.00    +0.000 A 
ATOM     12  C   UNL     1       0.668   8.947  22.191  0.00  0.00    +0.000 A 
ATOM     13  C   UNL     1       0.583   9.496  20.908  0.00  0.00    +0.000 A 
ENDBRANCH   6   8
BRANCH   6  14
ATOM     14  C   UNL     1      -1.702  11.079  18.705  0.00  0.00    +0.000 A 
ATOM     15  C   UNL     1      -1.956  10.003  17.814  0.00  0.00    +0.000 A 
ATOM     16  C   UNL     1      -3.223   9.804  17.263  0.00  0.00    +0.000 A 
ATOM     17  C   UNL     1      -4.268  10.654  17.585  0.00  0.00    +0.000 A 
ATOM     18  C   UNL     1      -4.041  11.718  18.456  0.00  0.00    +0.000 A 
ATOM     19  C   UNL     1      -2.765  11.941  19.006  0.00  0.00    +0.000 A 
ENDBRANCH   6  14
BRANCH   2  20
ATOM     20  C   UNL     1       1.467  14.761  19.350  0.00  0.00    +0.000 C 
ATOM     21  O   UNL     1       0.784  15.431  18.576  0.00  0.00    +0.000 OA
BRANCH  20  22
ATOM     22  O   UNL     1       2.506  15.294  20.051  0.00  0.00    +0.000 OA
BRANCH  22  23
ATOM     23  C   UNL     1       3.481  16.109  19.299  0.00  0.00    +0.000 C 
ATOM     24  C   UNL     1       5.012  15.072  18.866  0.00  0.00    +0.000 C 
ATOM     25  N   UNL     1       6.390  15.926  18.894  0.00  0.00    +0.000 NA
ATOM     26  C   UNL     1       5.501  16.966  18.866  0.00  0.00    +0.000 C 
ATOM     27  C   UNL     1       4.895  16.403  20.619  0.00  0.00    +0.000 C 
ATOM     28  C   UNL     1       4.076  17.507  20.367  0.00  0.00    +0.000 C 
ATOM     29  C   UNL     1       5.776  18.097  20.725  0.00  0.00    +0.000 C 
ATOM     30  C   UNL     1       7.011  16.808  20.082  0.00  0.00    +0.000 C 
ENDBRANCH  22  23
ENDBRANCH  20  22
ENDBRANCH   2  20
TORSDOF 5
ENDMDL
MODEL 8
REMARK VINA RESULT:      -6.7      4.559      8.296
REMARK  Name = 
REMARK  6 active torsions:
REMARK  status: ('A' for Active; 'I' for Inactive)
REMARK    1  A    between atoms: C_1  and  C_2
REMARK    2  A    between atoms: C_2  and  C_3
REMARK    3  A    between atoms: C_3  and  O_5
REMARK    4  A    between atoms: O_5  and  C_6
REMARK    5  A    between atoms: C_17  and  C_18
REMARK    6  A    between atoms: C_17  and  C_24
REMARK                            x       y       z     vdW  Elec       q    Type
REMARK                         _______ _______ _______ _____ _____    ______ ____
ROOT
ATOM      1  C   UNL     1       1.855  13.145  20.963  0.00  0.00    +0.000 C 
ATOM      2  C   UNL     1       1.220  13.429  19.584  0.00  0.00    +0.000 C 
ATOM      3  C   UNL     1       2.101  12.827  18.478  0.00  0.00    +0.000 C 
ATOM      4  O   UNL     1       2.056  11.392  18.500  0.00  0.00    +0.000 OA
ATOM      5  C   UNL     1       0.714  10.952  18.270  0.00  0.00    +0.000 C 
ATOM      6  C   UNL     1      -0.294  11.458  19.354  0.00  0.00    +0.000 C 
ATOM      7  O   UNL     1      -0.129  12.913  19.498  0.00  0.00    +0.000 OA
ENDROOT
BRANCH   6   8
ATOM      8  C   UNL     1      -0.184  10.797  20.744  0.00  0.00    +0.000 A 
ATOM      9  C   UNL     1       0.688   9.704  20.932  0.00  0.00    +0.000 A 
ATOM     10  C   UNL     1       0.747   9.021  22.148  0.00  0.00    +0.000 A 
ATOM     11  C   UNL     1      -0.009   9.462  23.230  0.00  0.00    +0.000 A 
ATOM     12  C   UNL     1      -0.817  10.586  23.095  0.00  0.00    +0.000 A 
ATOM     13  C   UNL     1      -0.910  11.243  21.865  0.00  0.00    +0.000 A 
ENDBRANCH   6   8
BRANCH   6  14
ATOM     14  C   UNL     1      -1.705  11.155  18.784  0.00  0.00    +0.000 A 
ATOM     15  C   UNL     1      -1.910  10.052  17.913  0.00  0.00    +0.000 A 
ATOM     16  C   UNL     1      -3.164   9.792  17.358  0.00  0.00    +0.000 A 
ATOM     17  C   UNL     1      -4.244  10.607  17.656  0.00  0.00    +0.000 A 
ATOM     18  C   UNL     1      -4.066  11.695  18.507  0.00  0.00    +0.000 A 
ATOM     19  C   UNL     1      -2.804  11.980  19.061  0.00  0.00    +0.000 A 
ENDBRANCH   6  14
BRANCH   2  20
ATOM     20  C   UNL     1       1.288  14.981  19.428  0.00  0.00    +0.000 C 
ATOM     21  O   UNL     1       1.645  15.544  18.394  0.00  0.00    +0.000 OA
BRANCH  20  22
ATOM     22  O   UNL     1       1.049  15.664  20.583  0.00  0.00    +0.000 OA
BRANCH  22  23
ATOM     23  C   UNL     1      -0.328  16.146  20.809  0.00  0.00    +0.000 C 
ATOM     24  C   UNL     1      -0.299  17.873  21.600  0.00  0.00    +0.000 C 
ATOM     25  N   UNL     1      -1.508  18.112  22.655  0.00  0.00    +0.000 NA
ATOM     26  C   UNL     1      -2.002  17.005  22.018  0.00  0.00    +0.000 C 
ATOM     27  C   UNL     1      -0.513  16.005  22.752  0.00  0.00    +0.000 C 
ATOM     28  C   UNL     1      -1.188  15.027  22.016  0.00  0.00    +0.000 C 
ATOM     29  C   UNL     1      -2.160  15.417  23.523  0.00  0.00    +0.000 C 
ATOM     30  C   UNL     1      -1.910  17.250  23.946  0.00  0.00    +0.000 C 
ENDBRANCH  22  23
ENDBRANCH  20  22
ENDBRANCH   2  20
TORSDOF 5
ENDMDL
MODEL 9
REMARK VINA RESULT:      -6.7      1.594      3.696
REMARK  Name = 
REMARK  6 active torsions:
REMARK  status: ('A' for Active; 'I' for Inactive)
REMARK    1  A    between atoms: C_1  and  C_2
REMARK    2  A    between atoms: C_2  and  C_3
REMARK    3  A    between atoms: C_3  and  O_5
REMARK    4  A    between atoms: O_5  and  C_6
REMARK    5  A    between atoms: C_17  and  C_18
REMARK    6  A    between atoms: C_17  and  C_24
REMARK                            x       y       z     vdW  Elec       q    Type
REMARK                         _______ _______ _______ _____ _____    ______ ____
ROOT
ATOM      1  C   UNL     1       2.036  10.895  19.617  0.00  0.00    +0.000 C 
ATOM      2  C   UNL     1       1.126   9.760  19.098  0.00  0.00    +0.000 C 
ATOM      3  C   UNL     1       0.587   8.948  20.286  0.00  0.00    +0.000 C 
ATOM      4  O   UNL     1      -0.353   9.713  21.055  0.00  0.00    +0.000 OA
ATOM      5  C   UNL     1      -1.469  10.064  20.232  0.00  0.00    +0.000 C 
ATOM      6  C   UNL     1      -1.071  10.938  18.996  0.00  0.00    +0.000 C 
ATOM      7  O   UNL     1       0.037  10.272  18.295  0.00  0.00    +0.000 OA
ENDROOT
BRANCH   6   8
ATOM      8  C   UNL     1      -0.675  12.399  19.297  0.00  0.00    +0.000 A 
ATOM      9  C   UNL     1      -0.757  12.888  20.617  0.00  0.00    +0.000 A 
ATOM     10  C   UNL     1      -0.496  14.227  20.914  0.00  0.00    +0.000 A 
ATOM     11  C   UNL     1      -0.072  15.092  19.910  0.00  0.00    +0.000 A 
ATOM     12  C   UNL     1       0.093  14.616  18.614  0.00  0.00    +0.000 A 
ATOM     13  C   UNL     1      -0.211  13.286  18.308  0.00  0.00    +0.000 A 
ENDBRANCH   6   8
BRANCH   6  14
ATOM     14  C   UNL     1      -2.323  10.955  18.079  0.00  0.00    +0.000 A 
ATOM     15  C   UNL     1      -2.276  10.379  16.781  0.00  0.00    +0.000 A 
ATOM     16  C   UNL     1      -3.381  10.426  15.929  0.00  0.00    +0.000 A 
ATOM     17  C   UNL     1      -4.556  11.032  16.339  0.00  0.00    +0.000 A 
ATOM     18  C   UNL     1      -4.625  11.605  17.607  0.00  0.00    +0.000 A 
ATOM     19  C   UNL     1      -3.515  11.581  18.472  0.00  0.00    +0.000 A 
ENDBRANCH   6  14
BRANCH   2  20
ATOM     20  C   UNL     1       2.082   8.820  18.297  0.00  0.00    +0.000 C 
ATOM     21  O   UNL     1       2.319   8.958  17.097  0.00  0.00    +0.000 OA
BRANCH  20  22
ATOM     22  O   UNL     1       2.527   7.748  19.009  0.00  0.00    +0.000 OA
BRANCH  22  23
ATOM     23  C   UNL     1       2.584   6.449  18.309  0.00  0.00    +0.000 C 
ATOM     24  C   UNL     1       2.062   5.047  19.479  0.00  0.00    +0.000 C 
ATOM     25  N   UNL     1       2.874   3.666  19.222  0.00  0.00    +0.000 NA
ATOM     26  C   UNL     1       3.179   4.308  18.052  0.00  0.00    +0.000 C 
ATOM     27  C   UNL     1       4.161   5.607  19.104  0.00  0.00    +0.000 C 
ATOM     28  C   UNL     1       4.335   6.091  17.804  0.00  0.00    +0.000 C 
ATOM     29  C   UNL     1       5.355   4.581  18.020  0.00  0.00    +0.000 C 
ATOM     30  C   UNL     1       4.457   3.410  19.211  0.00  0.00    +0.000 C 
ENDBRANCH  22  23
ENDBRANCH  20  22
ENDBRANCH   2  20
TORSDOF 5
ENDMDL
