MODEL 1
REMARK VINA RESULT:      -7.0      0.000      0.000
REMARK  Name = 
REMARK  5 active torsions:
REMARK  status: ('A' for Active; 'I' for Inactive)
REMARK    1  A    between atoms: C_2  and  SE_3
REMARK    2  A    between atoms: SE_3  and  C_4
REMARK    3  A    between atoms: C_7  and  N_8
REMARK    4  A    between atoms: C_9  and  O_11
REMARK    5  A    between atoms: O_11  and  C_12
REMARK                            x       y       z     vdW  Elec       q    Type
REMARK                         _______ _______ _______ _____ _____    ______ ____
ROOT
ATOM      1  N   UNL     1       5.902   6.838  17.859  0.00  0.00    +0.000 N 
ATOM      2  C   UNL     1       7.072   6.627  17.193  0.00  0.00    +0.000 C 
ATOM      3  O   UNL     1       7.793   7.582  16.934  0.00  0.00    +0.000 OA
ATOM      4  H   UNL     1       5.650   7.818  18.063  0.00  0.00    +0.000 HD
ENDROOT
BRANCH   1   8
ATOM      5  C   UNL     1       2.982   3.863  18.730  0.00  0.00    +0.000 A 
ATOM      6  C   UNL     1       4.207   3.837  19.401  0.00  0.00    +0.000 A 
ATOM      7  C   UNL     1       5.179   4.805  19.138  0.00  0.00    +0.000 A 
ATOM      8  C   UNL     1       4.940   5.826  18.188  0.00  0.00    +0.000 A 
ATOM      9  C   UNL     1       3.693   5.848  17.535  0.00  0.00    +0.000 A 
ATOM     10  C   UNL     1       2.727   4.872  17.799  0.00  0.00    +0.000 A 
BRANCH   5  11
ATOM     11 SE   UNL     1       1.663   2.505  19.069  0.00  0.00    +0.000 Se
BRANCH  11  13
ATOM     12  N   UNL     1       1.931   2.781  22.096  0.00  0.00    +0.000 NA
ATOM     13  C   UNL     1       1.829   2.682  20.947  0.00  0.00    +0.000 C 
ENDBRANCH  11  13
ENDBRANCH   5  11
ENDBRANCH   1   8
BRANCH   2  14
ATOM     14  O   UNL     1       7.400   5.394  16.737  0.00  0.00    +0.000 OA
BRANCH  14  15
ATOM     15  C   UNL     1       6.982   4.835  15.574  0.00  0.00    +0.000 A 
ATOM     16  C   UNL     1       7.500   5.221  14.320  0.00  0.00    +0.000 A 
ATOM     17  C   UNL     1       6.997   4.659  13.146  0.00  0.00    +0.000 A 
ATOM     18  C   UNL     1       5.976   3.707  13.205  0.00  0.00    +0.000 A 
ATOM     19 CL   UNL     1       5.337   3.019  11.724  0.00  0.00    +0.000 Cl
ATOM     20  C   UNL     1       5.459   3.314  14.443  0.00  0.00    +0.000 A 
ATOM     21  C   UNL     1       5.960   3.875  15.623  0.00  0.00    +0.000 A 
ENDBRANCH  14  15
ENDBRANCH   2  14
TORSDOF 5
ENDMDL
MODEL 2
REMARK VINA RESULT:      -6.9      0.095      1.087
REMARK  Name = 
REMARK  5 active torsions:
REMARK  status: ('A' for Active; 'I' for Inactive)
REMARK    1  A    between atoms: C_2  and  SE_3
REMARK    2  A    between atoms: SE_3  and  C_4
REMARK    3  A    between atoms: C_7  and  N_8
REMARK    4  A    between atoms: C_9  and  O_11
REMARK    5  A    between atoms: O_11  and  C_12
REMARK                            x       y       z     vdW  Elec       q    Type
REMARK                         _______ _______ _______ _____ _____    ______ ____
ROOT
ATOM      1  N   UNL     1       5.932   6.822  17.869  0.00  0.00    +0.000 N 
ATOM      2  C   UNL     1       7.086   6.645  17.167  0.00  0.00    +0.000 C 
ATOM      3  O   UNL     1       7.788   7.616  16.916  0.00  0.00    +0.000 OA
ATOM      4  H   UNL     1       5.673   7.793  18.106  0.00  0.00    +0.000 HD
ENDROOT
BRANCH   1   8
ATOM      5  C   UNL     1       3.074   3.786  18.735  0.00  0.00    +0.000 A 
ATOM      6  C   UNL     1       4.322   3.750  19.362  0.00  0.00    +0.000 A 
ATOM      7  C   UNL     1       5.274   4.738  19.100  0.00  0.00    +0.000 A 
ATOM      8  C   UNL     1       4.992   5.788  18.195  0.00  0.00    +0.000 A 
ATOM      9  C   UNL     1       3.724   5.820  17.587  0.00  0.00    +0.000 A 
ATOM     10  C   UNL     1       2.776   4.824  17.849  0.00  0.00    +0.000 A 
BRANCH   5  11
ATOM     11 SE   UNL     1       1.780   2.403  19.070  0.00  0.00    +0.000 Se
BRANCH  11  13
ATOM     12  N   UNL     1       1.902   2.805  22.093  0.00  0.00    +0.000 NA
ATOM     13  C   UNL     1       1.860   2.656  20.946  0.00  0.00    +0.000 C 
ENDBRANCH  11  13
ENDBRANCH   5  11
ENDBRANCH   1   8
BRANCH   2  14
ATOM     14  O   UNL     1       7.418   5.429  16.668  0.00  0.00    +0.000 OA
BRANCH  14  15
ATOM     15  C   UNL     1       6.925   4.869  15.537  0.00  0.00    +0.000 A 
ATOM     16  C   UNL     1       5.910   3.889  15.557  0.00  0.00    +0.000 A 
ATOM     17  C   UNL     1       5.475   3.299  14.370  0.00  0.00    +0.000 A 
ATOM     18  C   UNL     1       6.044   3.675  13.150  0.00  0.00    +0.000 A 
ATOM     19 CL   UNL     1       5.505   2.914  11.665  0.00  0.00    +0.000 Cl
ATOM     20  C   UNL     1       7.048   4.647  13.118  0.00  0.00    +0.000 A 
ATOM     21  C   UNL     1       7.487   5.242  14.306  0.00  0.00    +0.000 A 
ENDBRANCH  14  15
ENDBRANCH   2  14
TORSDOF 5
ENDMDL
MODEL 3
REMARK VINA RESULT:      -6.8      0.167      1.538
REMARK  Name = 
REMARK  5 active torsions:
REMARK  status: ('A' for Active; 'I' for Inactive)
REMARK    1  A    between atoms: C_2  and  SE_3
REMARK    2  A    between atoms: SE_3  and  C_4
REMARK    3  A    between atoms: C_7  and  N_8
REMARK    4  A    between atoms: C_9  and  O_11
REMARK    5  A    between atoms: O_11  and  C_12
REMARK                            x       y       z     vdW  Elec       q    Type
REMARK                         _______ _______ _______ _____ _____    ______ ____
ROOT
ATOM      1  N   UNL     1       5.919   6.807  17.839  0.00  0.00    +0.000 N 
ATOM      2  C   UNL     1       7.097   6.637  17.178  0.00  0.00    +0.000 C 
ATOM      3  O   UNL     1       7.812   7.610  16.970  0.00  0.00    +0.000 OA
ATOM      4  H   UNL     1       5.655   7.775  18.084  0.00  0.00    +0.000 HD
ENDROOT
BRANCH   1   8
ATOM      5  C   UNL     1       3.148   3.706  18.756  0.00  0.00    +0.000 A 
ATOM      6  C   UNL     1       2.810   4.665  17.798  0.00  0.00    +0.000 A 
ATOM      7  C   UNL     1       3.704   5.688  17.475  0.00  0.00    +0.000 A 
ATOM      8  C   UNL     1       4.964   5.772  18.112  0.00  0.00    +0.000 A 
ATOM      9  C   UNL     1       5.296   4.787  19.062  0.00  0.00    +0.000 A 
ATOM     10  C   UNL     1       4.394   3.768  19.385  0.00  0.00    +0.000 A 
BRANCH   5  11
ATOM     11 SE   UNL     1       1.898   2.321  19.225  0.00  0.00    +0.000 Se
BRANCH  11  13
ATOM     12  N   UNL     1       2.054   2.979  22.201  0.00  0.00    +0.000 NA
ATOM     13  C   UNL     1       2.000   2.728  21.073  0.00  0.00    +0.000 C 
ENDBRANCH  11  13
ENDBRANCH   5  11
ENDBRANCH   1   8
BRANCH   2  14
ATOM     14  O   UNL     1       7.443   5.429  16.670  0.00  0.00    +0.000 OA
BRANCH  14  15
ATOM     15  C   UNL     1       6.956   4.871  15.534  0.00  0.00    +0.000 A 
ATOM     16  C   UNL     1       5.976   3.856  15.550  0.00  0.00    +0.000 A 
ATOM     17  C   UNL     1       5.548   3.271  14.357  0.00  0.00    +0.000 A 
ATOM     18  C   UNL     1       6.087   3.689  13.138  0.00  0.00    +0.000 A 
ATOM     19 CL   UNL     1       5.557   2.935  11.646  0.00  0.00    +0.000 Cl
ATOM     20  C   UNL     1       7.055   4.697  13.111  0.00  0.00    +0.000 A 
ATOM     21  C   UNL     1       7.487   5.287  14.304  0.00  0.00    +0.000 A 
ENDBRANCH  14  15
ENDBRANCH   2  14
TORSDOF 5
ENDMDL
MODEL 4
REMARK VINA RESULT:      -6.6      0.372      1.143
REMARK  Name = 
REMARK  5 active torsions:
REMARK  status: ('A' for Active; 'I' for Inactive)
REMARK    1  A    between atoms: C_2  and  SE_3
REMARK    2  A    between atoms: SE_3  and  C_4
REMARK    3  A    between atoms: C_7  and  N_8
REMARK    4  A    between atoms: C_9  and  O_11
REMARK    5  A    between atoms: O_11  and  C_12
REMARK                            x       y       z     vdW  Elec       q    Type
REMARK                         _______ _______ _______ _____ _____    ______ ____
ROOT
ATOM      1  N   UNL     1       5.987   6.984  17.800  0.00  0.00    +0.000 N 
ATOM      2  C   UNL     1       7.140   6.587  17.194  0.00  0.00    +0.000 C 
ATOM      3  O   UNL     1       8.001   7.421  16.942  0.00  0.00    +0.000 OA
ATOM      4  H   UNL     1       5.869   7.996  17.966  0.00  0.00    +0.000 HD
ENDROOT
BRANCH   1   8
ATOM      5  C   UNL     1       2.752   4.415  18.837  0.00  0.00    +0.000 A 
ATOM      6  C   UNL     1       2.573   5.370  17.832  0.00  0.00    +0.000 A 
ATOM      7  C   UNL     1       3.621   6.219  17.470  0.00  0.00    +0.000 A 
ATOM      8  C   UNL     1       4.877   6.130  18.113  0.00  0.00    +0.000 A 
ATOM      9  C   UNL     1       5.046   5.150  19.109  0.00  0.00    +0.000 A 
ATOM     10  C   UNL     1       3.992   4.305  19.471  0.00  0.00    +0.000 A 
BRANCH   5  11
ATOM     11 SE   UNL     1       1.295   3.273  19.359  0.00  0.00    +0.000 Se
BRANCH  11  13
ATOM     12  N   UNL     1       2.495   2.766  22.118  0.00  0.00    +0.000 NA
ATOM     13  C   UNL     1       2.040   2.952  21.071  0.00  0.00    +0.000 C 
ENDBRANCH  11  13
ENDBRANCH   5  11
ENDBRANCH   1   8
BRANCH   2  14
ATOM     14  O   UNL     1       7.307   5.306  16.786  0.00  0.00    +0.000 OA
BRANCH  14  15
ATOM     15  C   UNL     1       6.901   4.785  15.602  0.00  0.00    +0.000 A 
ATOM     16  C   UNL     1       7.490   5.150  14.373  0.00  0.00    +0.000 A 
ATOM     17  C   UNL     1       6.999   4.631  13.174  0.00  0.00    +0.000 A 
ATOM     18  C   UNL     1       5.919   3.744  13.183  0.00  0.00    +0.000 A 
ATOM     19 CL   UNL     1       5.297   3.111  11.671  0.00  0.00    +0.000 Cl
ATOM     20  C   UNL     1       5.331   3.373  14.396  0.00  0.00    +0.000 A 
ATOM     21  C   UNL     1       5.820   3.890  15.601  0.00  0.00    +0.000 A 
ENDBRANCH  14  15
ENDBRANCH   2  14
TORSDOF 5
ENDMDL
MODEL 5
REMARK VINA RESULT:      -6.4      2.988      3.990
REMARK  Name = 
REMARK  5 active torsions:
REMARK  status: ('A' for Active; 'I' for Inactive)
REMARK    1  A    between atoms: C_2  and  SE_3
REMARK    2  A    between atoms: SE_3  and  C_4
REMARK    3  A    between atoms: C_7  and  N_8
REMARK    4  A    between atoms: C_9  and  O_11
REMARK    5  A    between atoms: O_11  and  C_12
REMARK                            x       y       z     vdW  Elec       q    Type
REMARK                         _______ _______ _______ _____ _____    ______ ____
ROOT
ATOM      1  N   UNL     1       4.735   4.076  15.671  0.00  0.00    +0.000 N 
ATOM      2  C   UNL     1       6.091   4.052  15.536  0.00  0.00    +0.000 C 
ATOM      3  O   UNL     1       6.578   3.809  14.439  0.00  0.00    +0.000 OA
ATOM      4  H   UNL     1       4.177   3.824  14.840  0.00  0.00    +0.000 HD
ENDROOT
BRANCH   1   8
ATOM      5  C   UNL     1       2.612   4.864  19.278  0.00  0.00    +0.000 A 
ATOM      6  C   UNL     1       2.887   3.542  18.920  0.00  0.00    +0.000 A 
ATOM      7  C   UNL     1       3.587   3.258  17.746  0.00  0.00    +0.000 A 
ATOM      8  C   UNL     1       4.028   4.301  16.899  0.00  0.00    +0.000 A 
ATOM      9  C   UNL     1       3.760   5.628  17.284  0.00  0.00    +0.000 A 
ATOM     10  C   UNL     1       3.053   5.906  18.459  0.00  0.00    +0.000 A 
BRANCH   5  11
ATOM     11 SE   UNL     1       1.615   5.249  20.877  0.00  0.00    +0.000 Se
BRANCH  11  13
ATOM     12  N   UNL     1       2.189   2.498  22.067  0.00  0.00    +0.000 NA
ATOM     13  C   UNL     1       1.966   3.541  21.617  0.00  0.00    +0.000 C 
ENDBRANCH  11  13
ENDBRANCH   5  11
ENDBRANCH   1   8
BRANCH   2  14
ATOM     14  O   UNL     1       6.901   4.202  16.612  0.00  0.00    +0.000 OA
BRANCH  14  15
ATOM     15  C   UNL     1       7.270   5.378  17.175  0.00  0.00    +0.000 A 
ATOM     16  C   UNL     1       7.192   6.606  16.485  0.00  0.00    +0.000 A 
ATOM     17  C   UNL     1       7.638   7.783  17.087  0.00  0.00    +0.000 A 
ATOM     18  C   UNL     1       8.165   7.754  18.380  0.00  0.00    +0.000 A 
ATOM     19 CL   UNL     1       8.741   9.235  19.122  0.00  0.00    +0.000 Cl
ATOM     20  C   UNL     1       8.243   6.543  19.075  0.00  0.00    +0.000 A 
ATOM     21  C   UNL     1       7.797   5.360  18.476  0.00  0.00    +0.000 A 
ENDBRANCH  14  15
ENDBRANCH   2  14
TORSDOF 5
ENDMDL
MODEL 6
REMARK VINA RESULT:      -6.4      2.984      4.053
REMARK  Name = 
REMARK  5 active torsions:
REMARK  status: ('A' for Active; 'I' for Inactive)
REMARK    1  A    between atoms: C_2  and  SE_3
REMARK    2  A    between atoms: SE_3  and  C_4
REMARK    3  A    between atoms: C_7  and  N_8
REMARK    4  A    between atoms: C_9  and  O_11
REMARK    5  A    between atoms: O_11  and  C_12
REMARK                            x       y       z     vdW  Elec       q    Type
REMARK                         _______ _______ _______ _____ _____    ______ ____
ROOT
ATOM      1  N   UNL     1       4.715   4.073  15.700  0.00  0.00    +0.000 N 
ATOM      2  C   UNL     1       6.071   4.010  15.584  0.00  0.00    +0.000 C 
ATOM      3  O   UNL     1       6.567   3.777  14.489  0.00  0.00    +0.000 OA
ATOM      4  H   UNL     1       4.163   3.858  14.855  0.00  0.00    +0.000 HD
ENDROOT
BRANCH   1   8
ATOM      5  C   UNL     1       2.563   4.842  19.294  0.00  0.00    +0.000 A 
ATOM      6  C   UNL     1       2.776   3.520  18.893  0.00  0.00    +0.000 A 
ATOM      7  C   UNL     1       3.484   3.242  17.722  0.00  0.00    +0.000 A 
ATOM      8  C   UNL     1       3.996   4.291  16.922  0.00  0.00    +0.000 A 
ATOM      9  C   UNL     1       3.789   5.615  17.351  0.00  0.00    +0.000 A 
ATOM     10  C   UNL     1       3.074   5.888  18.522  0.00  0.00    +0.000 A 
BRANCH   5  11
ATOM     11 SE   UNL     1       1.555   5.221  20.887  0.00  0.00    +0.000 Se
BRANCH  11  13
ATOM     12  N   UNL     1       2.049   2.443  22.049  0.00  0.00    +0.000 NA
ATOM     13  C   UNL     1       1.865   3.495  21.604  0.00  0.00    +0.000 C 
ENDBRANCH  11  13
ENDBRANCH   5  11
ENDBRANCH   1   8
BRANCH   2  14
ATOM     14  O   UNL     1       6.868   4.110  16.675  0.00  0.00    +0.000 OA
BRANCH  14  15
ATOM     15  C   UNL     1       7.328   5.260  17.226  0.00  0.00    +0.000 A 
ATOM     16  C   UNL     1       7.829   5.321  18.543  0.00  0.00    +0.000 A 
ATOM     17  C   UNL     1       8.237   6.540  19.087  0.00  0.00    +0.000 A 
ATOM     18  C   UNL     1       8.154   7.710  18.328  0.00  0.00    +0.000 A 
ATOM     19 CL   UNL     1       8.652   9.240  19.025  0.00  0.00    +0.000 Cl
ATOM     20  C   UNL     1       7.663   7.660  17.020  0.00  0.00    +0.000 A 
ATOM     21  C   UNL     1       7.252   6.440  16.470  0.00  0.00    +0.000 A 
ENDBRANCH  14  15
ENDBRANCH   2  14
TORSDOF 5
ENDMDL
MODEL 7
REMARK VINA RESULT:      -6.3      0.935      1.299
REMARK  Name = 
REMARK  5 active torsions:
REMARK  status: ('A' for Active; 'I' for Inactive)
REMARK    1  A    between atoms: C_2  and  SE_3
REMARK    2  A    between atoms: SE_3  and  C_4
REMARK    3  A    between atoms: C_7  and  N_8
REMARK    4  A    between atoms: C_9  and  O_11
REMARK    5  A    between atoms: O_11  and  C_12
REMARK                            x       y       z     vdW  Elec       q    Type
REMARK                         _______ _______ _______ _____ _____    ______ ____
ROOT
ATOM      1  N   UNL     1       6.490   5.816  18.748  0.00  0.00    +0.000 N 
ATOM      2  C   UNL     1       6.985   6.403  17.623  0.00  0.00    +0.000 C 
ATOM      3  O   UNL     1       8.083   6.944  17.664  0.00  0.00    +0.000 OA
ATOM      4  H   UNL     1       7.050   5.910  19.611  0.00  0.00    +0.000 HD
ENDROOT
BRANCH   1   8
ATOM      5  C   UNL     1       2.734   3.843  19.113  0.00  0.00    +0.000 A 
ATOM      6  C   UNL     1       2.771   5.238  19.064  0.00  0.00    +0.000 A 
ATOM      7  C   UNL     1       3.990   5.908  18.938  0.00  0.00    +0.000 A 
ATOM      8  C   UNL     1       5.205   5.188  18.860  0.00  0.00    +0.000 A 
ATOM      9  C   UNL     1       5.147   3.782  18.891  0.00  0.00    +0.000 A 
ATOM     10  C   UNL     1       3.923   3.116  19.023  0.00  0.00    +0.000 A 
BRANCH   5  11
ATOM     11 SE   UNL     1       1.056   2.925  19.325  0.00  0.00    +0.000 Se
BRANCH  11  13
ATOM     12  N   UNL     1       1.480   2.515  22.318  0.00  0.00    +0.000 NA
ATOM     13  C   UNL     1       1.325   2.672  21.182  0.00  0.00    +0.000 C 
ENDBRANCH  11  13
ENDBRANCH   5  11
ENDBRANCH   1   8
BRANCH   2  14
ATOM     14  O   UNL     1       6.242   6.476  16.492  0.00  0.00    +0.000 OA
BRANCH  14  15
ATOM     15  C   UNL     1       6.252   5.584  15.471  0.00  0.00    +0.000 A 
ATOM     16  C   UNL     1       7.327   5.487  14.562  0.00  0.00    +0.000 A 
ATOM     17  C   UNL     1       7.267   4.594  13.492  0.00  0.00    +0.000 A 
ATOM     18  C   UNL     1       6.140   3.787  13.314  0.00  0.00    +0.000 A 
ATOM     19 CL   UNL     1       6.064   2.680  11.956  0.00  0.00    +0.000 Cl
ATOM     20  C   UNL     1       5.071   3.873  14.211  0.00  0.00    +0.000 A 
ATOM     21  C   UNL     1       5.127   4.767  15.286  0.00  0.00    +0.000 A 
ENDBRANCH  14  15
ENDBRANCH   2  14
TORSDOF 5
ENDMDL
MODEL 8
REMARK VINA RESULT:      -6.2      4.675      6.959
REMARK  Name = 
REMARK  5 active torsions:
REMARK  status: ('A' for Active; 'I' for Inactive)
REMARK    1  A    between atoms: C_2  and  SE_3
REMARK    2  A    between atoms: SE_3  and  C_4
REMARK    3  A    between atoms: C_7  and  N_8
REMARK    4  A    between atoms: C_9  and  O_11
REMARK    5  A    between atoms: O_11  and  C_12
REMARK                            x       y       z     vdW  Elec       q    Type
REMARK                         _______ _______ _______ _____ _____    ______ ____
ROOT
ATOM      1  N   UNL     1       2.750   3.904  19.334  0.00  0.00    +0.000 N 
ATOM      2  C   UNL     1       2.268   4.819  20.221  0.00  0.00    +0.000 C 
ATOM      3  O   UNL     1       1.298   4.531  20.910  0.00  0.00    +0.000 OA
ATOM      4  H   UNL     1       2.225   3.019  19.243  0.00  0.00    +0.000 HD
ENDROOT
BRANCH   1   8
ATOM      5  C   UNL     1       5.922   4.560  16.570  0.00  0.00    +0.000 A 
ATOM      6  C   UNL     1       6.196   4.567  17.940  0.00  0.00    +0.000 A 
ATOM      7  C   UNL     1       5.174   4.348  18.866  0.00  0.00    +0.000 A 
ATOM      8  C   UNL     1       3.847   4.117  18.434  0.00  0.00    +0.000 A 
ATOM      9  C   UNL     1       3.592   4.095  17.050  0.00  0.00    +0.000 A 
ATOM     10  C   UNL     1       4.619   4.320  16.128  0.00  0.00    +0.000 A 
BRANCH   5  11
ATOM     11 SE   UNL     1       7.325   4.900  15.299  0.00  0.00    +0.000 Se
BRANCH  11  13
ATOM     12  N   UNL     1       5.796   3.558  13.025  0.00  0.00    +0.000 NA
ATOM     13  C   UNL     1       6.377   4.062  13.889  0.00  0.00    +0.000 C 
ENDBRANCH  11  13
ENDBRANCH   5  11
ENDBRANCH   1   8
BRANCH   2  14
ATOM     14  O   UNL     1       2.791   6.068  20.285  0.00  0.00    +0.000 OA
BRANCH  14  15
ATOM     15  C   UNL     1       2.197   7.205  19.848  0.00  0.00    +0.000 A 
ATOM     16  C   UNL     1       2.339   7.674  18.525  0.00  0.00    +0.000 A 
ATOM     17  C   UNL     1       1.756   8.881  18.137  0.00  0.00    +0.000 A 
ATOM     18  C   UNL     1       1.025   9.635  19.059  0.00  0.00    +0.000 A 
ATOM     19 CL   UNL     1       0.312  11.160  18.569  0.00  0.00    +0.000 Cl
ATOM     20  C   UNL     1       0.874   9.178  20.372  0.00  0.00    +0.000 A 
ATOM     21  C   UNL     1       1.457   7.967  20.765  0.00  0.00    +0.000 A 
ENDBRANCH  14  15
ENDBRANCH   2  14
TORSDOF 5
ENDMDL
MODEL 9
REMARK VINA RESULT:      -6.2      4.585      6.978
REMARK  Name = 
REMARK  5 active torsions:
REMARK  status: ('A' for Active; 'I' for Inactive)
REMARK    1  A    between atoms: C_2  and  SE_3
REMARK    2  A    between atoms: SE_3  and  C_4
REMARK    3  A    between atoms: C_7  and  N_8
REMARK    4  A    between atoms: C_9  and  O_11
REMARK    5  A    between atoms: O_11  and  C_12
REMARK                            x       y       z     vdW  Elec       q    Type
REMARK                         _______ _______ _______ _____ _____    ______ ____
ROOT
ATOM      1  N   UNL     1       2.361   3.598  19.158  0.00  0.00    +0.000 N 
ATOM      2  C   UNL     1       1.887   4.376  20.170  0.00  0.00    +0.000 C 
ATOM      3  O   UNL     1       0.845   4.060  20.730  0.00  0.00    +0.000 OA
ATOM      4  H   UNL     1       1.776   2.797  18.869  0.00  0.00    +0.000 HD
ENDROOT
BRANCH   1   8
ATOM      5  C   UNL     1       5.782   4.427  16.761  0.00  0.00    +0.000 A 
ATOM      6  C   UNL     1       5.916   4.377  18.150  0.00  0.00    +0.000 A 
ATOM      7  C   UNL     1       4.811   4.100  18.958  0.00  0.00    +0.000 A 
ATOM      8  C   UNL     1       3.539   3.869  18.384  0.00  0.00    +0.000 A 
ATOM      9  C   UNL     1       3.426   3.904  16.982  0.00  0.00    +0.000 A 
ATOM     10  C   UNL     1       4.535   4.187  16.178  0.00  0.00    +0.000 A 
BRANCH   5  11
ATOM     11 SE   UNL     1       7.299   4.846  15.655  0.00  0.00    +0.000 Se
BRANCH  11  13
ATOM     12  N   UNL     1       5.997   3.657  13.165  0.00  0.00    +0.000 NA
ATOM     13  C   UNL     1       6.490   4.113  14.107  0.00  0.00    +0.000 C 
ENDBRANCH  11  13
ENDBRANCH   5  11
ENDBRANCH   1   8
BRANCH   2  14
ATOM     14  O   UNL     1       2.501   5.538  20.500  0.00  0.00    +0.000 OA
BRANCH  14  15
ATOM     15  C   UNL     1       2.132   6.779  20.097  0.00  0.00    +0.000 A 
ATOM     16  C   UNL     1       1.408   7.660  20.928  0.00  0.00    +0.000 A 
ATOM     17  C   UNL     1       1.000   8.905  20.449  0.00  0.00    +0.000 A 
ATOM     18  C   UNL     1       1.308   9.290  19.141  0.00  0.00    +0.000 A 
ATOM     19 CL   UNL     1       0.776  10.850  18.542  0.00  0.00    +0.000 Cl
ATOM     20  C   UNL     1       2.029   8.426  18.312  0.00  0.00    +0.000 A 
ATOM     21  C   UNL     1       2.441   7.176  18.788  0.00  0.00    +0.000 A 
ENDBRANCH  14  15
ENDBRANCH   2  14
TORSDOF 5
ENDMDL
