MODEL 1
REMARK VINA RESULT:      -8.3      0.000      0.000
REMARK  Name = 
REMARK  7 active torsions:
REMARK  status: ('A' for Active; 'I' for Inactive)
REMARK    1  A    between atoms: C_1  and  C_2
REMARK    2  A    between atoms: C_2  and  O_3
REMARK    3  A    between atoms: O_3  and  C_4
REMARK    4  A    between atoms: C_4  and  C_6
REMARK    5  A    between atoms: C_7  and  C_8
REMARK    6  A    between atoms: N_16  and  C_17
REMARK    7  A    between atoms: C_22  and  C_23
REMARK                            x       y       z     vdW  Elec       q    Type
REMARK                         _______ _______ _______ _____ _____    ______ ____
ROOT
ATOM      1  C   UNL     1       4.025   4.997  18.298  0.00  0.00    +0.000 A 
ATOM      2  C   UNL     1       4.585   5.579  17.122  0.00  0.00    +0.000 A 
ATOM      3  N   UNL     1       4.102   6.831  16.939  0.00  0.00    +0.000 NA
ATOM      4  N   UNL     1       3.280   7.044  18.001  0.00  0.00    +0.000 N 
ATOM      5  C   UNL     1       2.542   8.222  18.189  0.00  0.00    +0.000 A 
ATOM      6  O   UNL     1       2.607   9.122  17.366  0.00  0.00    +0.000 OA
ATOM      7  N   UNL     1       1.827   8.157  19.393  0.00  0.00    +0.000 N 
ATOM      8  N   UNL     1       1.873   7.087  20.262  0.00  0.00    +0.000 NA
ATOM      9  N   UNL     1       2.517   6.058  19.984  0.00  0.00    +0.000 NA
ATOM     10  C   UNL     1       3.239   5.986  18.852  0.00  0.00    +0.000 A 
ENDROOT
BRANCH   7  11
ATOM     11  C   UNL     1       0.907   9.172  19.821  0.00  0.00    +0.000 A 
ATOM     12  C   UNL     1       0.875   9.623  21.141  0.00  0.00    +0.000 A 
ATOM     13  C   UNL     1       0.037  10.676  21.518  0.00  0.00    +0.000 A 
ATOM     14  C   UNL     1      -0.821  11.284  20.597  0.00  0.00    +0.000 A 
ATOM     15 CL   UNL     1      -1.779  12.588  21.190  0.00  0.00    +0.000 Cl
ATOM     16  C   UNL     1      -0.857  10.837  19.276  0.00  0.00    +0.000 A 
ATOM     17  C   UNL     1       0.031   9.792  18.902  0.00  0.00    +0.000 A 
BRANCH  16  18
ATOM     18  C   UNL     1      -1.786  11.383  18.219  0.00  0.00    +0.000 C 
ATOM     19  F   UNL     1      -3.094  11.506  18.564  0.00  0.00    +0.000 F 
ATOM     20  F   UNL     1      -1.403  12.621  17.797  0.00  0.00    +0.000 F 
ATOM     21  F   UNL     1      -1.781  10.603  17.099  0.00  0.00    +0.000 F 
ENDBRANCH  16  18
ENDBRANCH   7  11
BRANCH   2  22
ATOM     22  C   UNL     1       5.542   4.943  16.131  0.00  0.00    +0.000 C 
ATOM     23  F   UNL     1       5.077   3.790  15.589  0.00  0.00    +0.000 F 
ATOM     24  F   UNL     1       5.797   5.765  15.079  0.00  0.00    +0.000 F 
ATOM     25  F   UNL     1       6.737   4.646  16.705  0.00  0.00    +0.000 F 
ENDBRANCH   2  22
BRANCH   1  26
ATOM     26  C   UNL     1       4.170   3.660  18.820  0.00  0.00    +0.000 C 
ATOM     27  O   UNL     1       5.096   3.306  19.533  0.00  0.00    +0.000 OA
BRANCH  26  28
ATOM     28  O   UNL     1       3.228   2.831  18.295  0.00  0.00    +0.000 OA
BRANCH  28  30
ATOM     29  C   UNL     1       0.917   2.738  18.851  0.00  0.00    +0.000 C 
ATOM     30  C   UNL     1       2.310   2.273  19.240  0.00  0.00    +0.000 C 
ENDBRANCH  28  30
ENDBRANCH  26  28
ENDBRANCH   1  26
TORSDOF 6
ENDMDL
MODEL 2
REMARK VINA RESULT:      -8.3      1.786      2.371
REMARK  Name = 
REMARK  7 active torsions:
REMARK  status: ('A' for Active; 'I' for Inactive)
REMARK    1  A    between atoms: C_1  and  C_2
REMARK    2  A    between atoms: C_2  and  O_3
REMARK    3  A    between atoms: O_3  and  C_4
REMARK    4  A    between atoms: C_4  and  C_6
REMARK    5  A    between atoms: C_7  and  C_8
REMARK    6  A    between atoms: N_16  and  C_17
REMARK    7  A    between atoms: C_22  and  C_23
REMARK                            x       y       z     vdW  Elec       q    Type
REMARK                         _______ _______ _______ _____ _____    ______ ____
ROOT
ATOM      1  C   UNL     1       4.083   5.047  18.410  0.00  0.00    +0.000 A 
ATOM      2  C   UNL     1       4.679   5.561  17.220  0.00  0.00    +0.000 A 
ATOM      3  N   UNL     1       4.191   6.795  16.944  0.00  0.00    +0.000 NA
ATOM      4  N   UNL     1       3.330   7.063  17.961  0.00  0.00    +0.000 N 
ATOM      5  C   UNL     1       2.575   8.242  18.051  0.00  0.00    +0.000 A 
ATOM      6  O   UNL     1       2.660   9.090  17.177  0.00  0.00    +0.000 OA
ATOM      7  N   UNL     1       1.819   8.242  19.230  0.00  0.00    +0.000 N 
ATOM      8  N   UNL     1       1.844   7.228  20.165  0.00  0.00    +0.000 NA
ATOM      9  N   UNL     1       2.507   6.192  19.973  0.00  0.00    +0.000 NA
ATOM     10  C   UNL     1       3.270   6.059  18.874  0.00  0.00    +0.000 A 
ENDROOT
BRANCH   7  11
ATOM     11  C   UNL     1       0.874   9.271  19.564  0.00  0.00    +0.000 A 
ATOM     12  C   UNL     1       0.218  10.011  18.580  0.00  0.00    +0.000 A 
ATOM     13  C   UNL     1      -0.765  10.944  18.921  0.00  0.00    +0.000 A 
ATOM     14  C   UNL     1      -1.094  11.192  20.257  0.00  0.00    +0.000 A 
ATOM     15 CL   UNL     1      -2.343  12.347  20.533  0.00  0.00    +0.000 Cl
ATOM     16  C   UNL     1      -0.433  10.509  21.277  0.00  0.00    +0.000 A 
ATOM     17  C   UNL     1       0.535   9.537  20.910  0.00  0.00    +0.000 A 
BRANCH  16  18
ATOM     18  C   UNL     1      -0.670  10.745  22.749  0.00  0.00    +0.000 C 
ATOM     19  F   UNL     1      -1.922  10.495  23.211  0.00  0.00    +0.000 F 
ATOM     20  F   UNL     1       0.161   9.991  23.524  0.00  0.00    +0.000 F 
ATOM     21  F   UNL     1      -0.410  12.039  23.097  0.00  0.00    +0.000 F 
ENDBRANCH  16  18
ENDBRANCH   7  11
BRANCH   2  22
ATOM     22  C   UNL     1       5.676   4.878  16.303  0.00  0.00    +0.000 C 
ATOM     23  F   UNL     1       6.886   4.664  16.878  0.00  0.00    +0.000 F 
ATOM     24  F   UNL     1       5.239   3.653  15.907  0.00  0.00    +0.000 F 
ATOM     25  F   UNL     1       5.906   5.604  15.179  0.00  0.00    +0.000 F 
ENDBRANCH   2  22
BRANCH   1  26
ATOM     26  C   UNL     1       4.223   3.746  19.017  0.00  0.00    +0.000 C 
ATOM     27  O   UNL     1       5.206   3.395  19.652  0.00  0.00    +0.000 OA
BRANCH  26  28
ATOM     28  O   UNL     1       3.190   2.934  18.666  0.00  0.00    +0.000 OA
BRANCH  28  30
ATOM     29  C   UNL     1       0.895   2.807  19.281  0.00  0.00    +0.000 C 
ATOM     30  C   UNL     1       2.321   2.552  19.737  0.00  0.00    +0.000 C 
ENDBRANCH  28  30
ENDBRANCH  26  28
ENDBRANCH   1  26
TORSDOF 6
ENDMDL
MODEL 3
REMARK VINA RESULT:      -8.2      0.717      1.013
REMARK  Name = 
REMARK  7 active torsions:
REMARK  status: ('A' for Active; 'I' for Inactive)
REMARK    1  A    between atoms: C_1  and  C_2
REMARK    2  A    between atoms: C_2  and  O_3
REMARK    3  A    between atoms: O_3  and  C_4
REMARK    4  A    between atoms: C_4  and  C_6
REMARK    5  A    between atoms: C_7  and  C_8
REMARK    6  A    between atoms: N_16  and  C_17
REMARK    7  A    between atoms: C_22  and  C_23
REMARK                            x       y       z     vdW  Elec       q    Type
REMARK                         _______ _______ _______ _____ _____    ______ ____
ROOT
ATOM      1  C   UNL     1       3.926   5.292  18.552  0.00  0.00    +0.000 A 
ATOM      2  C   UNL     1       4.440   5.773  17.311  0.00  0.00    +0.000 A 
ATOM      3  N   UNL     1       3.917   6.989  17.024  0.00  0.00    +0.000 NA
ATOM      4  N   UNL     1       3.116   7.281  18.082  0.00  0.00    +0.000 N 
ATOM      5  C   UNL     1       2.350   8.452  18.177  0.00  0.00    +0.000 A 
ATOM      6  O   UNL     1       2.368   9.270  17.272  0.00  0.00    +0.000 OA
ATOM      7  N   UNL     1       1.666   8.484  19.401  0.00  0.00    +0.000 N 
ATOM      8  N   UNL     1       1.764   7.503  20.366  0.00  0.00    +0.000 NA
ATOM      9  N   UNL     1       2.430   6.470  20.170  0.00  0.00    +0.000 NA
ATOM     10  C   UNL     1       3.126   6.309  19.031  0.00  0.00    +0.000 A 
ENDROOT
BRANCH   7  11
ATOM     11  C   UNL     1       0.728   9.511  19.756  0.00  0.00    +0.000 A 
ATOM     12  C   UNL     1       0.864  10.255  20.928  0.00  0.00    +0.000 A 
ATOM     13  C   UNL     1      -0.006  11.312  21.210  0.00  0.00    +0.000 A 
ATOM     14  C   UNL     1      -1.060  11.632  20.349  0.00  0.00    +0.000 A 
ATOM     15 CL   UNL     1      -2.037  12.975  20.806  0.00  0.00    +0.000 Cl
ATOM     16  C   UNL     1      -1.262  10.888  19.187  0.00  0.00    +0.000 A 
ATOM     17  C   UNL     1      -0.345   9.842  18.897  0.00  0.00    +0.000 A 
BRANCH  16  18
ATOM     18  C   UNL     1      -2.401  11.112  18.223  0.00  0.00    +0.000 C 
ATOM     19  F   UNL     1      -2.244  12.113  17.319  0.00  0.00    +0.000 F 
ATOM     20  F   UNL     1      -2.671   9.996  17.487  0.00  0.00    +0.000 F 
ATOM     21  F   UNL     1      -3.563  11.399  18.880  0.00  0.00    +0.000 F 
ENDBRANCH  16  18
ENDBRANCH   7  11
BRANCH   2  22
ATOM     22  C   UNL     1       5.390   5.071  16.359  0.00  0.00    +0.000 C 
ATOM     23  F   UNL     1       4.959   3.847  15.964  0.00  0.00    +0.000 F 
ATOM     24  F   UNL     1       5.574   5.781  15.215  0.00  0.00    +0.000 F 
ATOM     25  F   UNL     1       6.615   4.886  16.917  0.00  0.00    +0.000 F 
ENDBRANCH   2  22
BRANCH   1  26
ATOM     26  C   UNL     1       4.123   4.016  19.194  0.00  0.00    +0.000 C 
ATOM     27  O   UNL     1       5.219   3.562  19.484  0.00  0.00    +0.000 OA
BRANCH  26  28
ATOM     28  O   UNL     1       2.947   3.338  19.294  0.00  0.00    +0.000 OA
BRANCH  28  30
ATOM     29  C   UNL     1       1.240   3.089  20.933  0.00  0.00    +0.000 C 
ATOM     30  C   UNL     1       2.680   2.763  20.578  0.00  0.00    +0.000 C 
ENDBRANCH  28  30
ENDBRANCH  26  28
ENDBRANCH   1  26
TORSDOF 6
ENDMDL
MODEL 4
REMARK VINA RESULT:      -8.2      3.647      8.540
REMARK  Name = 
REMARK  7 active torsions:
REMARK  status: ('A' for Active; 'I' for Inactive)
REMARK    1  A    between atoms: C_1  and  C_2
REMARK    2  A    between atoms: C_2  and  O_3
REMARK    3  A    between atoms: O_3  and  C_4
REMARK    4  A    between atoms: C_4  and  C_6
REMARK    5  A    between atoms: C_7  and  C_8
REMARK    6  A    between atoms: N_16  and  C_17
REMARK    7  A    between atoms: C_22  and  C_23
REMARK                            x       y       z     vdW  Elec       q    Type
REMARK                         _______ _______ _______ _____ _____    ______ ____
ROOT
ATOM      1  C   UNL     1      -0.511  11.170  19.968  0.00  0.00    +0.000 A 
ATOM      2  C   UNL     1      -0.522  10.818  21.351  0.00  0.00    +0.000 A 
ATOM      3  N   UNL     1       0.224   9.707  21.560  0.00  0.00    +0.000 NA
ATOM      4  N   UNL     1       0.721   9.387  20.337  0.00  0.00    +0.000 N 
ATOM      5  C   UNL     1       1.534   8.269  20.095  0.00  0.00    +0.000 A 
ATOM      6  O   UNL     1       1.818   7.512  21.009  0.00  0.00    +0.000 OA
ATOM      7  N   UNL     1       1.920   8.235  18.748  0.00  0.00    +0.000 N 
ATOM      8  N   UNL     1       1.559   9.185  17.816  0.00  0.00    +0.000 NA
ATOM      9  N   UNL     1       0.788  10.118  18.112  0.00  0.00    +0.000 NA
ATOM     10  C   UNL     1       0.335  10.260  19.370  0.00  0.00    +0.000 A 
ENDROOT
BRANCH   7  11
ATOM     11  C   UNL     1       2.680   7.162  18.171  0.00  0.00    +0.000 A 
ATOM     12  C   UNL     1       3.884   7.391  17.506  0.00  0.00    +0.000 A 
ATOM     13  C   UNL     1       4.654   6.325  17.032  0.00  0.00    +0.000 A 
ATOM     14  C   UNL     1       4.226   5.002  17.174  0.00  0.00    +0.000 A 
ATOM     15 CL   UNL     1       5.286   3.787  16.568  0.00  0.00    +0.000 Cl
ATOM     16  C   UNL     1       3.006   4.727  17.792  0.00  0.00    +0.000 A 
ATOM     17  C   UNL     1       2.256   5.820  18.303  0.00  0.00    +0.000 A 
BRANCH  16  18
ATOM     18  C   UNL     1       2.424   3.342  17.943  0.00  0.00    +0.000 C 
ATOM     19  F   UNL     1       2.363   2.582  16.819  0.00  0.00    +0.000 F 
ATOM     20  F   UNL     1       3.117   2.596  18.850  0.00  0.00    +0.000 F 
ATOM     21  F   UNL     1       1.145   3.387  18.417  0.00  0.00    +0.000 F 
ENDBRANCH  16  18
ENDBRANCH   7  11
BRANCH   2  22
ATOM     22  C   UNL     1      -1.274  11.495  22.481  0.00  0.00    +0.000 C 
ATOM     23  F   UNL     1      -2.523  11.899  22.137  0.00  0.00    +0.000 F 
ATOM     24  F   UNL     1      -1.438  10.666  23.545  0.00  0.00    +0.000 F 
ATOM     25  F   UNL     1      -0.621  12.599  22.929  0.00  0.00    +0.000 F 
ENDBRANCH   2  22
BRANCH   1  26
ATOM     26  C   UNL     1      -1.241  12.206  19.279  0.00  0.00    +0.000 C 
ATOM     27  O   UNL     1      -0.833  13.349  19.144  0.00  0.00    +0.000 OA
BRANCH  26  28
ATOM     28  O   UNL     1      -2.485  11.775  18.936  0.00  0.00    +0.000 OA
BRANCH  28  30
ATOM     29  C   UNL     1      -2.985   9.963  17.478  0.00  0.00    +0.000 C 
ATOM     30  C   UNL     1      -2.658  11.444  17.554  0.00  0.00    +0.000 C 
ENDBRANCH  28  30
ENDBRANCH  26  28
ENDBRANCH   1  26
TORSDOF 6
ENDMDL
MODEL 5
REMARK VINA RESULT:      -8.2      1.857      2.418
REMARK  Name = 
REMARK  7 active torsions:
REMARK  status: ('A' for Active; 'I' for Inactive)
REMARK    1  A    between atoms: C_1  and  C_2
REMARK    2  A    between atoms: C_2  and  O_3
REMARK    3  A    between atoms: O_3  and  C_4
REMARK    4  A    between atoms: C_4  and  C_6
REMARK    5  A    between atoms: C_7  and  C_8
REMARK    6  A    between atoms: N_16  and  C_17
REMARK    7  A    between atoms: C_22  and  C_23
REMARK                            x       y       z     vdW  Elec       q    Type
REMARK                         _______ _______ _______ _____ _____    ______ ____
ROOT
ATOM      1  C   UNL     1       3.783   5.411  18.541  0.00  0.00    +0.000 A 
ATOM      2  C   UNL     1       4.356   5.889  17.325  0.00  0.00    +0.000 A 
ATOM      3  N   UNL     1       3.864   7.114  17.020  0.00  0.00    +0.000 NA
ATOM      4  N   UNL     1       3.022   7.413  18.045  0.00  0.00    +0.000 N 
ATOM      5  C   UNL     1       2.270   8.596  18.113  0.00  0.00    +0.000 A 
ATOM      6  O   UNL     1       2.339   9.416  17.212  0.00  0.00    +0.000 OA
ATOM      7  N   UNL     1       1.536   8.633  19.306  0.00  0.00    +0.000 N 
ATOM      8  N   UNL     1       1.579   7.647  20.271  0.00  0.00    +0.000 NA
ATOM      9  N   UNL     1       2.238   6.605  20.098  0.00  0.00    +0.000 NA
ATOM     10  C   UNL     1       2.979   6.438  18.989  0.00  0.00    +0.000 A 
ENDROOT
BRANCH   7  11
ATOM     11  C   UNL     1       0.599   9.672  19.626  0.00  0.00    +0.000 A 
ATOM     12  C   UNL     1      -0.053  10.402  18.632  0.00  0.00    +0.000 A 
ATOM     13  C   UNL     1      -1.030  11.347  18.962  0.00  0.00    +0.000 A 
ATOM     14  C   UNL     1      -1.357  11.616  20.294  0.00  0.00    +0.000 A 
ATOM     15 CL   UNL     1      -2.598  12.782  20.555  0.00  0.00    +0.000 Cl
ATOM     16  C   UNL     1      -0.700  10.942  21.323  0.00  0.00    +0.000 A 
ATOM     17  C   UNL     1       0.262   9.958  20.968  0.00  0.00    +0.000 A 
BRANCH  16  18
ATOM     18  C   UNL     1      -0.934  11.199  22.792  0.00  0.00    +0.000 C 
ATOM     19  F   UNL     1      -0.283  10.386  23.663  0.00  0.00    +0.000 F 
ATOM     20  F   UNL     1      -0.585  12.468  23.148  0.00  0.00    +0.000 F 
ATOM     21  F   UNL     1      -2.256  11.086  23.114  0.00  0.00    +0.000 F 
ENDBRANCH  16  18
ENDBRANCH   7  11
BRANCH   2  22
ATOM     22  C   UNL     1       5.336   5.176  16.411  0.00  0.00    +0.000 C 
ATOM     23  F   UNL     1       5.689   5.902  15.321  0.00  0.00    +0.000 F 
ATOM     24  F   UNL     1       6.499   4.885  17.049  0.00  0.00    +0.000 F 
ATOM     25  F   UNL     1       4.829   4.005  15.947  0.00  0.00    +0.000 F 
ENDBRANCH   2  22
BRANCH   1  26
ATOM     26  C   UNL     1       3.934   4.130  19.185  0.00  0.00    +0.000 C 
ATOM     27  O   UNL     1       4.996   3.704  19.612  0.00  0.00    +0.000 OA
BRANCH  26  28
ATOM     28  O   UNL     1       2.778   3.416  19.119  0.00  0.00    +0.000 OA
BRANCH  28  30
ATOM     29  C   UNL     1       1.537   3.218  21.140  0.00  0.00    +0.000 C 
ATOM     30  C   UNL     1       2.538   2.536  20.222  0.00  0.00    +0.000 C 
ENDBRANCH  28  30
ENDBRANCH  26  28
ENDBRANCH   1  26
TORSDOF 6
ENDMDL
MODEL 6
REMARK VINA RESULT:      -8.1      1.980      2.535
REMARK  Name = 
REMARK  7 active torsions:
REMARK  status: ('A' for Active; 'I' for Inactive)
REMARK    1  A    between atoms: C_1  and  C_2
REMARK    2  A    between atoms: C_2  and  O_3
REMARK    3  A    between atoms: O_3  and  C_4
REMARK    4  A    between atoms: C_4  and  C_6
REMARK    5  A    between atoms: C_7  and  C_8
REMARK    6  A    between atoms: N_16  and  C_17
REMARK    7  A    between atoms: C_22  and  C_23
REMARK                            x       y       z     vdW  Elec       q    Type
REMARK                         _______ _______ _______ _____ _____    ______ ____
ROOT
ATOM      1  C   UNL     1       3.485   5.737  18.725  0.00  0.00    +0.000 A 
ATOM      2  C   UNL     1       4.047   6.181  17.491  0.00  0.00    +0.000 A 
ATOM      3  N   UNL     1       3.568   7.407  17.169  0.00  0.00    +0.000 NA
ATOM      4  N   UNL     1       2.747   7.740  18.200  0.00  0.00    +0.000 N 
ATOM      5  C   UNL     1       2.013   8.935  18.255  0.00  0.00    +0.000 A 
ATOM      6  O   UNL     1       2.081   9.736  17.337  0.00  0.00    +0.000 OA
ATOM      7  N   UNL     1       1.298   9.007  19.458  0.00  0.00    +0.000 N 
ATOM      8  N   UNL     1       1.341   8.040  20.442  0.00  0.00    +0.000 NA
ATOM      9  N   UNL     1       1.981   6.985  20.281  0.00  0.00    +0.000 NA
ATOM     10  C   UNL     1       2.703   6.784  19.164  0.00  0.00    +0.000 A 
ENDROOT
BRANCH   7  11
ATOM     11  C   UNL     1       0.381  10.067  19.771  0.00  0.00    +0.000 A 
ATOM     12  C   UNL     1      -0.161  10.883  18.778  0.00  0.00    +0.000 A 
ATOM     13  C   UNL     1      -1.121  11.849  19.091  0.00  0.00    +0.000 A 
ATOM     14  C   UNL     1      -1.541  12.053  20.409  0.00  0.00    +0.000 A 
ATOM     15 CL   UNL     1      -2.750  13.257  20.648  0.00  0.00    +0.000 Cl
ATOM     16  C   UNL     1      -0.994  11.291  21.441  0.00  0.00    +0.000 A 
ATOM     17  C   UNL     1      -0.048  10.287  21.099  0.00  0.00    +0.000 A 
BRANCH  16  18
ATOM     18  C   UNL     1      -1.332  11.470  22.901  0.00  0.00    +0.000 C 
ATOM     19  F   UNL     1      -2.650  11.457  23.226  0.00  0.00    +0.000 F 
ATOM     20  F   UNL     1      -0.756  10.509  23.678  0.00  0.00    +0.000 F 
ATOM     21  F   UNL     1      -0.855  12.656  23.382  0.00  0.00    +0.000 F 
ENDBRANCH  16  18
ENDBRANCH   7  11
BRANCH   2  22
ATOM     22  C   UNL     1       5.001   5.436  16.577  0.00  0.00    +0.000 C 
ATOM     23  F   UNL     1       6.203   5.170  17.147  0.00  0.00    +0.000 F 
ATOM     24  F   UNL     1       4.500   4.229  16.202  0.00  0.00    +0.000 F 
ATOM     25  F   UNL     1       5.257   6.134  15.441  0.00  0.00    +0.000 F 
ENDBRANCH   2  22
BRANCH   1  26
ATOM     26  C   UNL     1       3.626   4.466  19.392  0.00  0.00    +0.000 C 
ATOM     27  O   UNL     1       4.702   3.965  19.680  0.00  0.00    +0.000 OA
BRANCH  26  28
ATOM     28  O   UNL     1       2.420   3.851  19.522  0.00  0.00    +0.000 OA
BRANCH  28  30
ATOM     29  C   UNL     1       0.833   2.248  18.764  0.00  0.00    +0.000 C 
ATOM     30  C   UNL     1       1.932   3.207  18.340  0.00  0.00    +0.000 C 
ENDBRANCH  28  30
ENDBRANCH  26  28
ENDBRANCH   1  26
TORSDOF 6
ENDMDL
MODEL 7
REMARK VINA RESULT:      -8.1      2.199      3.273
REMARK  Name = 
REMARK  7 active torsions:
REMARK  status: ('A' for Active; 'I' for Inactive)
REMARK    1  A    between atoms: C_1  and  C_2
REMARK    2  A    between atoms: C_2  and  O_3
REMARK    3  A    between atoms: O_3  and  C_4
REMARK    4  A    between atoms: C_4  and  C_6
REMARK    5  A    between atoms: C_7  and  C_8
REMARK    6  A    between atoms: N_16  and  C_17
REMARK    7  A    between atoms: C_22  and  C_23
REMARK                            x       y       z     vdW  Elec       q    Type
REMARK                         _______ _______ _______ _____ _____    ______ ____
ROOT
ATOM      1  C   UNL     1       4.201   6.336  17.604  0.00  0.00    +0.000 A 
ATOM      2  C   UNL     1       4.105   5.445  18.714  0.00  0.00    +0.000 A 
ATOM      3  N   UNL     1       3.204   5.908  19.614  0.00  0.00    +0.000 NA
ATOM      4  N   UNL     1       2.719   7.051  19.061  0.00  0.00    +0.000 N 
ATOM      5  C   UNL     1       1.770   7.875  19.685  0.00  0.00    +0.000 A 
ATOM      6  O   UNL     1       1.346   7.587  20.793  0.00  0.00    +0.000 OA
ATOM      7  N   UNL     1       1.439   8.950  18.849  0.00  0.00    +0.000 N 
ATOM      8  N   UNL     1       1.968   9.140  17.589  0.00  0.00    +0.000 NA
ATOM      9  N   UNL     1       2.847   8.382  17.138  0.00  0.00    +0.000 NA
ATOM     10  C   UNL     1       3.263   7.317  17.845  0.00  0.00    +0.000 A 
ENDROOT
BRANCH   7  11
ATOM     11  C   UNL     1       0.563  10.017  19.243  0.00  0.00    +0.000 A 
ATOM     12  C   UNL     1       0.956  10.984  20.169  0.00  0.00    +0.000 A 
ATOM     13  C   UNL     1       0.124  12.066  20.470  0.00  0.00    +0.000 A 
ATOM     14  C   UNL     1      -1.139  12.194  19.884  0.00  0.00    +0.000 A 
ATOM     15 CL   UNL     1      -2.047  13.591  20.324  0.00  0.00    +0.000 Cl
ATOM     16  C   UNL     1      -1.592  11.228  18.986  0.00  0.00    +0.000 A 
ATOM     17  C   UNL     1      -0.718  10.156  18.662  0.00  0.00    +0.000 A 
BRANCH  16  18
ATOM     18  C   UNL     1      -2.958  11.240  18.344  0.00  0.00    +0.000 C 
ATOM     19  F   UNL     1      -3.975  11.746  19.088  0.00  0.00    +0.000 F 
ATOM     20  F   UNL     1      -2.968  11.952  17.182  0.00  0.00    +0.000 F 
ATOM     21  F   UNL     1      -3.358   9.981  17.998  0.00  0.00    +0.000 F 
ENDBRANCH  16  18
ENDBRANCH   7  11
BRANCH   2  22
ATOM     22  C   UNL     1       4.897   4.175  18.963  0.00  0.00    +0.000 C 
ATOM     23  F   UNL     1       4.554   3.537  20.110  0.00  0.00    +0.000 F 
ATOM     24  F   UNL     1       4.715   3.265  17.971  0.00  0.00    +0.000 F 
ATOM     25  F   UNL     1       6.230   4.421  19.042  0.00  0.00    +0.000 F 
ENDBRANCH   2  22
BRANCH   1  26
ATOM     26  C   UNL     1       5.095   6.299  16.473  0.00  0.00    +0.000 C 
ATOM     27  O   UNL     1       5.008   5.489  15.563  0.00  0.00    +0.000 OA
BRANCH  26  28
ATOM     28  O   UNL     1       6.117   7.183  16.635  0.00  0.00    +0.000 OA
BRANCH  28  30
ATOM     29  C   UNL     1       7.949   7.513  18.117  0.00  0.00    +0.000 C 
ATOM     30  C   UNL     1       7.363   6.610  17.045  0.00  0.00    +0.000 C 
ENDBRANCH  28  30
ENDBRANCH  26  28
ENDBRANCH   1  26
TORSDOF 6
ENDMDL
MODEL 8
REMARK VINA RESULT:      -8.0      0.791      1.126
REMARK  Name = 
REMARK  7 active torsions:
REMARK  status: ('A' for Active; 'I' for Inactive)
REMARK    1  A    between atoms: C_1  and  C_2
REMARK    2  A    between atoms: C_2  and  O_3
REMARK    3  A    between atoms: O_3  and  C_4
REMARK    4  A    between atoms: C_4  and  C_6
REMARK    5  A    between atoms: C_7  and  C_8
REMARK    6  A    between atoms: N_16  and  C_17
REMARK    7  A    between atoms: C_22  and  C_23
REMARK                            x       y       z     vdW  Elec       q    Type
REMARK                         _______ _______ _______ _____ _____    ______ ____
ROOT
ATOM      1  C   UNL     1       4.021   4.915  18.269  0.00  0.00    +0.000 A 
ATOM      2  C   UNL     1       4.457   5.622  17.109  0.00  0.00    +0.000 A 
ATOM      3  N   UNL     1       3.933   6.871  17.094  0.00  0.00    +0.000 NA
ATOM      4  N   UNL     1       3.209   6.957  18.242  0.00  0.00    +0.000 N 
ATOM      5  C   UNL     1       2.468   8.090  18.611  0.00  0.00    +0.000 A 
ATOM      6  O   UNL     1       2.437   9.065  17.877  0.00  0.00    +0.000 OA
ATOM      7  N   UNL     1       1.870   7.889  19.862  0.00  0.00    +0.000 N 
ATOM      8  N   UNL     1       2.019   6.743  20.614  0.00  0.00    +0.000 NA
ATOM      9  N   UNL     1       2.655   5.765  20.180  0.00  0.00    +0.000 NA
ATOM     10  C   UNL     1       3.270   5.823  18.986  0.00  0.00    +0.000 A 
ENDROOT
BRANCH   7  11
ATOM     11  C   UNL     1       0.973   8.831  20.470  0.00  0.00    +0.000 A 
ATOM     12  C   UNL     1       0.773   8.869  21.849  0.00  0.00    +0.000 A 
ATOM     13  C   UNL     1      -0.033   9.852  22.430  0.00  0.00    +0.000 A 
ATOM     14  C   UNL     1      -0.692  10.804  21.647  0.00  0.00    +0.000 A 
ATOM     15 CL   UNL     1      -1.630  11.974  22.495  0.00  0.00    +0.000 Cl
ATOM     16  C   UNL     1      -0.559  10.778  20.258  0.00  0.00    +0.000 A 
ATOM     17  C   UNL     1       0.295   9.796  19.689  0.00  0.00    +0.000 A 
BRANCH  16  18
ATOM     18  C   UNL     1      -1.273  11.719  19.319  0.00  0.00    +0.000 C 
ATOM     19  F   UNL     1      -1.059  11.531  17.991  0.00  0.00    +0.000 F 
ATOM     20  F   UNL     1      -2.625  11.669  19.480  0.00  0.00    +0.000 F 
ATOM     21  F   UNL     1      -0.930  13.019  19.557  0.00  0.00    +0.000 F 
ENDBRANCH  16  18
ENDBRANCH   7  11
BRANCH   2  22
ATOM     22  C   UNL     1       5.330   5.113  15.978  0.00  0.00    +0.000 C 
ATOM     23  F   UNL     1       4.824   4.023  15.349  0.00  0.00    +0.000 F 
ATOM     24  F   UNL     1       5.496   6.050  15.008  0.00  0.00    +0.000 F 
ATOM     25  F   UNL     1       6.568   4.766  16.416  0.00  0.00    +0.000 F 
ENDBRANCH   2  22
BRANCH   1  26
ATOM     26  C   UNL     1       4.242   3.539  18.642  0.00  0.00    +0.000 C 
ATOM     27  O   UNL     1       5.020   3.189  19.516  0.00  0.00    +0.000 OA
BRANCH  26  28
ATOM     28  O   UNL     1       3.585   2.697  17.799  0.00  0.00    +0.000 OA
BRANCH  28  30
ATOM     29  C   UNL     1       1.733   2.072  19.156  0.00  0.00    +0.000 C 
ATOM     30  C   UNL     1       2.156   2.756  17.867  0.00  0.00    +0.000 C 
ENDBRANCH  28  30
ENDBRANCH  26  28
ENDBRANCH   1  26
TORSDOF 6
ENDMDL
MODEL 9
REMARK VINA RESULT:      -8.0      0.856      1.284
REMARK  Name = 
REMARK  7 active torsions:
REMARK  status: ('A' for Active; 'I' for Inactive)
REMARK    1  A    between atoms: C_1  and  C_2
REMARK    2  A    between atoms: C_2  and  O_3
REMARK    3  A    between atoms: O_3  and  C_4
REMARK    4  A    between atoms: C_4  and  C_6
REMARK    5  A    between atoms: C_7  and  C_8
REMARK    6  A    between atoms: N_16  and  C_17
REMARK    7  A    between atoms: C_22  and  C_23
REMARK                            x       y       z     vdW  Elec       q    Type
REMARK                         _______ _______ _______ _____ _____    ______ ____
ROOT
ATOM      1  C   UNL     1       3.535   5.193  18.583  0.00  0.00    +0.000 A 
ATOM      2  C   UNL     1       4.082   5.859  17.446  0.00  0.00    +0.000 A 
ATOM      3  N   UNL     1       3.634   7.137  17.387  0.00  0.00    +0.000 NA
ATOM      4  N   UNL     1       2.847   7.279  18.486  0.00  0.00    +0.000 N 
ATOM      5  C   UNL     1       2.152   8.457  18.798  0.00  0.00    +0.000 A 
ATOM      6  O   UNL     1       2.223   9.423  18.055  0.00  0.00    +0.000 OA
ATOM      7  N   UNL     1       1.468   8.307  20.012  0.00  0.00    +0.000 N 
ATOM      8  N   UNL     1       1.503   7.164  20.783  0.00  0.00    +0.000 NA
ATOM      9  N   UNL     1       2.107   6.145  20.398  0.00  0.00    +0.000 NA
ATOM     10  C   UNL     1       2.796   6.152  19.243  0.00  0.00    +0.000 A 
ENDROOT
BRANCH   7  11
ATOM     11  C   UNL     1       0.592   9.307  20.554  0.00  0.00    +0.000 A 
ATOM     12  C   UNL     1       0.415   9.460  21.929  0.00  0.00    +0.000 A 
ATOM     13  C   UNL     1      -0.370  10.498  22.439  0.00  0.00    +0.000 A 
ATOM     14  C   UNL     1      -1.031  11.391  21.591  0.00  0.00    +0.000 A 
ATOM     15 CL   UNL     1      -1.942  12.638  22.355  0.00  0.00    +0.000 Cl
ATOM     16  C   UNL     1      -0.921  11.250  20.208  0.00  0.00    +0.000 A 
ATOM     17  C   UNL     1      -0.087  10.213  19.708  0.00  0.00    +0.000 A 
BRANCH  16  18
ATOM     18  C   UNL     1      -1.639  12.120  19.205  0.00  0.00    +0.000 C 
ATOM     19  F   UNL     1      -1.353  13.447  19.237  0.00  0.00    +0.000 F 
ATOM     20  F   UNL     1      -1.394  11.727  17.923  0.00  0.00    +0.000 F 
ATOM     21  F   UNL     1      -2.993  12.041  19.354  0.00  0.00    +0.000 F 
ENDBRANCH  16  18
ENDBRANCH   7  11
BRANCH   2  22
ATOM     22  C   UNL     1       4.991   5.286  16.376  0.00  0.00    +0.000 C 
ATOM     23  F   UNL     1       6.232   4.975  16.826  0.00  0.00    +0.000 F 
ATOM     24  F   UNL     1       4.493   4.134  15.855  0.00  0.00    +0.000 F 
ATOM     25  F   UNL     1       5.161   6.152  15.343  0.00  0.00    +0.000 F 
ENDBRANCH   2  22
BRANCH   1  26
ATOM     26  C   UNL     1       3.652   3.812  18.982  0.00  0.00    +0.000 C 
ATOM     27  O   UNL     1       4.629   3.349  19.549  0.00  0.00    +0.000 OA
BRANCH  26  28
ATOM     28  O   UNL     1       2.603   3.083  18.515  0.00  0.00    +0.000 OA
BRANCH  28  30
ATOM     29  C   UNL     1       1.048   2.894  20.305  0.00  0.00    +0.000 C 
ATOM     30  C   UNL     1       2.049   2.145  19.443  0.00  0.00    +0.000 C 
ENDBRANCH  28  30
ENDBRANCH  26  28
ENDBRANCH   1  26
TORSDOF 6
ENDMDL
