MODEL 1
REMARK VINA RESULT:      -8.5      0.000      0.000
REMARK  Name = 
REMARK  6 active torsions:
REMARK  status: ('A' for Active; 'I' for Inactive)
REMARK    1  A    between atoms: C_1  and  C_2
REMARK    2  A    between atoms: N_4  and  C_5
REMARK    3  A    between atoms: C_5  and  C_6
REMARK    4  A    between atoms: C_10  and  C_11
REMARK    5  A    between atoms: C_15  and  C_16
REMARK    6  A    between atoms: C_16  and  N_17
REMARK                            x       y       z     vdW  Elec       q    Type
REMARK                         _______ _______ _______ _____ _____    ______ ____
ROOT
ATOM      1  C   UNL     1       3.620   5.681  19.061  0.00  0.00    +0.000 A 
ATOM      2  C   UNL     1       3.277   5.797  17.711  0.00  0.00    +0.000 A 
ATOM      3  C   UNL     1       4.197   5.488  16.703  0.00  0.00    +0.000 A 
ATOM      4  C   UNL     1       5.505   5.078  17.042  0.00  0.00    +0.000 A 
ATOM      5  C   UNL     1       6.669   4.692  16.291  0.00  0.00    +0.000 A 
ATOM      6  C   UNL     1       7.645   4.365  17.215  0.00  0.00    +0.000 A 
ATOM      7  N   UNL     1       7.130   4.545  18.472  0.00  0.00    +0.000 N 
ATOM      8  C   UNL     1       5.827   4.983  18.397  0.00  0.00    +0.000 A 
ATOM      9  C   UNL     1       4.918   5.280  19.421  0.00  0.00    +0.000 A 
ATOM     10  H   UNL     1       7.628   4.376  19.334  0.00  0.00    +0.000 HD
ENDROOT
BRANCH   5  11
ATOM     11  C   UNL     1       6.872   4.615  14.847  0.00  0.00    +0.000 A 
ATOM     12  C   UNL     1       7.849   5.407  14.228  0.00  0.00    +0.000 A 
ATOM     13  C   UNL     1       8.015   5.382  12.843  0.00  0.00    +0.000 A 
ATOM     14  C   UNL     1       7.217   4.550  12.059  0.00  0.00    +0.000 A 
ATOM     15  C   UNL     1       6.252   3.724  12.653  0.00  0.00    +0.000 A 
ATOM     16  C   UNL     1       6.091   3.765  14.049  0.00  0.00    +0.000 A 
BRANCH  15  17
ATOM     17  C   UNL     1       5.413   2.809  11.826  0.00  0.00    +0.000 C 
ATOM     18  S   UNL     1       3.929   3.189  11.148  0.00  0.00    +0.000 S 
BRANCH  17  19
ATOM     19  N   UNL     1       5.899   1.544  11.605  0.00  0.00    +0.000 N 
ATOM     20  H   UNL     1       5.321   0.716  11.560  0.00  0.00    +0.000 HD
ATOM     21  H   UNL     1       6.870   1.446  11.330  0.00  0.00    +0.000 HD
ENDBRANCH  17  19
ENDBRANCH  15  17
ENDBRANCH   5  11
BRANCH   1  22
ATOM     22  C   UNL     1       2.600   5.994  20.125  0.00  0.00    +0.000 C 
BRANCH  22  26
ATOM     23  C   UNL     1       1.502   2.792  21.778  0.00  0.00    +0.000 C 
ATOM     24  C   UNL     1       1.587   3.851  20.716  0.00  0.00    +0.000 C 
ATOM     25  O   UNL     1       0.962   3.783  19.663  0.00  0.00    +0.000 OA
ATOM     26  N   UNL     1       2.427   4.890  21.036  0.00  0.00    +0.000 N 
ATOM     27  H   UNL     1       2.883   4.922  21.940  0.00  0.00    +0.000 HD
ENDBRANCH  22  26
ENDBRANCH   1  22
TORSDOF 5
ENDMDL
MODEL 2
REMARK VINA RESULT:      -8.0      4.192      8.120
REMARK  Name = 
REMARK  6 active torsions:
REMARK  status: ('A' for Active; 'I' for Inactive)
REMARK    1  A    between atoms: C_1  and  C_2
REMARK    2  A    between atoms: N_4  and  C_5
REMARK    3  A    between atoms: C_5  and  C_6
REMARK    4  A    between atoms: C_10  and  C_11
REMARK    5  A    between atoms: C_15  and  C_16
REMARK    6  A    between atoms: C_16  and  N_17
REMARK                            x       y       z     vdW  Elec       q    Type
REMARK                         _______ _______ _______ _____ _____    ______ ____
ROOT
ATOM      1  C   UNL     1       5.629   5.028  15.740  0.00  0.00    +0.000 A 
ATOM      2  C   UNL     1       5.519   6.374  16.099  0.00  0.00    +0.000 A 
ATOM      3  C   UNL     1       4.570   6.795  17.038  0.00  0.00    +0.000 A 
ATOM      4  C   UNL     1       3.686   5.858  17.619  0.00  0.00    +0.000 A 
ATOM      5  C   UNL     1       2.626   5.936  18.587  0.00  0.00    +0.000 A 
ATOM      6  C   UNL     1       2.156   4.647  18.762  0.00  0.00    +0.000 A 
ATOM      7  N   UNL     1       2.870   3.810  17.945  0.00  0.00    +0.000 N 
ATOM      8  C   UNL     1       3.809   4.522  17.234  0.00  0.00    +0.000 A 
ATOM      9  C   UNL     1       4.757   4.079  16.301  0.00  0.00    +0.000 A 
ATOM     10  H   UNL     1       2.737   2.811  17.876  0.00  0.00    +0.000 HD
ENDROOT
BRANCH   5  11
ATOM     11  C   UNL     1       2.091   7.090  19.304  0.00  0.00    +0.000 A 
ATOM     12  C   UNL     1       1.779   6.992  20.667  0.00  0.00    +0.000 A 
ATOM     13  C   UNL     1       1.217   8.070  21.349  0.00  0.00    +0.000 A 
ATOM     14  C   UNL     1       0.977   9.271  20.682  0.00  0.00    +0.000 A 
ATOM     15  C   UNL     1       1.307   9.409  19.326  0.00  0.00    +0.000 A 
ATOM     16  C   UNL     1       1.866   8.310  18.649  0.00  0.00    +0.000 A 
BRANCH  15  17
ATOM     17  C   UNL     1       1.081  10.698  18.609  0.00  0.00    +0.000 C 
ATOM     18  S   UNL     1      -0.289  11.654  18.728  0.00  0.00    +0.000 S 
BRANCH  17  19
ATOM     19  N   UNL     1       2.083  11.135  17.778  0.00  0.00    +0.000 N 
ATOM     20  H   UNL     1       2.747  11.856  18.024  0.00  0.00    +0.000 HD
ATOM     21  H   UNL     1       2.261  10.612  16.928  0.00  0.00    +0.000 HD
ENDBRANCH  17  19
ENDBRANCH  15  17
ENDBRANCH   5  11
BRANCH   1  22
ATOM     22  C   UNL     1       6.678   4.599  14.747  0.00  0.00    +0.000 C 
BRANCH  22  26
ATOM     23  C   UNL     1       5.908   2.467  11.738  0.00  0.00    +0.000 C 
ATOM     24  C   UNL     1       6.517   3.591  12.528  0.00  0.00    +0.000 C 
ATOM     25  O   UNL     1       7.243   4.438  12.020  0.00  0.00    +0.000 OA
ATOM     26  N   UNL     1       6.185   3.574  13.862  0.00  0.00    +0.000 N 
ATOM     27  H   UNL     1       5.543   2.879  14.222  0.00  0.00    +0.000 HD
ENDBRANCH  22  26
ENDBRANCH   1  22
TORSDOF 5
ENDMDL
MODEL 3
REMARK VINA RESULT:      -7.8      4.529      6.742
REMARK  Name = 
REMARK  6 active torsions:
REMARK  status: ('A' for Active; 'I' for Inactive)
REMARK    1  A    between atoms: C_1  and  C_2
REMARK    2  A    between atoms: N_4  and  C_5
REMARK    3  A    between atoms: C_5  and  C_6
REMARK    4  A    between atoms: C_10  and  C_11
REMARK    5  A    between atoms: C_15  and  C_16
REMARK    6  A    between atoms: C_16  and  N_17
REMARK                            x       y       z     vdW  Elec       q    Type
REMARK                         _______ _______ _______ _____ _____    ______ ____
ROOT
ATOM      1  C   UNL     1       1.142  10.446  18.965  0.00  0.00    +0.000 A 
ATOM      2  C   UNL     1       1.711   9.894  17.814  0.00  0.00    +0.000 A 
ATOM      3  C   UNL     1       2.154   8.567  17.792  0.00  0.00    +0.000 A 
ATOM      4  C   UNL     1       2.055   7.770  18.954  0.00  0.00    +0.000 A 
ATOM      5  C   UNL     1       2.397   6.412  19.279  0.00  0.00    +0.000 A 
ATOM      6  C   UNL     1       2.020   6.213  20.594  0.00  0.00    +0.000 A 
ATOM      7  N   UNL     1       1.483   7.380  21.073  0.00  0.00    +0.000 N 
ATOM      8  C   UNL     1       1.495   8.348  20.094  0.00  0.00    +0.000 A 
ATOM      9  C   UNL     1       1.039   9.672  20.135  0.00  0.00    +0.000 A 
ATOM     10  H   UNL     1       1.122   7.515  22.007  0.00  0.00    +0.000 HD
ENDROOT
BRANCH   5  11
ATOM     11  C   UNL     1       3.007   5.373  18.453  0.00  0.00    +0.000 A 
ATOM     12  C   UNL     1       2.248   4.276  18.024  0.00  0.00    +0.000 A 
ATOM     13  C   UNL     1       2.832   3.251  17.281  0.00  0.00    +0.000 A 
ATOM     14  C   UNL     1       4.183   3.318  16.940  0.00  0.00    +0.000 A 
ATOM     15  C   UNL     1       4.961   4.418  17.330  0.00  0.00    +0.000 A 
ATOM     16  C   UNL     1       4.359   5.440  18.085  0.00  0.00    +0.000 A 
BRANCH  15  17
ATOM     17  C   UNL     1       6.399   4.514  16.946  0.00  0.00    +0.000 C 
ATOM     18  S   UNL     1       6.981   4.818  15.404  0.00  0.00    +0.000 S 
BRANCH  17  19
ATOM     19  N   UNL     1       7.325   4.333  17.943  0.00  0.00    +0.000 N 
ATOM     20  H   UNL     1       7.089   4.183  18.914  0.00  0.00    +0.000 HD
ATOM     21  H   UNL     1       8.294   4.197  17.677  0.00  0.00    +0.000 HD
ENDBRANCH  17  19
ENDBRANCH  15  17
ENDBRANCH   5  11
BRANCH   1  22
ATOM     22  C   UNL     1       0.648  11.869  18.951  0.00  0.00    +0.000 C 
BRANCH  22  26
ATOM     23  C   UNL     1       3.373  14.333  18.115  0.00  0.00    +0.000 C 
ATOM     24  C   UNL     1       2.508  13.454  18.973  0.00  0.00    +0.000 C 
ATOM     25  O   UNL     1       2.638  13.383  20.189  0.00  0.00    +0.000 OA
ATOM     26  N   UNL     1       1.567  12.744  18.266  0.00  0.00    +0.000 N 
ATOM     27  H   UNL     1       1.469  12.874  17.266  0.00  0.00    +0.000 HD
ENDBRANCH  22  26
ENDBRANCH   1  22
TORSDOF 5
ENDMDL
MODEL 4
REMARK VINA RESULT:      -7.8      4.562      8.692
REMARK  Name = 
REMARK  6 active torsions:
REMARK  status: ('A' for Active; 'I' for Inactive)
REMARK    1  A    between atoms: C_1  and  C_2
REMARK    2  A    between atoms: N_4  and  C_5
REMARK    3  A    between atoms: C_5  and  C_6
REMARK    4  A    between atoms: C_10  and  C_11
REMARK    5  A    between atoms: C_15  and  C_16
REMARK    6  A    between atoms: C_16  and  N_17
REMARK                            x       y       z     vdW  Elec       q    Type
REMARK                         _______ _______ _______ _____ _____    ______ ____
ROOT
ATOM      1  C   UNL     1       5.511   5.047  17.611  0.00  0.00    +0.000 A 
ATOM      2  C   UNL     1       5.205   6.368  17.272  0.00  0.00    +0.000 A 
ATOM      3  C   UNL     1       4.175   7.058  17.919  0.00  0.00    +0.000 A 
ATOM      4  C   UNL     1       3.407   6.413  18.914  0.00  0.00    +0.000 A 
ATOM      5  C   UNL     1       2.311   6.806  19.758  0.00  0.00    +0.000 A 
ATOM      6  C   UNL     1       2.016   5.716  20.555  0.00  0.00    +0.000 A 
ATOM      7  N   UNL     1       2.866   4.694  20.225  0.00  0.00    +0.000 N 
ATOM      8  C   UNL     1       3.724   5.090  19.225  0.00  0.00    +0.000 A 
ATOM      9  C   UNL     1       4.756   4.382  18.593  0.00  0.00    +0.000 A 
ATOM     10  H   UNL     1       2.873   3.780  20.657  0.00  0.00    +0.000 HD
ENDROOT
BRANCH   5  11
ATOM     11  C   UNL     1       1.599   8.079  19.840  0.00  0.00    +0.000 A 
ATOM     12  C   UNL     1       1.532   8.924  18.725  0.00  0.00    +0.000 A 
ATOM     13  C   UNL     1       0.902  10.165  18.807  0.00  0.00    +0.000 A 
ATOM     14  C   UNL     1       0.312  10.571  20.004  0.00  0.00    +0.000 A 
ATOM     15  C   UNL     1       0.336   9.734  21.129  0.00  0.00    +0.000 A 
ATOM     16  C   UNL     1       0.982   8.488  21.033  0.00  0.00    +0.000 A 
BRANCH  15  17
ATOM     17  C   UNL     1      -0.317  10.146  22.405  0.00  0.00    +0.000 C 
ATOM     18  S   UNL     1      -1.173  11.565  22.650  0.00  0.00    +0.000 S 
BRANCH  17  19
ATOM     19  N   UNL     1      -0.201   9.289  23.471  0.00  0.00    +0.000 N 
ATOM     20  H   UNL     1      -0.866   8.558  23.683  0.00  0.00    +0.000 HD
ATOM     21  H   UNL     1       0.667   9.290  23.994  0.00  0.00    +0.000 HD
ENDBRANCH  17  19
ENDBRANCH  15  17
ENDBRANCH   5  11
BRANCH   1  22
ATOM     22  C   UNL     1       6.644   4.337  16.916  0.00  0.00    +0.000 C 
BRANCH  22  26
ATOM     23  C   UNL     1       6.166   3.704  13.233  0.00  0.00    +0.000 C 
ATOM     24  C   UNL     1       6.701   4.361  14.474  0.00  0.00    +0.000 C 
ATOM     25  O   UNL     1       7.482   5.305  14.438  0.00  0.00    +0.000 OA
ATOM     26  N   UNL     1       6.235   3.804  15.641  0.00  0.00    +0.000 N 
ATOM     27  H   UNL     1       5.554   3.055  15.616  0.00  0.00    +0.000 HD
ENDBRANCH  22  26
ENDBRANCH   1  22
TORSDOF 5
ENDMDL
MODEL 5
REMARK VINA RESULT:      -7.7      5.495      8.472
REMARK  Name = 
REMARK  6 active torsions:
REMARK  status: ('A' for Active; 'I' for Inactive)
REMARK    1  A    between atoms: C_1  and  C_2
REMARK    2  A    between atoms: N_4  and  C_5
REMARK    3  A    between atoms: C_5  and  C_6
REMARK    4  A    between atoms: C_10  and  C_11
REMARK    5  A    between atoms: C_15  and  C_16
REMARK    6  A    between atoms: C_16  and  N_17
REMARK                            x       y       z     vdW  Elec       q    Type
REMARK                         _______ _______ _______ _____ _____    ______ ____
ROOT
ATOM      1  C   UNL     1       3.714   6.155  18.365  0.00  0.00    +0.000 A 
ATOM      2  C   UNL     1       3.418   7.165  17.446  0.00  0.00    +0.000 A 
ATOM      3  C   UNL     1       2.553   8.213  17.780  0.00  0.00    +0.000 A 
ATOM      4  C   UNL     1       1.942   8.247  19.053  0.00  0.00    +0.000 A 
ATOM      5  C   UNL     1       1.033   9.145  19.713  0.00  0.00    +0.000 A 
ATOM      6  C   UNL     1       0.830   8.638  20.983  0.00  0.00    +0.000 A 
ATOM      7  N   UNL     1       1.558   7.484  21.111  0.00  0.00    +0.000 N 
ATOM      8  C   UNL     1       2.244   7.220  19.948  0.00  0.00    +0.000 A 
ATOM      9  C   UNL     1       3.113   6.165  19.636  0.00  0.00    +0.000 A 
ATOM     10  H   UNL     1       1.596   6.908  21.941  0.00  0.00    +0.000 HD
ENDROOT
BRANCH   5  11
ATOM     11  C   UNL     1       0.409  10.374  19.230  0.00  0.00    +0.000 A 
ATOM     12  C   UNL     1       0.986  11.618  19.516  0.00  0.00    +0.000 A 
ATOM     13  C   UNL     1       0.371  12.801  19.107  0.00  0.00    +0.000 A 
ATOM     14  C   UNL     1      -0.823  12.755  18.388  0.00  0.00    +0.000 A 
ATOM     15  C   UNL     1      -1.409  11.523  18.061  0.00  0.00    +0.000 A 
ATOM     16  C   UNL     1      -0.781  10.339  18.486  0.00  0.00    +0.000 A 
BRANCH  15  17
ATOM     17  C   UNL     1      -2.670  11.462  17.267  0.00  0.00    +0.000 C 
ATOM     18  S   UNL     1      -4.222  11.461  17.898  0.00  0.00    +0.000 S 
BRANCH  17  19
ATOM     19  N   UNL     1      -2.547  11.396  15.901  0.00  0.00    +0.000 N 
ATOM     20  H   UNL     1      -1.685  11.176  15.421  0.00  0.00    +0.000 HD
ATOM     21  H   UNL     1      -3.392  11.427  15.342  0.00  0.00    +0.000 HD
ENDBRANCH  17  19
ENDBRANCH  15  17
ENDBRANCH   5  11
BRANCH   1  22
ATOM     22  C   UNL     1       4.671   5.053  17.988  0.00  0.00    +0.000 C 
BRANCH  22  26
ATOM     23  C   UNL     1       3.431   1.526  18.444  0.00  0.00    +0.000 C 
ATOM     24  C   UNL     1       4.192   2.783  18.753  0.00  0.00    +0.000 C 
ATOM     25  O   UNL     1       4.918   2.893  19.735  0.00  0.00    +0.000 OA
ATOM     26  N   UNL     1       3.994   3.790  17.838  0.00  0.00    +0.000 N 
ATOM     27  H   UNL     1       3.421   3.632  17.018  0.00  0.00    +0.000 HD
ENDBRANCH  22  26
ENDBRANCH   1  22
TORSDOF 5
ENDMDL
MODEL 6
REMARK VINA RESULT:      -7.7      4.426      6.523
REMARK  Name = 
REMARK  6 active torsions:
REMARK  status: ('A' for Active; 'I' for Inactive)
REMARK    1  A    between atoms: C_1  and  C_2
REMARK    2  A    between atoms: N_4  and  C_5
REMARK    3  A    between atoms: C_5  and  C_6
REMARK    4  A    between atoms: C_10  and  C_11
REMARK    5  A    between atoms: C_15  and  C_16
REMARK    6  A    between atoms: C_16  and  N_17
REMARK                            x       y       z     vdW  Elec       q    Type
REMARK                         _______ _______ _______ _____ _____    ______ ____
ROOT
ATOM      1  C   UNL     1       1.083  10.496  19.146  0.00  0.00    +0.000 A 
ATOM      2  C   UNL     1       1.604   9.978  17.957  0.00  0.00    +0.000 A 
ATOM      3  C   UNL     1       2.053   8.655  17.882  0.00  0.00    +0.000 A 
ATOM      4  C   UNL     1       2.009   7.828  19.025  0.00  0.00    +0.000 A 
ATOM      5  C   UNL     1       2.371   6.463  19.300  0.00  0.00    +0.000 A 
ATOM      6  C   UNL     1       2.053   6.229  20.625  0.00  0.00    +0.000 A 
ATOM      7  N   UNL     1       1.532   7.380  21.156  0.00  0.00    +0.000 N 
ATOM      8  C   UNL     1       1.495   8.372  20.203  0.00  0.00    +0.000 A 
ATOM      9  C   UNL     1       1.034   9.693  20.298  0.00  0.00    +0.000 A 
ATOM     10  H   UNL     1       1.211   7.488  22.108  0.00  0.00    +0.000 HD
ENDROOT
BRANCH   5  11
ATOM     11  C   UNL     1       2.950   5.450  18.421  0.00  0.00    +0.000 A 
ATOM     12  C   UNL     1       2.148   4.428  17.898  0.00  0.00    +0.000 A 
ATOM     13  C   UNL     1       2.699   3.424  17.103  0.00  0.00    +0.000 A 
ATOM     14  C   UNL     1       4.061   3.439  16.804  0.00  0.00    +0.000 A 
ATOM     15  C   UNL     1       4.884   4.467  17.288  0.00  0.00    +0.000 A 
ATOM     16  C   UNL     1       4.315   5.468  18.095  0.00  0.00    +0.000 A 
BRANCH  15  17
ATOM     17  C   UNL     1       6.337   4.509  16.951  0.00  0.00    +0.000 C 
ATOM     18  S   UNL     1       6.977   4.761  15.423  0.00  0.00    +0.000 S 
BRANCH  17  19
ATOM     19  N   UNL     1       7.224   4.321  17.981  0.00  0.00    +0.000 N 
ATOM     20  H   UNL     1       7.466   5.034  18.655  0.00  0.00    +0.000 HD
ATOM     21  H   UNL     1       7.547   3.378  18.168  0.00  0.00    +0.000 HD
ENDBRANCH  17  19
ENDBRANCH  15  17
ENDBRANCH   5  11
BRANCH   1  22
ATOM     22  C   UNL     1       0.581  11.917  19.190  0.00  0.00    +0.000 C 
BRANCH  22  26
ATOM     23  C   UNL     1      -3.158  12.175  19.569  0.00  0.00    +0.000 C 
ATOM     24  C   UNL     1      -1.834  12.086  18.864  0.00  0.00    +0.000 C 
ATOM     25  O   UNL     1      -1.733  12.096  17.643  0.00  0.00    +0.000 OA
ATOM     26  N   UNL     1      -0.759  11.991  19.715  0.00  0.00    +0.000 N 
ATOM     27  H   UNL     1      -0.893  12.035  20.718  0.00  0.00    +0.000 HD
ENDBRANCH  22  26
ENDBRANCH   1  22
TORSDOF 5
ENDMDL
MODEL 7
REMARK VINA RESULT:      -7.6      4.967      7.152
REMARK  Name = 
REMARK  6 active torsions:
REMARK  status: ('A' for Active; 'I' for Inactive)
REMARK    1  A    between atoms: C_1  and  C_2
REMARK    2  A    between atoms: N_4  and  C_5
REMARK    3  A    between atoms: C_5  and  C_6
REMARK    4  A    between atoms: C_10  and  C_11
REMARK    5  A    between atoms: C_15  and  C_16
REMARK    6  A    between atoms: C_16  and  N_17
REMARK                            x       y       z     vdW  Elec       q    Type
REMARK                         _______ _______ _______ _____ _____    ______ ____
ROOT
ATOM      1  C   UNL     1       0.015   9.775  21.829  0.00  0.00    +0.000 A 
ATOM      2  C   UNL     1       0.534   8.485  21.971  0.00  0.00    +0.000 A 
ATOM      3  C   UNL     1       1.244   7.874  20.931  0.00  0.00    +0.000 A 
ATOM      4  C   UNL     1       1.423   8.551  19.704  0.00  0.00    +0.000 A 
ATOM      5  C   UNL     1       2.079   8.237  18.464  0.00  0.00    +0.000 A 
ATOM      6  C   UNL     1       1.926   9.341  17.646  0.00  0.00    +0.000 A 
ATOM      7  N   UNL     1       1.207  10.289  18.326  0.00  0.00    +0.000 N 
ATOM      8  C   UNL     1       0.884   9.833  19.584  0.00  0.00    +0.000 A 
ATOM      9  C   UNL     1       0.176  10.465  20.615  0.00  0.00    +0.000 A 
ATOM     10  H   UNL     1       0.954  11.198  17.965  0.00  0.00    +0.000 HD
ENDROOT
BRANCH   5  11
ATOM     11  C   UNL     1       2.799   7.032  18.060  0.00  0.00    +0.000 A 
ATOM     12  C   UNL     1       2.223   5.769  18.251  0.00  0.00    +0.000 A 
ATOM     13  C   UNL     1       2.923   4.609  17.920  0.00  0.00    +0.000 A 
ATOM     14  C   UNL     1       4.203   4.697  17.376  0.00  0.00    +0.000 A 
ATOM     15  C   UNL     1       4.794   5.949  17.145  0.00  0.00    +0.000 A 
ATOM     16  C   UNL     1       4.079   7.109  17.491  0.00  0.00    +0.000 A 
BRANCH  15  17
ATOM     17  C   UNL     1       6.151   6.055  16.536  0.00  0.00    +0.000 C 
ATOM     18  S   UNL     1       6.836   4.952  15.477  0.00  0.00    +0.000 S 
BRANCH  17  19
ATOM     19  N   UNL     1       6.905   7.150  16.878  0.00  0.00    +0.000 N 
ATOM     20  H   UNL     1       6.557   8.099  16.878  0.00  0.00    +0.000 HD
ATOM     21  H   UNL     1       7.818   6.993  17.291  0.00  0.00    +0.000 HD
ENDBRANCH  17  19
ENDBRANCH  15  17
ENDBRANCH   5  11
BRANCH   1  22
ATOM     22  C   UNL     1      -0.721  10.418  22.975  0.00  0.00    +0.000 C 
BRANCH  22  26
ATOM     23  C   UNL     1      -2.378  13.791  22.704  0.00  0.00    +0.000 C 
ATOM     24  C   UNL     1      -2.226  12.341  23.068  0.00  0.00    +0.000 C 
ATOM     25  O   UNL     1      -3.107  11.705  23.634  0.00  0.00    +0.000 OA
ATOM     26  N   UNL     1      -1.012  11.805  22.709  0.00  0.00    +0.000 N 
ATOM     27  H   UNL     1      -0.335  12.361  22.201  0.00  0.00    +0.000 HD
ENDBRANCH  22  26
ENDBRANCH   1  22
TORSDOF 5
ENDMDL
MODEL 8
REMARK VINA RESULT:      -7.6      4.403      8.331
REMARK  Name = 
REMARK  6 active torsions:
REMARK  status: ('A' for Active; 'I' for Inactive)
REMARK    1  A    between atoms: C_1  and  C_2
REMARK    2  A    between atoms: N_4  and  C_5
REMARK    3  A    between atoms: C_5  and  C_6
REMARK    4  A    between atoms: C_10  and  C_11
REMARK    5  A    between atoms: C_15  and  C_16
REMARK    6  A    between atoms: C_16  and  N_17
REMARK                            x       y       z     vdW  Elec       q    Type
REMARK                         _______ _______ _______ _____ _____    ______ ____
ROOT
ATOM      1  C   UNL     1       5.795   4.961  16.122  0.00  0.00    +0.000 A 
ATOM      2  C   UNL     1       5.354   6.241  15.775  0.00  0.00    +0.000 A 
ATOM      3  C   UNL     1       4.419   6.921  16.563  0.00  0.00    +0.000 A 
ATOM      4  C   UNL     1       3.884   6.304  17.716  0.00  0.00    +0.000 A 
ATOM      5  C   UNL     1       2.939   6.697  18.726  0.00  0.00    +0.000 A 
ATOM      6  C   UNL     1       2.859   5.648  19.622  0.00  0.00    +0.000 A 
ATOM      7  N   UNL     1       3.695   4.648  19.196  0.00  0.00    +0.000 N 
ATOM      8  C   UNL     1       4.331   5.021  18.034  0.00  0.00    +0.000 A 
ATOM      9  C   UNL     1       5.272   4.325  17.262  0.00  0.00    +0.000 A 
ATOM     10  H   UNL     1       3.834   3.766  19.668  0.00  0.00    +0.000 HD
ENDROOT
BRANCH   5  11
ATOM     11  C   UNL     1       2.179   7.936  18.869  0.00  0.00    +0.000 A 
ATOM     12  C   UNL     1       2.056   8.819  17.788  0.00  0.00    +0.000 A 
ATOM     13  C   UNL     1       1.380  10.030  17.929  0.00  0.00    +0.000 A 
ATOM     14  C   UNL     1       0.798  10.367  19.151  0.00  0.00    +0.000 A 
ATOM     15  C   UNL     1       0.879   9.490  20.243  0.00  0.00    +0.000 A 
ATOM     16  C   UNL     1       1.571   8.276  20.088  0.00  0.00    +0.000 A 
BRANCH  15  17
ATOM     17  C   UNL     1       0.236   9.828  21.546  0.00  0.00    +0.000 C 
ATOM     18  S   UNL     1      -0.549  11.264  21.904  0.00  0.00    +0.000 S 
BRANCH  17  19
ATOM     19  N   UNL     1       0.297   8.881  22.537  0.00  0.00    +0.000 N 
ATOM     20  H   UNL     1       1.158   8.544  22.945  0.00  0.00    +0.000 HD
ATOM     21  H   UNL     1      -0.568   8.605  22.990  0.00  0.00    +0.000 HD
ENDBRANCH  17  19
ENDBRANCH  15  17
ENDBRANCH   5  11
BRANCH   1  22
ATOM     22  C   UNL     1       6.823   4.264  15.269  0.00  0.00    +0.000 C 
BRANCH  22  26
ATOM     23  C   UNL     1       5.707   2.862  11.956  0.00  0.00    +0.000 C 
ATOM     24  C   UNL     1       6.437   3.764  12.909  0.00  0.00    +0.000 C 
ATOM     25  O   UNL     1       7.170   4.671  12.532  0.00  0.00    +0.000 OA
ATOM     26  N   UNL     1       6.207   3.474  14.233  0.00  0.00    +0.000 N 
ATOM     27  H   UNL     1       5.555   2.744  14.492  0.00  0.00    +0.000 HD
ENDBRANCH  22  26
ENDBRANCH   1  22
TORSDOF 5
ENDMDL
MODEL 9
REMARK VINA RESULT:      -7.6      5.472      8.740
REMARK  Name = 
REMARK  6 active torsions:
REMARK  status: ('A' for Active; 'I' for Inactive)
REMARK    1  A    between atoms: C_1  and  C_2
REMARK    2  A    between atoms: N_4  and  C_5
REMARK    3  A    between atoms: C_5  and  C_6
REMARK    4  A    between atoms: C_10  and  C_11
REMARK    5  A    between atoms: C_15  and  C_16
REMARK    6  A    between atoms: C_16  and  N_17
REMARK                            x       y       z     vdW  Elec       q    Type
REMARK                         _______ _______ _______ _____ _____    ______ ____
ROOT
ATOM      1  C   UNL     1       3.786   6.037  18.299  0.00  0.00    +0.000 A 
ATOM      2  C   UNL     1       3.507   7.060  17.388  0.00  0.00    +0.000 A 
ATOM      3  C   UNL     1       2.655   8.116  17.728  0.00  0.00    +0.000 A 
ATOM      4  C   UNL     1       2.038   8.146  18.998  0.00  0.00    +0.000 A 
ATOM      5  C   UNL     1       1.138   9.049  19.663  0.00  0.00    +0.000 A 
ATOM      6  C   UNL     1       0.923   8.533  20.927  0.00  0.00    +0.000 A 
ATOM      7  N   UNL     1       1.636   7.368  21.048  0.00  0.00    +0.000 N 
ATOM      8  C   UNL     1       2.323   7.107  19.885  0.00  0.00    +0.000 A 
ATOM      9  C   UNL     1       3.180   6.043  19.567  0.00  0.00    +0.000 A 
ATOM     10  H   UNL     1       1.663   6.785  21.872  0.00  0.00    +0.000 HD
ENDROOT
BRANCH   5  11
ATOM     11  C   UNL     1       0.533  10.291  19.189  0.00  0.00    +0.000 A 
ATOM     12  C   UNL     1       1.157  11.521  19.437  0.00  0.00    +0.000 A 
ATOM     13  C   UNL     1       0.561  12.716  19.037  0.00  0.00    +0.000 A 
ATOM     14  C   UNL     1      -0.660  12.698  18.365  0.00  0.00    +0.000 A 
ATOM     15  C   UNL     1      -1.294  11.480  18.075  0.00  0.00    +0.000 A 
ATOM     16  C   UNL     1      -0.685  10.283  18.491  0.00  0.00    +0.000 A 
BRANCH  15  17
ATOM     17  C   UNL     1      -2.586  11.447  17.330  0.00  0.00    +0.000 C 
ATOM     18  S   UNL     1      -4.112  11.453  18.022  0.00  0.00    +0.000 S 
BRANCH  17  19
ATOM     19  N   UNL     1      -2.517  11.405  15.960  0.00  0.00    +0.000 N 
ATOM     20  H   UNL     1      -2.716  12.193  15.359  0.00  0.00    +0.000 HD
ATOM     21  H   UNL     1      -2.107  10.585  15.527  0.00  0.00    +0.000 HD
ENDBRANCH  17  19
ENDBRANCH  15  17
ENDBRANCH   5  11
BRANCH   1  22
ATOM     22  C   UNL     1       4.730   4.927  17.915  0.00  0.00    +0.000 C 
BRANCH  22  26
ATOM     23  C   UNL     1       6.097   4.511  14.429  0.00  0.00    +0.000 C 
ATOM     24  C   UNL     1       6.109   4.567  15.930  0.00  0.00    +0.000 C 
ATOM     25  O   UNL     1       7.127   4.394  16.591  0.00  0.00    +0.000 OA
ATOM     26  N   UNL     1       4.878   4.825  16.485  0.00  0.00    +0.000 N 
ATOM     27  H   UNL     1       4.076   5.007  15.893  0.00  0.00    +0.000 HD
ENDBRANCH  22  26
ENDBRANCH   1  22
TORSDOF 5
ENDMDL
