MODEL 1
REMARK VINA RESULT:      -7.7      0.000      0.000
REMARK  Name = 
REMARK  4 active torsions:
REMARK  status: ('A' for Active; 'I' for Inactive)
REMARK    1  A    between atoms: C_1  and  N_2
REMARK    2  A    between atoms: C_3  and  C_4
REMARK    3  A    between atoms: N_6  and  C_7
REMARK    4  A    between atoms: C_17  and  O_18
REMARK                            x       y       z     vdW  Elec       q    Type
REMARK                         _______ _______ _______ _____ _____    ______ ____
ROOT
ATOM      1  C   UNL     1       4.091   6.520  17.880  0.00  0.00    +0.000 C 
ATOM      2  N   UNL     1       4.136   5.149  18.349  0.00  0.00    +0.000 N 
ATOM      3  C   UNL     1       4.899   4.114  17.837  0.00  0.00    +0.000 A 
ATOM      4  C   UNL     1       4.606   2.998  18.611  0.00  0.00    +0.000 A 
ATOM      5  C   UNL     1       3.627   3.347  19.568  0.00  0.00    +0.000 A 
ATOM      6  C   UNL     1       2.956   2.624  20.577  0.00  0.00    +0.000 A 
ATOM      7  C   UNL     1       2.009   3.285  21.358  0.00  0.00    +0.000 A 
ATOM      8  C   UNL     1       1.726   4.630  21.170  0.00  0.00    +0.000 A 
ATOM      9  C   UNL     1       2.391   5.365  20.185  0.00  0.00    +0.000 A 
ATOM     10  C   UNL     1       3.335   4.698  19.389  0.00  0.00    +0.000 A 
ENDROOT
BRANCH   3  11
ATOM     11  C   UNL     1       5.846   4.203  16.732  0.00  0.00    +0.000 C 
ATOM     12  O   UNL     1       7.039   4.414  16.915  0.00  0.00    +0.000 OA
ATOM     13  N   UNL     1       5.244   4.085  15.486  0.00  0.00    +0.000 N 
ATOM     14  H   UNL     1       4.233   4.126  15.477  0.00  0.00    +0.000 HD
BRANCH  13  15
ATOM     15  C   UNL     1       5.889   4.162  14.232  0.00  0.00    +0.000 A 
ATOM     16  C   UNL     1       5.510   3.393  13.129  0.00  0.00    +0.000 A 
ATOM     17  C   UNL     1       6.244   3.436  11.941  0.00  0.00    +0.000 A 
ATOM     18  C   UNL     1       7.364   4.257  11.844  0.00  0.00    +0.000 A 
ATOM     19  C   UNL     1       7.716   5.065  12.922  0.00  0.00    +0.000 A 
ATOM     20 CL   UNL     1       9.102   6.080  12.805  0.00  0.00    +0.000 Cl
ATOM     21  C   UNL     1       6.974   5.040  14.105  0.00  0.00    +0.000 A 
ENDBRANCH  13  15
ENDBRANCH   3  11
BRANCH   7  22
ATOM     22  O   UNL     1       1.321   2.624  22.335  0.00  0.00    +0.000 OA
ATOM     23  H   UNL     1       1.208   3.224  23.090  0.00  0.00    +0.000 HD
ENDBRANCH   7  22
TORSDOF 3
ENDMDL
MODEL 2
REMARK VINA RESULT:      -7.7      1.186      1.573
REMARK  Name = 
REMARK  4 active torsions:
REMARK  status: ('A' for Active; 'I' for Inactive)
REMARK    1  A    between atoms: C_1  and  N_2
REMARK    2  A    between atoms: C_3  and  C_4
REMARK    3  A    between atoms: N_6  and  C_7
REMARK    4  A    between atoms: C_17  and  O_18
REMARK                            x       y       z     vdW  Elec       q    Type
REMARK                         _______ _______ _______ _____ _____    ______ ____
ROOT
ATOM      1  C   UNL     1       4.036   6.544  17.781  0.00  0.00    +0.000 C 
ATOM      2  N   UNL     1       4.155   5.213  18.340  0.00  0.00    +0.000 N 
ATOM      3  C   UNL     1       5.019   4.209  17.936  0.00  0.00    +0.000 A 
ATOM      4  C   UNL     1       4.767   3.124  18.765  0.00  0.00    +0.000 A 
ATOM      5  C   UNL     1       3.714   3.455  19.647  0.00  0.00    +0.000 A 
ATOM      6  C   UNL     1       3.043   2.745  20.666  0.00  0.00    +0.000 A 
ATOM      7  C   UNL     1       2.009   3.379  21.354  0.00  0.00    +0.000 A 
ATOM      8  C   UNL     1       1.639   4.685  21.065  0.00  0.00    +0.000 A 
ATOM      9  C   UNL     1       2.301   5.407  20.068  0.00  0.00    +0.000 A 
ATOM     10  C   UNL     1       3.333   4.766  19.366  0.00  0.00    +0.000 A 
ENDROOT
BRANCH   3  11
ATOM     11  C   UNL     1       6.016   4.303  16.877  0.00  0.00    +0.000 C 
ATOM     12  O   UNL     1       7.185   4.589  17.108  0.00  0.00    +0.000 OA
ATOM     13  N   UNL     1       5.487   4.096  15.609  0.00  0.00    +0.000 N 
ATOM     14  H   UNL     1       4.477   4.079  15.548  0.00  0.00    +0.000 HD
BRANCH  13  15
ATOM     15  C   UNL     1       6.191   4.154  14.386  0.00  0.00    +0.000 A 
ATOM     16  C   UNL     1       7.093   5.173  14.071  0.00  0.00    +0.000 A 
ATOM     17  C   UNL     1       7.688   5.236  12.808  0.00  0.00    +0.000 A 
ATOM     18  C   UNL     1       7.390   4.272  11.849  0.00  0.00    +0.000 A 
ATOM     19  C   UNL     1       6.533   3.224  12.175  0.00  0.00    +0.000 A 
ATOM     20 CL   UNL     1       6.161   2.032  10.990  0.00  0.00    +0.000 Cl
ATOM     21  C   UNL     1       5.950   3.146  13.443  0.00  0.00    +0.000 A 
ENDBRANCH  13  15
ENDBRANCH   3  11
BRANCH   7  22
ATOM     22  O   UNL     1       1.319   2.729  22.337  0.00  0.00    +0.000 OA
ATOM     23  H   UNL     1       1.935   2.148  22.812  0.00  0.00    +0.000 HD
ENDBRANCH   7  22
TORSDOF 3
ENDMDL
MODEL 3
REMARK VINA RESULT:      -7.6      3.923      5.337
REMARK  Name = 
REMARK  4 active torsions:
REMARK  status: ('A' for Active; 'I' for Inactive)
REMARK    1  A    between atoms: C_1  and  N_2
REMARK    2  A    between atoms: C_3  and  C_4
REMARK    3  A    between atoms: N_6  and  C_7
REMARK    4  A    between atoms: C_17  and  O_18
REMARK                            x       y       z     vdW  Elec       q    Type
REMARK                         _______ _______ _______ _____ _____    ______ ____
ROOT
ATOM      1  C   UNL     1       1.988   9.062  17.689  0.00  0.00    +0.000 C 
ATOM      2  N   UNL     1       1.776   8.551  19.028  0.00  0.00    +0.000 N 
ATOM      3  C   UNL     1       2.150   7.313  19.521  0.00  0.00    +0.000 A 
ATOM      4  C   UNL     1       1.736   7.282  20.846  0.00  0.00    +0.000 A 
ATOM      5  C   UNL     1       1.067   8.490  21.147  0.00  0.00    +0.000 A 
ATOM      6  C   UNL     1       0.434   8.986  22.306  0.00  0.00    +0.000 A 
ATOM      7  C   UNL     1      -0.159  10.247  22.258  0.00  0.00    +0.000 A 
ATOM      8  C   UNL     1      -0.128  11.019  21.106  0.00  0.00    +0.000 A 
ATOM      9  C   UNL     1       0.506  10.550  19.952  0.00  0.00    +0.000 A 
ATOM     10  C   UNL     1       1.092   9.275  19.995  0.00  0.00    +0.000 A 
ENDROOT
BRANCH   3  11
ATOM     11  C   UNL     1       2.871   6.276  18.793  0.00  0.00    +0.000 C 
ATOM     12  O   UNL     1       2.356   5.198  18.517  0.00  0.00    +0.000 OA
ATOM     13  N   UNL     1       4.187   6.620  18.511  0.00  0.00    +0.000 N 
ATOM     14  H   UNL     1       4.538   7.446  18.979  0.00  0.00    +0.000 HD
BRANCH  13  15
ATOM     15  C   UNL     1       5.141   5.817  17.850  0.00  0.00    +0.000 A 
ATOM     16  C   UNL     1       6.345   5.419  18.438  0.00  0.00    +0.000 A 
ATOM     17  C   UNL     1       7.297   4.707  17.706  0.00  0.00    +0.000 A 
ATOM     18  C   UNL     1       7.051   4.379  16.375  0.00  0.00    +0.000 A 
ATOM     19  C   UNL     1       5.832   4.727  15.799  0.00  0.00    +0.000 A 
ATOM     20 CL   UNL     1       5.525   4.325  14.153  0.00  0.00    +0.000 Cl
ATOM     21  C   UNL     1       4.868   5.422  16.534  0.00  0.00    +0.000 A 
ENDBRANCH  13  15
ENDBRANCH   3  11
BRANCH   7  22
ATOM     22  O   UNL     1      -0.799  10.763  23.348  0.00  0.00    +0.000 OA
ATOM     23  H   UNL     1      -0.689  10.145  24.090  0.00  0.00    +0.000 HD
ENDBRANCH   7  22
TORSDOF 3
ENDMDL
MODEL 4
REMARK VINA RESULT:      -7.4      4.869      6.810
REMARK  Name = 
REMARK  4 active torsions:
REMARK  status: ('A' for Active; 'I' for Inactive)
REMARK    1  A    between atoms: C_1  and  N_2
REMARK    2  A    between atoms: C_3  and  C_4
REMARK    3  A    between atoms: N_6  and  C_7
REMARK    4  A    between atoms: C_17  and  O_18
REMARK                            x       y       z     vdW  Elec       q    Type
REMARK                         _______ _______ _______ _____ _____    ______ ____
ROOT
ATOM      1  C   UNL     1       1.686   9.516  17.926  0.00  0.00    +0.000 C 
ATOM      2  N   UNL     1       1.434   9.097  19.290  0.00  0.00    +0.000 N 
ATOM      3  C   UNL     1       1.773   7.887  19.871  0.00  0.00    +0.000 A 
ATOM      4  C   UNL     1       1.329   7.951  21.185  0.00  0.00    +0.000 A 
ATOM      5  C   UNL     1       0.677   9.187  21.391  0.00  0.00    +0.000 A 
ATOM      6  C   UNL     1       0.027   9.769  22.500  0.00  0.00    +0.000 A 
ATOM      7  C   UNL     1      -0.540  11.035  22.357  0.00  0.00    +0.000 A 
ATOM      8  C   UNL     1      -0.468  11.730  21.158  0.00  0.00    +0.000 A 
ATOM      9  C   UNL     1       0.183  11.174  20.053  0.00  0.00    +0.000 A 
ATOM     10  C   UNL     1       0.743   9.895  20.192  0.00  0.00    +0.000 A 
ENDROOT
BRANCH   3  11
ATOM     11  C   UNL     1       2.489   6.792  19.229  0.00  0.00    +0.000 C 
ATOM     12  O   UNL     1       3.372   6.989  18.402  0.00  0.00    +0.000 OA
ATOM     13  N   UNL     1       2.027   5.539  19.610  0.00  0.00    +0.000 N 
ATOM     14  H   UNL     1       1.161   5.528  20.134  0.00  0.00    +0.000 HD
BRANCH  13  15
ATOM     15  C   UNL     1       2.495   4.293  19.139  0.00  0.00    +0.000 A 
ATOM     16  C   UNL     1       2.020   3.689  17.972  0.00  0.00    +0.000 A 
ATOM     17  C   UNL     1       2.446   2.410  17.605  0.00  0.00    +0.000 A 
ATOM     18  C   UNL     1       3.359   1.725  18.401  0.00  0.00    +0.000 A 
ATOM     19  C   UNL     1       3.876   2.343  19.537  0.00  0.00    +0.000 A 
ATOM     20 CL   UNL     1       5.005   1.496  20.524  0.00  0.00    +0.000 Cl
ATOM     21  C   UNL     1       3.468   3.629  19.898  0.00  0.00    +0.000 A 
ENDBRANCH  13  15
ENDBRANCH   3  11
BRANCH   7  22
ATOM     22  O   UNL     1      -1.193  11.632  23.396  0.00  0.00    +0.000 OA
ATOM     23  H   UNL     1      -1.304  10.978  24.106  0.00  0.00    +0.000 HD
ENDBRANCH   7  22
TORSDOF 3
ENDMDL
MODEL 5
REMARK VINA RESULT:      -7.4      4.438      8.499
REMARK  Name = 
REMARK  4 active torsions:
REMARK  status: ('A' for Active; 'I' for Inactive)
REMARK    1  A    between atoms: C_1  and  N_2
REMARK    2  A    between atoms: C_3  and  C_4
REMARK    3  A    between atoms: N_6  and  C_7
REMARK    4  A    between atoms: C_17  and  O_18
REMARK                            x       y       z     vdW  Elec       q    Type
REMARK                         _______ _______ _______ _____ _____    ______ ____
ROOT
ATOM      1  C   UNL     1       2.852   3.748  19.274  0.00  0.00    +0.000 C 
ATOM      2  N   UNL     1       3.356   4.906  18.564  0.00  0.00    +0.000 N 
ATOM      3  C   UNL     1       3.049   6.234  18.804  0.00  0.00    +0.000 A 
ATOM      4  C   UNL     1       3.771   6.972  17.876  0.00  0.00    +0.000 A 
ATOM      5  C   UNL     1       4.484   6.086  17.038  0.00  0.00    +0.000 A 
ATOM      6  C   UNL     1       5.342   6.273  15.934  0.00  0.00    +0.000 A 
ATOM      7  C   UNL     1       5.882   5.151  15.306  0.00  0.00    +0.000 A 
ATOM      8  C   UNL     1       5.601   3.867  15.751  0.00  0.00    +0.000 A 
ATOM      9  C   UNL     1       4.764   3.663  16.851  0.00  0.00    +0.000 A 
ATOM     10  C   UNL     1       4.209   4.791  17.475  0.00  0.00    +0.000 A 
ENDROOT
BRANCH   3  11
ATOM     11  C   UNL     1       2.174   6.742  19.854  0.00  0.00    +0.000 C 
ATOM     12  O   UNL     1       1.631   5.999  20.663  0.00  0.00    +0.000 OA
ATOM     13  N   UNL     1       1.988   8.117  19.792  0.00  0.00    +0.000 N 
ATOM     14  H   UNL     1       2.325   8.572  18.953  0.00  0.00    +0.000 HD
BRANCH  13  15
ATOM     15  C   UNL     1       1.175   8.893  20.646  0.00  0.00    +0.000 A 
ATOM     16  C   UNL     1       1.156   8.737  22.035  0.00  0.00    +0.000 A 
ATOM     17  C   UNL     1       0.261   9.462  22.824  0.00  0.00    +0.000 A 
ATOM     18  C   UNL     1      -0.623  10.359  22.230  0.00  0.00    +0.000 A 
ATOM     19  C   UNL     1      -0.574  10.558  20.852  0.00  0.00    +0.000 A 
ATOM     20 CL   UNL     1      -1.667  11.664  20.115  0.00  0.00    +0.000 Cl
ATOM     21  C   UNL     1       0.333   9.849  20.061  0.00  0.00    +0.000 A 
ENDBRANCH  13  15
ENDBRANCH   3  11
BRANCH   7  22
ATOM     22  O   UNL     1       6.704   5.280  14.224  0.00  0.00    +0.000 OA
ATOM     23  H   UNL     1       6.865   4.397  13.854  0.00  0.00    +0.000 HD
ENDBRANCH   7  22
TORSDOF 3
ENDMDL
MODEL 6
REMARK VINA RESULT:      -7.3      4.994      8.255
REMARK  Name = 
REMARK  4 active torsions:
REMARK  status: ('A' for Active; 'I' for Inactive)
REMARK    1  A    between atoms: C_1  and  N_2
REMARK    2  A    between atoms: C_3  and  C_4
REMARK    3  A    between atoms: N_6  and  C_7
REMARK    4  A    between atoms: C_17  and  O_18
REMARK                            x       y       z     vdW  Elec       q    Type
REMARK                         _______ _______ _______ _____ _____    ______ ____
ROOT
ATOM      1  C   UNL     1       2.017   4.888  18.501  0.00  0.00    +0.000 C 
ATOM      2  N   UNL     1       3.039   5.764  17.964  0.00  0.00    +0.000 N 
ATOM      3  C   UNL     1       3.089   7.145  18.053  0.00  0.00    +0.000 A 
ATOM      4  C   UNL     1       4.247   7.534  17.393  0.00  0.00    +0.000 A 
ATOM      5  C   UNL     1       4.879   6.388  16.861  0.00  0.00    +0.000 A 
ATOM      6  C   UNL     1       6.049   6.192  16.095  0.00  0.00    +0.000 A 
ATOM      7  C   UNL     1       6.390   4.896  15.712  0.00  0.00    +0.000 A 
ATOM      8  C   UNL     1       5.613   3.805  16.075  0.00  0.00    +0.000 A 
ATOM      9  C   UNL     1       4.459   3.978  16.845  0.00  0.00    +0.000 A 
ATOM     10  C   UNL     1       4.108   5.284  17.220  0.00  0.00    +0.000 A 
ENDROOT
BRANCH   3  11
ATOM     11  C   UNL     1       2.131   8.001  18.742  0.00  0.00    +0.000 C 
ATOM     12  O   UNL     1       1.843   7.836  19.922  0.00  0.00    +0.000 OA
ATOM     13  N   UNL     1       1.557   8.957  17.913  0.00  0.00    +0.000 N 
ATOM     14  H   UNL     1       1.729   8.843  16.922  0.00  0.00    +0.000 HD
BRANCH  13  15
ATOM     15  C   UNL     1       0.577   9.905  18.278  0.00  0.00    +0.000 A 
ATOM     16  C   UNL     1       0.847  11.012  19.087  0.00  0.00    +0.000 A 
ATOM     17  C   UNL     1      -0.180  11.864  19.499  0.00  0.00    +0.000 A 
ATOM     18  C   UNL     1      -1.491  11.620  19.098  0.00  0.00    +0.000 A 
ATOM     19  C   UNL     1      -1.759  10.549  18.249  0.00  0.00    +0.000 A 
ATOM     20 CL   UNL     1      -3.379  10.243  17.754  0.00  0.00    +0.000 Cl
ATOM     21  C   UNL     1      -0.732   9.705  17.819  0.00  0.00    +0.000 A 
ENDBRANCH  13  15
ENDBRANCH   3  11
BRANCH   7  22
ATOM     22  O   UNL     1       7.502   4.658  14.957  0.00  0.00    +0.000 OA
ATOM     23  H   UNL     1       8.182   4.263  15.528  0.00  0.00    +0.000 HD
ENDBRANCH   7  22
TORSDOF 3
ENDMDL
MODEL 7
REMARK VINA RESULT:      -7.3      1.894      2.715
REMARK  Name = 
REMARK  4 active torsions:
REMARK  status: ('A' for Active; 'I' for Inactive)
REMARK    1  A    between atoms: C_1  and  N_2
REMARK    2  A    between atoms: C_3  and  C_4
REMARK    3  A    between atoms: N_6  and  C_7
REMARK    4  A    between atoms: C_17  and  O_18
REMARK                            x       y       z     vdW  Elec       q    Type
REMARK                         _______ _______ _______ _____ _____    ______ ____
ROOT
ATOM      1  C   UNL     1       3.722   2.673  18.134  0.00  0.00    +0.000 C 
ATOM      2  N   UNL     1       3.764   4.118  18.237  0.00  0.00    +0.000 N 
ATOM      3  C   UNL     1       4.628   4.979  17.582  0.00  0.00    +0.000 A 
ATOM      4  C   UNL     1       4.285   6.260  17.995  0.00  0.00    +0.000 A 
ATOM      5  C   UNL     1       3.238   6.173  18.941  0.00  0.00    +0.000 A 
ATOM      6  C   UNL     1       2.527   7.133  19.692  0.00  0.00    +0.000 A 
ATOM      7  C   UNL     1       1.536   6.696  20.570  0.00  0.00    +0.000 A 
ATOM      8  C   UNL     1       1.233   5.349  20.710  0.00  0.00    +0.000 A 
ATOM      9  C   UNL     1       1.918   4.386  19.964  0.00  0.00    +0.000 A 
ATOM     10  C   UNL     1       2.925   4.823  19.089  0.00  0.00    +0.000 A 
ENDROOT
BRANCH   3  11
ATOM     11  C   UNL     1       5.658   4.603  16.622  0.00  0.00    +0.000 C 
ATOM     12  O   UNL     1       6.792   4.295  16.972  0.00  0.00    +0.000 OA
ATOM     13  N   UNL     1       5.234   4.691  15.302  0.00  0.00    +0.000 N 
ATOM     14  H   UNL     1       4.348   5.157  15.153  0.00  0.00    +0.000 HD
BRANCH  13  15
ATOM     15  C   UNL     1       6.008   4.425  14.152  0.00  0.00    +0.000 A 
ATOM     16  C   UNL     1       7.097   5.210  13.765  0.00  0.00    +0.000 A 
ATOM     17  C   UNL     1       7.768   4.960  12.565  0.00  0.00    +0.000 A 
ATOM     18  C   UNL     1       7.358   3.915  11.743  0.00  0.00    +0.000 A 
ATOM     19  C   UNL     1       6.307   3.096  12.148  0.00  0.00    +0.000 A 
ATOM     20 CL   UNL     1       5.796   1.804  11.131  0.00  0.00    +0.000 Cl
ATOM     21  C   UNL     1       5.645   3.330  13.356  0.00  0.00    +0.000 A 
ENDBRANCH  13  15
ENDBRANCH   3  11
BRANCH   7  22
ATOM     22  O   UNL     1       0.833   7.585  21.331  0.00  0.00    +0.000 OA
ATOM     23  H   UNL     1      -0.024   7.746  20.902  0.00  0.00    +0.000 HD
ENDBRANCH   7  22
TORSDOF 3
ENDMDL
MODEL 8
REMARK VINA RESULT:      -7.2      4.538      8.339
REMARK  Name = 
REMARK  4 active torsions:
REMARK  status: ('A' for Active; 'I' for Inactive)
REMARK    1  A    between atoms: C_1  and  N_2
REMARK    2  A    between atoms: C_3  and  C_4
REMARK    3  A    between atoms: N_6  and  C_7
REMARK    4  A    between atoms: C_17  and  O_18
REMARK                            x       y       z     vdW  Elec       q    Type
REMARK                         _______ _______ _______ _____ _____    ______ ____
ROOT
ATOM      1  C   UNL     1       2.480   4.002  18.286  0.00  0.00    +0.000 C 
ATOM      2  N   UNL     1       3.380   5.078  17.921  0.00  0.00    +0.000 N 
ATOM      3  C   UNL     1       3.326   6.395  18.347  0.00  0.00    +0.000 A 
ATOM      4  C   UNL     1       4.390   7.043  17.733  0.00  0.00    +0.000 A 
ATOM      5  C   UNL     1       5.064   6.127  16.894  0.00  0.00    +0.000 A 
ATOM      6  C   UNL     1       6.176   6.238  16.032  0.00  0.00    +0.000 A 
ATOM      7  C   UNL     1       6.586   5.113  15.318  0.00  0.00    +0.000 A 
ATOM      8  C   UNL     1       5.932   3.895  15.447  0.00  0.00    +0.000 A 
ATOM      9  C   UNL     1       4.837   3.764  16.306  0.00  0.00    +0.000 A 
ATOM     10  C   UNL     1       4.416   4.899  17.015  0.00  0.00    +0.000 A 
ENDROOT
BRANCH   3  11
ATOM     11  C   UNL     1       2.365   6.960  19.285  0.00  0.00    +0.000 C 
ATOM     12  O   UNL     1       1.895   6.305  20.208  0.00  0.00    +0.000 OA
ATOM     13  N   UNL     1       2.012   8.269  18.983  0.00  0.00    +0.000 N 
ATOM     14  H   UNL     1       2.313   8.611  18.080  0.00  0.00    +0.000 HD
BRANCH  13  15
ATOM     15  C   UNL     1       1.084   9.071  19.683  0.00  0.00    +0.000 A 
ATOM     16  C   UNL     1       0.317  10.065  19.070  0.00  0.00    +0.000 A 
ATOM     17  C   UNL     1      -0.513  10.896  19.826  0.00  0.00    +0.000 A 
ATOM     18  C   UNL     1      -0.589  10.734  21.206  0.00  0.00    +0.000 A 
ATOM     19  C   UNL     1       0.132   9.711  21.817  0.00  0.00    +0.000 A 
ATOM     20 CL   UNL     1       0.042   9.511  23.524  0.00  0.00    +0.000 Cl
ATOM     21  C   UNL     1       0.949   8.866  21.062  0.00  0.00    +0.000 A 
ENDBRANCH  13  15
ENDBRANCH   3  11
BRANCH   7  22
ATOM     22  O   UNL     1       7.645   5.175  14.459  0.00  0.00    +0.000 OA
ATOM     23  H   UNL     1       8.384   5.611  14.914  0.00  0.00    +0.000 HD
ENDBRANCH   7  22
TORSDOF 3
ENDMDL
MODEL 9
REMARK VINA RESULT:      -7.2      4.349      8.333
REMARK  Name = 
REMARK  4 active torsions:
REMARK  status: ('A' for Active; 'I' for Inactive)
REMARK    1  A    between atoms: C_1  and  N_2
REMARK    2  A    between atoms: C_3  and  C_4
REMARK    3  A    between atoms: N_6  and  C_7
REMARK    4  A    between atoms: C_17  and  O_18
REMARK                            x       y       z     vdW  Elec       q    Type
REMARK                         _______ _______ _______ _____ _____    ______ ____
ROOT
ATOM      1  C   UNL     1       1.635   4.560  17.754  0.00  0.00    +0.000 C 
ATOM      2  N   UNL     1       2.915   5.084  18.188  0.00  0.00    +0.000 N 
ATOM      3  C   UNL     1       3.148   5.970  19.226  0.00  0.00    +0.000 A 
ATOM      4  C   UNL     1       4.521   6.175  19.259  0.00  0.00    +0.000 A 
ATOM      5  C   UNL     1       5.120   5.445  18.207  0.00  0.00    +0.000 A 
ATOM      6  C   UNL     1       6.451   5.302  17.761  0.00  0.00    +0.000 A 
ATOM      7  C   UNL     1       6.703   4.495  16.653  0.00  0.00    +0.000 A 
ATOM      8  C   UNL     1       5.679   3.829  15.994  0.00  0.00    +0.000 A 
ATOM      9  C   UNL     1       4.357   3.948  16.430  0.00  0.00    +0.000 A 
ATOM     10  C   UNL     1       4.101   4.770  17.538  0.00  0.00    +0.000 A 
ENDROOT
BRANCH   3  11
ATOM     11  C   UNL     1       2.145   6.533  20.121  0.00  0.00    +0.000 C 
ATOM     12  O   UNL     1       1.387   5.827  20.776  0.00  0.00    +0.000 OA
ATOM     13  N   UNL     1       2.112   7.922  20.100  0.00  0.00    +0.000 N 
ATOM     14  H   UNL     1       2.645   8.366  19.363  0.00  0.00    +0.000 HD
BRANCH  13  15
ATOM     15  C   UNL     1       1.234   8.752  20.830  0.00  0.00    +0.000 A 
ATOM     16  C   UNL     1       1.112   8.701  22.221  0.00  0.00    +0.000 A 
ATOM     17  C   UNL     1       0.157   9.475  22.884  0.00  0.00    +0.000 A 
ATOM     18  C   UNL     1      -0.684  10.315  22.159  0.00  0.00    +0.000 A 
ATOM     19  C   UNL     1      -0.533  10.410  20.778  0.00  0.00    +0.000 A 
ATOM     20 CL   UNL     1      -1.573  11.446  19.879  0.00  0.00    +0.000 Cl
ATOM     21  C   UNL     1       0.434   9.652  20.113  0.00  0.00    +0.000 A 
ENDBRANCH  13  15
ENDBRANCH   3  11
BRANCH   7  22
ATOM     22  O   UNL     1       7.971   4.339  16.172  0.00  0.00    +0.000 OA
ATOM     23  H   UNL     1       8.229   3.409  16.282  0.00  0.00    +0.000 HD
ENDBRANCH   7  22
TORSDOF 3
ENDMDL
