MODEL 1
REMARK VINA RESULT:      -9.7      0.000      0.000
REMARK  Name = 
REMARK  4 active torsions:
REMARK  status: ('A' for Active; 'I' for Inactive)
REMARK    1  A    between atoms: C_2  and  C_24
REMARK    2  A    between atoms: N_6  and  C_7
REMARK    3  A    between atoms: C_7  and  C_8
REMARK    4  A    between atoms: C_11  and  C_12
REMARK                            x       y       z     vdW  Elec       q    Type
REMARK                         _______ _______ _______ _____ _____    ______ ____
ROOT
ATOM      1  O   UNL     1       1.568   7.828  21.592  0.00  0.00    +0.000 OA
ATOM      2  C   UNL     1       1.416   8.265  20.456  0.00  0.00    +0.000 C 
ATOM      3  N   UNL     1       1.948   7.740  19.300  0.00  0.00    +0.000 N 
ATOM      4  C   UNL     1       2.704   6.588  19.336  0.00  0.00    +0.000 A 
ATOM      5  N   UNL     1       3.881   6.556  18.710  0.00  0.00    +0.000 NA
ATOM      6  N   UNL     1       4.381   5.337  19.032  0.00  0.00    +0.000 N 
ATOM      7  C   UNL     1       3.479   4.518  19.670  0.00  0.00    +0.000 A 
ATOM      8  C   UNL     1       3.531   3.171  20.061  0.00  0.00    +0.000 A 
ATOM      9  C   UNL     1       2.398   2.630  20.680  0.00  0.00    +0.000 A 
ATOM     10  C   UNL     1       1.266   3.408  20.908  0.00  0.00    +0.000 A 
ATOM     11  C   UNL     1       1.240   4.759  20.537  0.00  0.00    +0.000 A 
ATOM     12  C   UNL     1       2.368   5.324  19.904  0.00  0.00    +0.000 A 
ATOM     13  H   UNL     1       2.238   8.390  18.582  0.00  0.00    +0.000 HD
ENDROOT
BRANCH   2  14
ATOM     14  C   UNL     1       0.653   9.526  20.287  0.00  0.00    +0.000 A 
ATOM     15  C   UNL     1       0.407  10.339  21.403  0.00  0.00    +0.000 A 
ATOM     16  C   UNL     1      -0.399  11.477  21.280  0.00  0.00    +0.000 A 
ATOM     17  C   UNL     1      -0.969  11.788  20.050  0.00  0.00    +0.000 A 
ATOM     18  C   UNL     1      -0.721  10.972  18.951  0.00  0.00    +0.000 A 
ATOM     19  F   UNL     1      -1.295  11.265  17.776  0.00  0.00    +0.000 F 
ATOM     20  C   UNL     1       0.092   9.848  19.050  0.00  0.00    +0.000 A 
ENDBRANCH   2  14
BRANCH   6  21
ATOM     21  C   UNL     1       5.769   5.020  18.709  0.00  0.00    +0.000 C 
BRANCH  21  22
ATOM     22  C   UNL     1       5.919   4.593  17.270  0.00  0.00    +0.000 A 
ATOM     23  C   UNL     1       7.031   5.013  16.524  0.00  0.00    +0.000 A 
ATOM     24  C   UNL     1       7.124   4.724  15.163  0.00  0.00    +0.000 A 
ATOM     25  C   UNL     1       6.112   3.998  14.521  0.00  0.00    +0.000 A 
ATOM     26  C   UNL     1       5.039   3.512  15.282  0.00  0.00    +0.000 A 
ATOM     27  C   UNL     1       4.943   3.805  16.645  0.00  0.00    +0.000 A 
BRANCH  25  28
ATOM     28  C   UNL     1       6.144   3.778  13.029  0.00  0.00    +0.000 C 
ATOM     29  F   UNL     1       6.473   2.506  12.671  0.00  0.00    +0.000 F 
ATOM     30  F   UNL     1       4.948   4.038  12.433  0.00  0.00    +0.000 F 
ATOM     31  F   UNL     1       7.052   4.583  12.409  0.00  0.00    +0.000 F 
ENDBRANCH  25  28
ENDBRANCH  21  22
ENDBRANCH   6  21
TORSDOF 4
ENDMDL
MODEL 2
REMARK VINA RESULT:      -9.6      0.557      1.255
REMARK  Name = 
REMARK  4 active torsions:
REMARK  status: ('A' for Active; 'I' for Inactive)
REMARK    1  A    between atoms: C_2  and  C_24
REMARK    2  A    between atoms: N_6  and  C_7
REMARK    3  A    between atoms: C_7  and  C_8
REMARK    4  A    between atoms: C_11  and  C_12
REMARK                            x       y       z     vdW  Elec       q    Type
REMARK                         _______ _______ _______ _____ _____    ______ ____
ROOT
ATOM      1  O   UNL     1       1.852   8.067  21.117  0.00  0.00    +0.000 OA
ATOM      2  C   UNL     1       1.609   8.411  19.965  0.00  0.00    +0.000 C 
ATOM      3  N   UNL     1       2.042   7.788  18.817  0.00  0.00    +0.000 N 
ATOM      4  C   UNL     1       2.793   6.634  18.886  0.00  0.00    +0.000 A 
ATOM      5  N   UNL     1       3.915   6.539  18.170  0.00  0.00    +0.000 NA
ATOM      6  N   UNL     1       4.435   5.345  18.550  0.00  0.00    +0.000 N 
ATOM      7  C   UNL     1       3.586   4.590  19.326  0.00  0.00    +0.000 A 
ATOM      8  C   UNL     1       3.664   3.280  19.821  0.00  0.00    +0.000 A 
ATOM      9  C   UNL     1       2.584   2.804  20.573  0.00  0.00    +0.000 A 
ATOM     10  C   UNL     1       1.478   3.610  20.828  0.00  0.00    +0.000 A 
ATOM     11  C   UNL     1       1.426   4.925  20.350  0.00  0.00    +0.000 A 
ATOM     12  C   UNL     1       2.500   5.424  19.582  0.00  0.00    +0.000 A 
ATOM     13  H   UNL     1       2.274   8.373  18.027  0.00  0.00    +0.000 HD
ENDROOT
BRANCH   2  14
ATOM     14  C   UNL     1       0.839   9.662  19.756  0.00  0.00    +0.000 A 
ATOM     15  C   UNL     1       0.788  10.620  20.778  0.00  0.00    +0.000 A 
ATOM     16  C   UNL     1      -0.018  11.756  20.637  0.00  0.00    +0.000 A 
ATOM     17  C   UNL     1      -0.780  11.922  19.485  0.00  0.00    +0.000 A 
ATOM     18  C   UNL     1      -0.724  10.963  18.479  0.00  0.00    +0.000 A 
ATOM     19  F   UNL     1      -1.481  11.117  17.385  0.00  0.00    +0.000 F 
ATOM     20  C   UNL     1       0.085   9.836  18.594  0.00  0.00    +0.000 A 
ENDBRANCH   2  14
BRANCH   6  21
ATOM     21  C   UNL     1       5.790   4.987  18.142  0.00  0.00    +0.000 C 
BRANCH  21  22
ATOM     22  C   UNL     1       5.879   4.762  16.653  0.00  0.00    +0.000 A 
ATOM     23  C   UNL     1       4.822   4.139  15.972  0.00  0.00    +0.000 A 
ATOM     24  C   UNL     1       4.939   3.819  14.620  0.00  0.00    +0.000 A 
ATOM     25  C   UNL     1       6.110   4.126  13.917  0.00  0.00    +0.000 A 
ATOM     26  C   UNL     1       7.136   4.818  14.577  0.00  0.00    +0.000 A 
ATOM     27  C   UNL     1       7.022   5.135  15.933  0.00  0.00    +0.000 A 
BRANCH  25  28
ATOM     28  C   UNL     1       6.294   3.683  12.486  0.00  0.00    +0.000 C 
ATOM     29  F   UNL     1       7.159   4.463  11.780  0.00  0.00    +0.000 F 
ATOM     30  F   UNL     1       6.767   2.411  12.385  0.00  0.00    +0.000 F 
ATOM     31  F   UNL     1       5.124   3.702  11.787  0.00  0.00    +0.000 F 
ENDBRANCH  25  28
ENDBRANCH  21  22
ENDBRANCH   6  21
TORSDOF 4
ENDMDL
MODEL 3
REMARK VINA RESULT:      -9.6      0.944      1.485
REMARK  Name = 
REMARK  4 active torsions:
REMARK  status: ('A' for Active; 'I' for Inactive)
REMARK    1  A    between atoms: C_2  and  C_24
REMARK    2  A    between atoms: N_6  and  C_7
REMARK    3  A    between atoms: C_7  and  C_8
REMARK    4  A    between atoms: C_11  and  C_12
REMARK                            x       y       z     vdW  Elec       q    Type
REMARK                         _______ _______ _______ _____ _____    ______ ____
ROOT
ATOM      1  O   UNL     1       1.865   7.903  21.218  0.00  0.00    +0.000 OA
ATOM      2  C   UNL     1       1.621   8.280  20.076  0.00  0.00    +0.000 C 
ATOM      3  N   UNL     1       2.055   7.693  18.910  0.00  0.00    +0.000 N 
ATOM      4  C   UNL     1       2.810   6.540  18.945  0.00  0.00    +0.000 A 
ATOM      5  N   UNL     1       3.932   6.468  18.227  0.00  0.00    +0.000 NA
ATOM      6  N   UNL     1       4.455   5.265  18.572  0.00  0.00    +0.000 N 
ATOM      7  C   UNL     1       3.608   4.486  19.324  0.00  0.00    +0.000 A 
ATOM      8  C   UNL     1       3.690   3.162  19.781  0.00  0.00    +0.000 A 
ATOM      9  C   UNL     1       2.612   2.661  20.518  0.00  0.00    +0.000 A 
ATOM     10  C   UNL     1       1.503   3.456  20.797  0.00  0.00    +0.000 A 
ATOM     11  C   UNL     1       1.448   4.785  20.358  0.00  0.00    +0.000 A 
ATOM     12  C   UNL     1       2.520   5.309  19.605  0.00  0.00    +0.000 A 
ATOM     13  H   UNL     1       2.285   8.302  18.138  0.00  0.00    +0.000 HD
ENDROOT
BRANCH   2  14
ATOM     14  C   UNL     1       0.847   9.535  19.904  0.00  0.00    +0.000 A 
ATOM     15  C   UNL     1       1.162  10.401  18.847  0.00  0.00    +0.000 A 
ATOM     16  C   UNL     1       0.513  11.635  18.732  0.00  0.00    +0.000 A 
ATOM     17  C   UNL     1      -0.435  12.007  19.681  0.00  0.00    +0.000 A 
ATOM     18  C   UNL     1      -0.736  11.141  20.727  0.00  0.00    +0.000 A 
ATOM     19  F   UNL     1      -1.631  11.518  21.649  0.00  0.00    +0.000 F 
ATOM     20  C   UNL     1      -0.115   9.902  20.847  0.00  0.00    +0.000 A 
ENDBRANCH   2  14
BRANCH   6  21
ATOM     21  C   UNL     1       5.811   4.924  18.153  0.00  0.00    +0.000 C 
BRANCH  21  22
ATOM     22  C   UNL     1       5.893   4.709  16.662  0.00  0.00    +0.000 A 
ATOM     23  C   UNL     1       4.888   3.990  15.999  0.00  0.00    +0.000 A 
ATOM     24  C   UNL     1       5.009   3.684  14.643  0.00  0.00    +0.000 A 
ATOM     25  C   UNL     1       6.133   4.101  13.920  0.00  0.00    +0.000 A 
ATOM     26  C   UNL     1       7.101   4.886  14.563  0.00  0.00    +0.000 A 
ATOM     27  C   UNL     1       6.983   5.189  15.922  0.00  0.00    +0.000 A 
BRANCH  25  28
ATOM     28  C   UNL     1       6.331   3.679  12.485  0.00  0.00    +0.000 C 
ATOM     29  F   UNL     1       6.840   2.423  12.350  0.00  0.00    +0.000 F 
ATOM     30  F   UNL     1       5.175   3.695  11.766  0.00  0.00    +0.000 F 
ATOM     31  F   UNL     1       7.194   4.500  11.821  0.00  0.00    +0.000 F 
ENDBRANCH  25  28
ENDBRANCH  21  22
ENDBRANCH   6  21
TORSDOF 4
ENDMDL
MODEL 4
REMARK VINA RESULT:      -9.6      0.864      1.234
REMARK  Name = 
REMARK  4 active torsions:
REMARK  status: ('A' for Active; 'I' for Inactive)
REMARK    1  A    between atoms: C_2  and  C_24
REMARK    2  A    between atoms: N_6  and  C_7
REMARK    3  A    between atoms: C_7  and  C_8
REMARK    4  A    between atoms: C_11  and  C_12
REMARK                            x       y       z     vdW  Elec       q    Type
REMARK                         _______ _______ _______ _____ _____    ______ ____
ROOT
ATOM      1  O   UNL     1       1.554   7.866  21.551  0.00  0.00    +0.000 OA
ATOM      2  C   UNL     1       1.417   8.308  20.415  0.00  0.00    +0.000 C 
ATOM      3  N   UNL     1       1.958   7.786  19.263  0.00  0.00    +0.000 N 
ATOM      4  C   UNL     1       2.707   6.629  19.301  0.00  0.00    +0.000 A 
ATOM      5  N   UNL     1       3.890   6.593  18.687  0.00  0.00    +0.000 NA
ATOM      6  N   UNL     1       4.379   5.369  19.009  0.00  0.00    +0.000 N 
ATOM      7  C   UNL     1       3.466   4.553  19.635  0.00  0.00    +0.000 A 
ATOM      8  C   UNL     1       3.506   3.204  20.021  0.00  0.00    +0.000 A 
ATOM      9  C   UNL     1       2.364   2.668  20.625  0.00  0.00    +0.000 A 
ATOM     10  C   UNL     1       1.234   3.451  20.845  0.00  0.00    +0.000 A 
ATOM     11  C   UNL     1       1.220   4.803  20.480  0.00  0.00    +0.000 A 
ATOM     12  C   UNL     1       2.357   5.364  19.860  0.00  0.00    +0.000 A 
ATOM     13  H   UNL     1       2.259   8.437  18.551  0.00  0.00    +0.000 HD
ENDROOT
BRANCH   2  14
ATOM     14  C   UNL     1       0.663   9.574  20.244  0.00  0.00    +0.000 A 
ATOM     15  C   UNL     1       0.250   9.965  18.962  0.00  0.00    +0.000 A 
ATOM     16  C   UNL     1      -0.370  11.204  18.770  0.00  0.00    +0.000 A 
ATOM     17  C   UNL     1      -0.561  12.055  19.854  0.00  0.00    +0.000 A 
ATOM     18  C   UNL     1      -0.145  11.659  21.121  0.00  0.00    +0.000 A 
ATOM     19  F   UNL     1      -0.310  12.494  22.155  0.00  0.00    +0.000 F 
ATOM     20  C   UNL     1       0.457  10.423  21.334  0.00  0.00    +0.000 A 
ENDBRANCH   2  14
BRANCH   6  21
ATOM     21  C   UNL     1       5.769   5.046  18.699  0.00  0.00    +0.000 C 
BRANCH  21  22
ATOM     22  C   UNL     1       5.931   4.622  17.260  0.00  0.00    +0.000 A 
ATOM     23  C   UNL     1       7.026   5.079  16.512  0.00  0.00    +0.000 A 
ATOM     24  C   UNL     1       7.126   4.792  15.151  0.00  0.00    +0.000 A 
ATOM     25  C   UNL     1       6.139   4.030  14.512  0.00  0.00    +0.000 A 
ATOM     26  C   UNL     1       5.085   3.508  15.276  0.00  0.00    +0.000 A 
ATOM     27  C   UNL     1       4.982   3.800  16.639  0.00  0.00    +0.000 A 
BRANCH  25  28
ATOM     28  C   UNL     1       6.175   3.809  13.020  0.00  0.00    +0.000 C 
ATOM     29  F   UNL     1       6.530   2.543  12.664  0.00  0.00    +0.000 F 
ATOM     30  F   UNL     1       4.974   4.044  12.423  0.00  0.00    +0.000 F 
ATOM     31  F   UNL     1       7.067   4.631  12.399  0.00  0.00    +0.000 F 
ENDBRANCH  25  28
ENDBRANCH  21  22
ENDBRANCH   6  21
TORSDOF 4
ENDMDL
MODEL 5
REMARK VINA RESULT:      -9.5      0.991      1.222
REMARK  Name = 
REMARK  4 active torsions:
REMARK  status: ('A' for Active; 'I' for Inactive)
REMARK    1  A    between atoms: C_2  and  C_24
REMARK    2  A    between atoms: N_6  and  C_7
REMARK    3  A    between atoms: C_7  and  C_8
REMARK    4  A    between atoms: C_11  and  C_12
REMARK                            x       y       z     vdW  Elec       q    Type
REMARK                         _______ _______ _______ _____ _____    ______ ____
ROOT
ATOM      1  O   UNL     1       1.723   8.442  20.565  0.00  0.00    +0.000 OA
ATOM      2  C   UNL     1       1.526   8.683  19.379  0.00  0.00    +0.000 C 
ATOM      3  N   UNL     1       2.049   7.996  18.307  0.00  0.00    +0.000 N 
ATOM      4  C   UNL     1       2.848   6.891  18.505  0.00  0.00    +0.000 A 
ATOM      5  N   UNL     1       4.010   6.797  17.856  0.00  0.00    +0.000 NA
ATOM      6  N   UNL     1       4.563   5.663  18.356  0.00  0.00    +0.000 N 
ATOM      7  C   UNL     1       3.709   4.930  19.146  0.00  0.00    +0.000 A 
ATOM      8  C   UNL     1       3.822   3.667  19.747  0.00  0.00    +0.000 A 
ATOM      9  C   UNL     1       2.726   3.196  20.480  0.00  0.00    +0.000 A 
ATOM     10  C   UNL     1       1.572   3.963  20.614  0.00  0.00    +0.000 A 
ATOM     11  C   UNL     1       1.485   5.234  20.031  0.00  0.00    +0.000 A 
ATOM     12  C   UNL     1       2.574   5.725  19.280  0.00  0.00    +0.000 A 
ATOM     13  H   UNL     1       2.295   8.530  17.485  0.00  0.00    +0.000 HD
ENDROOT
BRANCH   2  14
ATOM     14  C   UNL     1       0.711   9.874  19.032  0.00  0.00    +0.000 A 
ATOM     15  C   UNL     1       1.034  11.119  19.592  0.00  0.00    +0.000 A 
ATOM     16  C   UNL     1       0.215  12.229  19.358  0.00  0.00    +0.000 A 
ATOM     17  C   UNL     1      -0.931  12.088  18.580  0.00  0.00    +0.000 A 
ATOM     18  C   UNL     1      -1.243  10.848  18.034  0.00  0.00    +0.000 A 
ATOM     19  F   UNL     1      -2.361  10.716  17.308  0.00  0.00    +0.000 F 
ATOM     20  C   UNL     1      -0.430   9.738  18.240  0.00  0.00    +0.000 A 
ENDBRANCH   2  14
BRANCH   6  21
ATOM     21  C   UNL     1       5.954   5.345  18.045  0.00  0.00    +0.000 C 
BRANCH  21  22
ATOM     22  C   UNL     1       6.100   4.813  16.641  0.00  0.00    +0.000 A 
ATOM     23  C   UNL     1       7.105   5.315  15.800  0.00  0.00    +0.000 A 
ATOM     24  C   UNL     1       7.178   4.918  14.465  0.00  0.00    +0.000 A 
ATOM     25  C   UNL     1       6.255   4.002  13.946  0.00  0.00    +0.000 A 
ATOM     26  C   UNL     1       5.298   3.442  14.805  0.00  0.00    +0.000 A 
ATOM     27  C   UNL     1       5.221   3.842  16.142  0.00  0.00    +0.000 A 
BRANCH  25  28
ATOM     28  C   UNL     1       6.251   3.653  12.478  0.00  0.00    +0.000 C 
ATOM     29  F   UNL     1       7.085   4.428  11.730  0.00  0.00    +0.000 F 
ATOM     30  F   UNL     1       6.623   2.365  12.242  0.00  0.00    +0.000 F 
ATOM     31  F   UNL     1       5.016   3.793  11.918  0.00  0.00    +0.000 F 
ENDBRANCH  25  28
ENDBRANCH  21  22
ENDBRANCH   6  21
TORSDOF 4
ENDMDL
MODEL 6
REMARK VINA RESULT:      -9.4      1.217      1.564
REMARK  Name = 
REMARK  4 active torsions:
REMARK  status: ('A' for Active; 'I' for Inactive)
REMARK    1  A    between atoms: C_2  and  C_24
REMARK    2  A    between atoms: N_6  and  C_7
REMARK    3  A    between atoms: C_7  and  C_8
REMARK    4  A    between atoms: C_11  and  C_12
REMARK                            x       y       z     vdW  Elec       q    Type
REMARK                         _______ _______ _______ _____ _____    ______ ____
ROOT
ATOM      1  O   UNL     1       1.679   8.566  20.617  0.00  0.00    +0.000 OA
ATOM      2  C   UNL     1       1.452   8.813  19.438  0.00  0.00    +0.000 C 
ATOM      3  N   UNL     1       1.958   8.140  18.349  0.00  0.00    +0.000 N 
ATOM      4  C   UNL     1       2.775   7.043  18.520  0.00  0.00    +0.000 A 
ATOM      5  N   UNL     1       3.922   6.968  17.844  0.00  0.00    +0.000 NA
ATOM      6  N   UNL     1       4.500   5.838  18.322  0.00  0.00    +0.000 N 
ATOM      7  C   UNL     1       3.673   5.088  19.125  0.00  0.00    +0.000 A 
ATOM      8  C   UNL     1       3.815   3.822  19.715  0.00  0.00    +0.000 A 
ATOM      9  C   UNL     1       2.742   3.333  20.468  0.00  0.00    +0.000 A 
ATOM     10  C   UNL     1       1.582   4.085  20.635  0.00  0.00    +0.000 A 
ATOM     11  C   UNL     1       1.467   5.359  20.064  0.00  0.00    +0.000 A 
ATOM     12  C   UNL     1       2.532   5.869  19.292  0.00  0.00    +0.000 A 
ATOM     13  H   UNL     1       2.179   8.683  17.526  0.00  0.00    +0.000 HD
ENDROOT
BRANCH   2  14
ATOM     14  C   UNL     1       0.616   9.997  19.119  0.00  0.00    +0.000 A 
ATOM     15  C   UNL     1      -0.640   9.814  18.521  0.00  0.00    +0.000 A 
ATOM     16  C   UNL     1      -1.395  10.922  18.120  0.00  0.00    +0.000 A 
ATOM     17  C   UNL     1      -0.888  12.205  18.302  0.00  0.00    +0.000 A 
ATOM     18  C   UNL     1       0.361  12.373  18.892  0.00  0.00    +0.000 A 
ATOM     19  F   UNL     1       0.852  13.610  19.040  0.00  0.00    +0.000 F 
ATOM     20  C   UNL     1       1.117  11.285  19.314  0.00  0.00    +0.000 A 
ENDBRANCH   2  14
BRANCH   6  21
ATOM     21  C   UNL     1       5.887   5.538  17.977  0.00  0.00    +0.000 C 
BRANCH  21  22
ATOM     22  C   UNL     1       5.997   4.938  16.597  0.00  0.00    +0.000 A 
ATOM     23  C   UNL     1       7.089   5.259  15.777  0.00  0.00    +0.000 A 
ATOM     24  C   UNL     1       7.144   4.806  14.459  0.00  0.00    +0.000 A 
ATOM     25  C   UNL     1       6.115   4.012  13.938  0.00  0.00    +0.000 A 
ATOM     26  C   UNL     1       5.062   3.627  14.781  0.00  0.00    +0.000 A 
ATOM     27  C   UNL     1       5.003   4.085  16.100  0.00  0.00    +0.000 A 
BRANCH  25  28
ATOM     28  C   UNL     1       6.106   3.612  12.483  0.00  0.00    +0.000 C 
ATOM     29  F   UNL     1       6.967   4.333  11.712  0.00  0.00    +0.000 F 
ATOM     30  F   UNL     1       6.437   2.305  12.294  0.00  0.00    +0.000 F 
ATOM     31  F   UNL     1       4.878   3.771  11.913  0.00  0.00    +0.000 F 
ENDBRANCH  25  28
ENDBRANCH  21  22
ENDBRANCH   6  21
TORSDOF 4
ENDMDL
MODEL 7
REMARK VINA RESULT:      -9.2      1.568      1.847
REMARK  Name = 
REMARK  4 active torsions:
REMARK  status: ('A' for Active; 'I' for Inactive)
REMARK    1  A    between atoms: C_2  and  C_24
REMARK    2  A    between atoms: N_6  and  C_7
REMARK    3  A    between atoms: C_7  and  C_8
REMARK    4  A    between atoms: C_11  and  C_12
REMARK                            x       y       z     vdW  Elec       q    Type
REMARK                         _______ _______ _______ _____ _____    ______ ____
ROOT
ATOM      1  O   UNL     1       1.717   6.641  20.995  0.00  0.00    +0.000 OA
ATOM      2  C   UNL     1       1.729   7.478  20.098  0.00  0.00    +0.000 C 
ATOM      3  N   UNL     1       2.386   7.376  18.893  0.00  0.00    +0.000 N 
ATOM      4  C   UNL     1       3.086   6.233  18.570  0.00  0.00    +0.000 A 
ATOM      5  N   UNL     1       4.332   6.337  18.106  0.00  0.00    +0.000 NA
ATOM      6  N   UNL     1       4.739   5.047  17.995  0.00  0.00    +0.000 N 
ATOM      7  C   UNL     1       3.732   4.129  18.179  0.00  0.00    +0.000 A 
ATOM      8  C   UNL     1       3.682   2.734  18.037  0.00  0.00    +0.000 A 
ATOM      9  C   UNL     1       2.460   2.099  18.283  0.00  0.00    +0.000 A 
ATOM     10  C   UNL     1       1.338   2.829  18.667  0.00  0.00    +0.000 A 
ATOM     11  C   UNL     1       1.411   4.219  18.832  0.00  0.00    +0.000 A 
ATOM     12  C   UNL     1       2.632   4.881  18.581  0.00  0.00    +0.000 A 
ATOM     13  H   UNL     1       2.790   8.218  18.507  0.00  0.00    +0.000 HD
ENDROOT
BRANCH   2  14
ATOM     14  C   UNL     1       1.042   8.771  20.338  0.00  0.00    +0.000 A 
ATOM     15  C   UNL     1       0.976   9.719  19.307  0.00  0.00    +0.000 A 
ATOM     16  C   UNL     1       0.424  10.983  19.548  0.00  0.00    +0.000 A 
ATOM     17  C   UNL     1      -0.044  11.300  20.820  0.00  0.00    +0.000 A 
ATOM     18  C   UNL     1       0.031  10.352  21.836  0.00  0.00    +0.000 A 
ATOM     19  F   UNL     1      -0.397  10.674  23.063  0.00  0.00    +0.000 F 
ATOM     20  C   UNL     1       0.559   9.085  21.610  0.00  0.00    +0.000 A 
ENDBRANCH   2  14
BRANCH   6  21
ATOM     21  C   UNL     1       6.144   4.758  17.724  0.00  0.00    +0.000 C 
BRANCH  21  22
ATOM     22  C   UNL     1       6.377   4.464  16.263  0.00  0.00    +0.000 A 
ATOM     23  C   UNL     1       7.291   5.234  15.528  0.00  0.00    +0.000 A 
ATOM     24  C   UNL     1       7.430   5.051  14.152  0.00  0.00    +0.000 A 
ATOM     25  C   UNL     1       6.667   4.085  13.485  0.00  0.00    +0.000 A 
ATOM     26  C   UNL     1       5.811   3.262  14.231  0.00  0.00    +0.000 A 
ATOM     27  C   UNL     1       5.667   3.448  15.609  0.00  0.00    +0.000 A 
BRANCH  25  28
ATOM     28  C   UNL     1       6.724   3.955  11.983  0.00  0.00    +0.000 C 
ATOM     29  F   UNL     1       7.375   2.838  11.555  0.00  0.00    +0.000 F 
ATOM     30  F   UNL     1       5.489   3.911  11.411  0.00  0.00    +0.000 F 
ATOM     31  F   UNL     1       7.368   5.004  11.399  0.00  0.00    +0.000 F 
ENDBRANCH  25  28
ENDBRANCH  21  22
ENDBRANCH   6  21
TORSDOF 4
ENDMDL
MODEL 8
REMARK VINA RESULT:      -9.2      0.858      1.083
REMARK  Name = 
REMARK  4 active torsions:
REMARK  status: ('A' for Active; 'I' for Inactive)
REMARK    1  A    between atoms: C_2  and  C_24
REMARK    2  A    between atoms: N_6  and  C_7
REMARK    3  A    between atoms: C_7  and  C_8
REMARK    4  A    between atoms: C_11  and  C_12
REMARK                            x       y       z     vdW  Elec       q    Type
REMARK                         _______ _______ _______ _____ _____    ______ ____
ROOT
ATOM      1  O   UNL     1       1.788   7.149  21.259  0.00  0.00    +0.000 OA
ATOM      2  C   UNL     1       1.657   7.811  20.234  0.00  0.00    +0.000 C 
ATOM      3  N   UNL     1       2.205   7.531  19.004  0.00  0.00    +0.000 N 
ATOM      4  C   UNL     1       2.954   6.389  18.813  0.00  0.00    +0.000 A 
ATOM      5  N   UNL     1       4.141   6.476  18.212  0.00  0.00    +0.000 NA
ATOM      6  N   UNL     1       4.629   5.212  18.284  0.00  0.00    +0.000 N 
ATOM      7  C   UNL     1       3.712   4.288  18.727  0.00  0.00    +0.000 A 
ATOM      8  C   UNL     1       3.750   2.889  18.834  0.00  0.00    +0.000 A 
ATOM      9  C   UNL     1       2.604   2.243  19.311  0.00  0.00    +0.000 A 
ATOM     10  C   UNL     1       1.473   2.967  19.677  0.00  0.00    +0.000 A 
ATOM     11  C   UNL     1       1.460   4.365  19.591  0.00  0.00    +0.000 A 
ATOM     12  C   UNL     1       2.601   5.038  19.104  0.00  0.00    +0.000 A 
ATOM     13  H   UNL     1       2.510   8.311  18.439  0.00  0.00    +0.000 HD
ENDROOT
BRANCH   2  14
ATOM     14  C   UNL     1       0.903   9.087  20.317  0.00  0.00    +0.000 A 
ATOM     15  C   UNL     1       0.319   9.466  21.534  0.00  0.00    +0.000 A 
ATOM     16  C   UNL     1      -0.482  10.612  21.602  0.00  0.00    +0.000 A 
ATOM     17  C   UNL     1      -0.709  11.364  20.453  0.00  0.00    +0.000 A 
ATOM     18  C   UNL     1      -0.126  10.976  19.252  0.00  0.00    +0.000 A 
ATOM     19  F   UNL     1      -0.371  11.691  18.146  0.00  0.00    +0.000 F 
ATOM     20  C   UNL     1       0.687   9.851  19.168  0.00  0.00    +0.000 A 
ENDBRANCH   2  14
BRANCH   6  21
ATOM     21  C   UNL     1       6.020   4.956  17.924  0.00  0.00    +0.000 C 
BRANCH  21  22
ATOM     22  C   UNL     1       6.150   4.537  16.480  0.00  0.00    +0.000 A 
ATOM     23  C   UNL     1       7.319   4.835  15.764  0.00  0.00    +0.000 A 
ATOM     24  C   UNL     1       7.407   4.558  14.400  0.00  0.00    +0.000 A 
ATOM     25  C   UNL     1       6.332   3.966  13.726  0.00  0.00    +0.000 A 
ATOM     26  C   UNL     1       5.193   3.597  14.457  0.00  0.00    +0.000 A 
ATOM     27  C   UNL     1       5.103   3.879  15.823  0.00  0.00    +0.000 A 
BRANCH  25  28
ATOM     28  C   UNL     1       6.369   3.766  12.231  0.00  0.00    +0.000 C 
ATOM     29  F   UNL     1       5.139   3.782  11.647  0.00  0.00    +0.000 F 
ATOM     30  F   UNL     1       7.102   4.719  11.591  0.00  0.00    +0.000 F 
ATOM     31  F   UNL     1       6.927   2.572  11.885  0.00  0.00    +0.000 F 
ENDBRANCH  25  28
ENDBRANCH  21  22
ENDBRANCH   6  21
TORSDOF 4
ENDMDL
MODEL 9
REMARK VINA RESULT:      -9.2      1.230      1.632
REMARK  Name = 
REMARK  4 active torsions:
REMARK  status: ('A' for Active; 'I' for Inactive)
REMARK    1  A    between atoms: C_2  and  C_24
REMARK    2  A    between atoms: N_6  and  C_7
REMARK    3  A    between atoms: C_7  and  C_8
REMARK    4  A    between atoms: C_11  and  C_12
REMARK                            x       y       z     vdW  Elec       q    Type
REMARK                         _______ _______ _______ _____ _____    ______ ____
ROOT
ATOM      1  O   UNL     1       1.749   8.580  20.684  0.00  0.00    +0.000 OA
ATOM      2  C   UNL     1       1.490   8.814  19.508  0.00  0.00    +0.000 C 
ATOM      3  N   UNL     1       1.939   8.108  18.415  0.00  0.00    +0.000 N 
ATOM      4  C   UNL     1       2.730   6.990  18.579  0.00  0.00    +0.000 A 
ATOM      5  N   UNL     1       3.851   6.870  17.867  0.00  0.00    +0.000 NA
ATOM      6  N   UNL     1       4.412   5.732  18.345  0.00  0.00    +0.000 N 
ATOM      7  C   UNL     1       3.593   5.020  19.189  0.00  0.00    +0.000 A 
ATOM      8  C   UNL     1       3.718   3.762  19.796  0.00  0.00    +0.000 A 
ATOM      9  C   UNL     1       2.658   3.317  20.594  0.00  0.00    +0.000 A 
ATOM     10  C   UNL     1       1.526   4.105  20.786  0.00  0.00    +0.000 A 
ATOM     11  C   UNL     1       1.428   5.371  20.196  0.00  0.00    +0.000 A 
ATOM     12  C   UNL     1       2.481   5.837  19.380  0.00  0.00    +0.000 A 
ATOM     13  H   UNL     1       2.148   8.630  17.576  0.00  0.00    +0.000 HD
ENDROOT
BRANCH   2  14
ATOM     14  C   UNL     1       0.677  10.015  19.196  0.00  0.00    +0.000 A 
ATOM     15  C   UNL     1      -0.662   9.861  18.808  0.00  0.00    +0.000 A 
ATOM     16  C   UNL     1      -1.411  10.975  18.410  0.00  0.00    +0.000 A 
ATOM     17  C   UNL     1      -0.816  12.233  18.387  0.00  0.00    +0.000 A 
ATOM     18  C   UNL     1       0.513  12.372  18.771  0.00  0.00    +0.000 A 
ATOM     19  F   UNL     1       1.084  13.583  18.721  0.00  0.00    +0.000 F 
ATOM     20  C   UNL     1       1.268  11.280  19.187  0.00  0.00    +0.000 A 
ENDBRANCH   2  14
BRANCH   6  21
ATOM     21  C   UNL     1       5.778   5.386  17.960  0.00  0.00    +0.000 C 
BRANCH  21  22
ATOM     22  C   UNL     1       5.868   5.039  16.494  0.00  0.00    +0.000 A 
ATOM     23  C   UNL     1       4.824   4.338  15.872  0.00  0.00    +0.000 A 
ATOM     24  C   UNL     1       4.946   3.908  14.551  0.00  0.00    +0.000 A 
ATOM     25  C   UNL     1       6.109   4.182  13.820  0.00  0.00    +0.000 A 
ATOM     26  C   UNL     1       7.120   4.949  14.417  0.00  0.00    +0.000 A 
ATOM     27  C   UNL     1       7.001   5.376  15.742  0.00  0.00    +0.000 A 
BRANCH  25  28
ATOM     28  C   UNL     1       6.300   3.625  12.431  0.00  0.00    +0.000 C 
ATOM     29  F   UNL     1       6.793   2.355  12.414  0.00  0.00    +0.000 F 
ATOM     30  F   UNL     1       5.143   3.587  11.715  0.00  0.00    +0.000 F 
ATOM     31  F   UNL     1       7.170   4.370  11.693  0.00  0.00    +0.000 F 
ENDBRANCH  25  28
ENDBRANCH  21  22
ENDBRANCH   6  21
TORSDOF 4
ENDMDL
