MODEL 1
REMARK VINA RESULT:      -7.9      0.000      0.000
REMARK  Name = 
REMARK  6 active torsions:
REMARK  status: ('A' for Active; 'I' for Inactive)
REMARK    1  A    between atoms: C_1  and  C_2
REMARK    2  A    between atoms: N_4  and  C_5
REMARK    3  A    between atoms: C_5  and  C_6
REMARK    4  A    between atoms: N_8  and  C_9
REMARK    5  A    between atoms: C_12  and  N_13
REMARK    6  A    between atoms: C_16  and  C_17
REMARK                            x       y       z     vdW  Elec       q    Type
REMARK                         _______ _______ _______ _____ _____    ______ ____
ROOT
ATOM      1  C   UNL     1       2.973   6.959  18.531  0.00  0.00    +0.000 A 
ATOM      2  C   UNL     1       2.686   8.046  17.694  0.00  0.00    +0.000 A 
ATOM      3  C   UNL     1       1.830   9.078  18.107  0.00  0.00    +0.000 A 
ATOM      4  C   UNL     1       1.255   9.054  19.382  0.00  0.00    +0.000 A 
ATOM      5  C   UNL     1       1.540   7.976  20.217  0.00  0.00    +0.000 A 
ATOM      6  F   UNL     1       1.024   7.883  21.449  0.00  0.00    +0.000 F 
ATOM      7  C   UNL     1       2.372   6.934  19.793  0.00  0.00    +0.000 A 
ENDROOT
BRANCH   1  10
ATOM      8  C   UNL     1       5.717   4.630  17.750  0.00  0.00    +0.000 C 
ATOM      9  C   UNL     1       5.242   6.059  17.924  0.00  0.00    +0.000 C 
ATOM     10  N   UNL     1       3.831   5.908  18.111  0.00  0.00    +0.000 N 
ATOM     11  C   UNL     1       3.442   4.651  17.668  0.00  0.00    +0.000 C 
ATOM     12  O   UNL     1       2.315   4.203  17.540  0.00  0.00    +0.000 OA
ATOM     13  O   UNL     1       4.548   3.928  17.301  0.00  0.00    +0.000 OA
BRANCH   8  14
ATOM     14  C   UNL     1       6.833   4.511  16.708  0.00  0.00    +0.000 C 
BRANCH  14  18
ATOM     15  C   UNL     1       6.271   3.833  13.022  0.00  0.00    +0.000 C 
ATOM     16  C   UNL     1       6.829   4.523  14.239  0.00  0.00    +0.000 C 
ATOM     17  O   UNL     1       7.634   5.444  14.174  0.00  0.00    +0.000 OA
ATOM     18  N   UNL     1       6.360   4.014  15.427  0.00  0.00    +0.000 N 
ATOM     19  H   UNL     1       5.779   3.185  15.416  0.00  0.00    +0.000 HD
ENDBRANCH  14  18
ENDBRANCH   8  14
ENDBRANCH   1  10
BRANCH   4  20
ATOM     20  N   UNL     1       0.386  10.099  19.781  0.00  0.00    +0.000 N 
ATOM     21  C   UNL     1      -0.682  10.653  19.122  0.00  0.00    +0.000 A 
ATOM     22  N   UNL     1      -1.175  11.662  19.802  0.00  0.00    +0.000 NA
ATOM     23  C   UNL     1      -0.380  11.702  20.924  0.00  0.00    +0.000 A 
ATOM     24  N   UNL     1       0.554  10.740  20.964  0.00  0.00    +0.000 NA
BRANCH  23  25
ATOM     25  C   UNL     1      -0.550  12.726  21.950  0.00  0.00    +0.000 C 
ATOM     26  O   UNL     1      -0.577  12.530  23.163  0.00  0.00    +0.000 OA
ENDBRANCH  23  25
ENDBRANCH   4  20
TORSDOF 5
ENDMDL
MODEL 2
REMARK VINA RESULT:      -7.9      1.746      2.195
REMARK  Name = 
REMARK  6 active torsions:
REMARK  status: ('A' for Active; 'I' for Inactive)
REMARK    1  A    between atoms: C_1  and  C_2
REMARK    2  A    between atoms: N_4  and  C_5
REMARK    3  A    between atoms: C_5  and  C_6
REMARK    4  A    between atoms: N_8  and  C_9
REMARK    5  A    between atoms: C_12  and  N_13
REMARK    6  A    between atoms: C_16  and  C_17
REMARK                            x       y       z     vdW  Elec       q    Type
REMARK                         _______ _______ _______ _____ _____    ______ ____
ROOT
ATOM      1  C   UNL     1       3.740   6.224  17.881  0.00  0.00    +0.000 A 
ATOM      2  C   UNL     1       3.214   5.846  19.124  0.00  0.00    +0.000 A 
ATOM      3  C   UNL     1       2.355   6.692  19.841  0.00  0.00    +0.000 A 
ATOM      4  C   UNL     1       1.984   7.935  19.315  0.00  0.00    +0.000 A 
ATOM      5  C   UNL     1       2.503   8.313  18.079  0.00  0.00    +0.000 A 
ATOM      6  F   UNL     1       2.197   9.487  17.515  0.00  0.00    +0.000 F 
ATOM      7  C   UNL     1       3.382   7.478  17.379  0.00  0.00    +0.000 A 
ENDROOT
BRANCH   1  10
ATOM      8  C   UNL     1       6.454   4.588  16.005  0.00  0.00    +0.000 C 
ATOM      9  C   UNL     1       5.663   5.846  16.305  0.00  0.00    +0.000 C 
ATOM     10  N   UNL     1       4.617   5.372  17.160  0.00  0.00    +0.000 N 
ATOM     11  C   UNL     1       4.512   3.993  17.033  0.00  0.00    +0.000 C 
ATOM     12  O   UNL     1       3.663   3.248  17.492  0.00  0.00    +0.000 OA
ATOM     13  O   UNL     1       5.512   3.527  16.218  0.00  0.00    +0.000 OA
BRANCH   8  14
ATOM     14  C   UNL     1       6.965   4.553  14.562  0.00  0.00    +0.000 C 
BRANCH  14  18
ATOM     15  C   UNL     1       5.655   2.457  11.690  0.00  0.00    +0.000 C 
ATOM     16  C   UNL     1       6.461   3.530  12.372  0.00  0.00    +0.000 C 
ATOM     17  O   UNL     1       7.254   4.251  11.776  0.00  0.00    +0.000 OA
ATOM     18  N   UNL     1       6.233   3.618  13.725  0.00  0.00    +0.000 N 
ATOM     19  H   UNL     1       5.646   2.926  14.174  0.00  0.00    +0.000 HD
ENDBRANCH  14  18
ENDBRANCH   8  14
ENDBRANCH   1  10
BRANCH   4  20
ATOM     20  N   UNL     1       1.124   8.782  20.054  0.00  0.00    +0.000 N 
ATOM     21  C   UNL     1       0.427   9.894  19.652  0.00  0.00    +0.000 A 
ATOM     22  N   UNL     1      -0.194  10.446  20.669  0.00  0.00    +0.000 NA
ATOM     23  C   UNL     1       0.130   9.621  21.720  0.00  0.00    +0.000 A 
ATOM     24  N   UNL     1       0.897   8.575  21.375  0.00  0.00    +0.000 NA
BRANCH  23  25
ATOM     25  C   UNL     1      -0.318   9.897  23.081  0.00  0.00    +0.000 C 
ATOM     26  O   UNL     1      -0.876  10.926  23.459  0.00  0.00    +0.000 OA
ENDBRANCH  23  25
ENDBRANCH   4  20
TORSDOF 5
ENDMDL
MODEL 3
REMARK VINA RESULT:      -7.9      1.119      1.282
REMARK  Name = 
REMARK  6 active torsions:
REMARK  status: ('A' for Active; 'I' for Inactive)
REMARK    1  A    between atoms: C_1  and  C_2
REMARK    2  A    between atoms: N_4  and  C_5
REMARK    3  A    between atoms: C_5  and  C_6
REMARK    4  A    between atoms: N_8  and  C_9
REMARK    5  A    between atoms: C_12  and  N_13
REMARK    6  A    between atoms: C_16  and  C_17
REMARK                            x       y       z     vdW  Elec       q    Type
REMARK                         _______ _______ _______ _____ _____    ______ ____
ROOT
ATOM      1  C   UNL     1       2.778   7.009  18.717  0.00  0.00    +0.000 A 
ATOM      2  C   UNL     1       2.536   8.058  17.820  0.00  0.00    +0.000 A 
ATOM      3  C   UNL     1       1.751   9.162  18.183  0.00  0.00    +0.000 A 
ATOM      4  C   UNL     1       1.205   9.251  19.468  0.00  0.00    +0.000 A 
ATOM      5  C   UNL     1       1.446   8.212  20.364  0.00  0.00    +0.000 A 
ATOM      6  F   UNL     1       0.954   8.226  21.609  0.00  0.00    +0.000 F 
ATOM      7  C   UNL     1       2.207   7.098  19.990  0.00  0.00    +0.000 A 
ENDROOT
BRANCH   1  10
ATOM      8  C   UNL     1       5.335   4.421  18.140  0.00  0.00    +0.000 C 
ATOM      9  C   UNL     1       4.996   5.888  18.325  0.00  0.00    +0.000 C 
ATOM     10  N   UNL     1       3.564   5.886  18.348  0.00  0.00    +0.000 N 
ATOM     11  C   UNL     1       3.099   4.694  17.808  0.00  0.00    +0.000 C 
ATOM     12  O   UNL     1       1.954   4.376  17.536  0.00  0.00    +0.000 OA
ATOM     13  O   UNL     1       4.158   3.867  17.533  0.00  0.00    +0.000 OA
BRANCH   8  14
ATOM     14  C   UNL     1       6.544   4.216  17.224  0.00  0.00    +0.000 C 
BRANCH  14  18
ATOM     15  C   UNL     1       6.233   3.810  13.469  0.00  0.00    +0.000 C 
ATOM     16  C   UNL     1       6.683   4.425  14.768  0.00  0.00    +0.000 C 
ATOM     17  O   UNL     1       7.441   5.386  14.824  0.00  0.00    +0.000 OA
ATOM     18  N   UNL     1       6.173   3.801  15.882  0.00  0.00    +0.000 N 
ATOM     19  H   UNL     1       5.638   2.949  15.771  0.00  0.00    +0.000 HD
ENDBRANCH  14  18
ENDBRANCH   8  14
ENDBRANCH   1  10
BRANCH   4  20
ATOM     20  N   UNL     1       0.408  10.368  19.817  0.00  0.00    +0.000 N 
ATOM     21  C   UNL     1       0.655  11.379  20.712  0.00  0.00    +0.000 A 
ATOM     22  N   UNL     1      -0.381  12.181  20.803  0.00  0.00    +0.000 NA
ATOM     23  C   UNL     1      -1.278  11.639  19.913  0.00  0.00    +0.000 A 
ATOM     24  N   UNL     1      -0.816  10.558  19.264  0.00  0.00    +0.000 NA
BRANCH  23  25
ATOM     25  C   UNL     1      -2.613  12.199  19.729  0.00  0.00    +0.000 C 
ATOM     26  O   UNL     1      -3.070  13.175  20.320  0.00  0.00    +0.000 OA
ENDBRANCH  23  25
ENDBRANCH   4  20
TORSDOF 5
ENDMDL
MODEL 4
REMARK VINA RESULT:      -7.9      1.586      1.852
REMARK  Name = 
REMARK  6 active torsions:
REMARK  status: ('A' for Active; 'I' for Inactive)
REMARK    1  A    between atoms: C_1  and  C_2
REMARK    2  A    between atoms: N_4  and  C_5
REMARK    3  A    between atoms: C_5  and  C_6
REMARK    4  A    between atoms: N_8  and  C_9
REMARK    5  A    between atoms: C_12  and  N_13
REMARK    6  A    between atoms: C_16  and  C_17
REMARK                            x       y       z     vdW  Elec       q    Type
REMARK                         _______ _______ _______ _____ _____    ______ ____
ROOT
ATOM      1  C   UNL     1       3.725   6.170  17.896  0.00  0.00    +0.000 A 
ATOM      2  C   UNL     1       3.432   7.468  17.456  0.00  0.00    +0.000 A 
ATOM      3  C   UNL     1       2.581   8.311  18.186  0.00  0.00    +0.000 A 
ATOM      4  C   UNL     1       2.018   7.877  19.392  0.00  0.00    +0.000 A 
ATOM      5  C   UNL     1       2.309   6.589  19.833  0.00  0.00    +0.000 A 
ATOM      6  F   UNL     1       1.805   6.104  20.974  0.00  0.00    +0.000 F 
ATOM      7  C   UNL     1       3.137   5.739  19.088  0.00  0.00    +0.000 A 
ENDROOT
BRANCH   1  10
ATOM      8  C   UNL     1       6.396   4.501  15.986  0.00  0.00    +0.000 C 
ATOM      9  C   UNL     1       5.648   5.776  16.323  0.00  0.00    +0.000 C 
ATOM     10  N   UNL     1       4.578   5.312  17.153  0.00  0.00    +0.000 N 
ATOM     11  C   UNL     1       4.424   3.943  16.979  0.00  0.00    +0.000 C 
ATOM     12  O   UNL     1       3.545   3.214  17.406  0.00  0.00    +0.000 OA
ATOM     13  O   UNL     1       5.414   3.468  16.157  0.00  0.00    +0.000 OA
BRANCH   8  14
ATOM     14  C   UNL     1       6.918   4.496  14.547  0.00  0.00    +0.000 C 
BRANCH  14  18
ATOM     15  C   UNL     1       5.660   2.427  11.632  0.00  0.00    +0.000 C 
ATOM     16  C   UNL     1       6.454   3.493  12.339  0.00  0.00    +0.000 C 
ATOM     17  O   UNL     1       7.256   4.220  11.764  0.00  0.00    +0.000 OA
ATOM     18  N   UNL     1       6.202   3.568  13.688  0.00  0.00    +0.000 N 
ATOM     19  H   UNL     1       5.607   2.872  14.121  0.00  0.00    +0.000 HD
ENDBRANCH  14  18
ENDBRANCH   8  14
ENDBRANCH   1  10
BRANCH   4  20
ATOM     20  N   UNL     1       1.154   8.736  20.113  0.00  0.00    +0.000 N 
ATOM     21  C   UNL     1       0.478   9.855  19.696  0.00  0.00    +0.000 A 
ATOM     22  N   UNL     1      -0.154  10.417  20.700  0.00  0.00    +0.000 NA
ATOM     23  C   UNL     1       0.140   9.591  21.758  0.00  0.00    +0.000 A 
ATOM     24  N   UNL     1       0.900   8.534  21.430  0.00  0.00    +0.000 NA
BRANCH  23  25
ATOM     25  C   UNL     1      -0.330   9.876  23.110  0.00  0.00    +0.000 C 
ATOM     26  O   UNL     1      -0.987  10.857  23.450  0.00  0.00    +0.000 OA
ENDBRANCH  23  25
ENDBRANCH   4  20
TORSDOF 5
ENDMDL
MODEL 5
REMARK VINA RESULT:      -7.9      1.231      1.561
REMARK  Name = 
REMARK  6 active torsions:
REMARK  status: ('A' for Active; 'I' for Inactive)
REMARK    1  A    between atoms: C_1  and  C_2
REMARK    2  A    between atoms: N_4  and  C_5
REMARK    3  A    between atoms: C_5  and  C_6
REMARK    4  A    between atoms: N_8  and  C_9
REMARK    5  A    between atoms: C_12  and  N_13
REMARK    6  A    between atoms: C_16  and  C_17
REMARK                            x       y       z     vdW  Elec       q    Type
REMARK                         _______ _______ _______ _____ _____    ______ ____
ROOT
ATOM      1  C   UNL     1       2.614   7.013  18.985  0.00  0.00    +0.000 A 
ATOM      2  C   UNL     1       2.066   7.089  20.272  0.00  0.00    +0.000 A 
ATOM      3  C   UNL     1       1.323   8.205  20.684  0.00  0.00    +0.000 A 
ATOM      4  C   UNL     1       1.094   9.268  19.803  0.00  0.00    +0.000 A 
ATOM      5  C   UNL     1       1.635   9.195  18.522  0.00  0.00    +0.000 A 
ATOM      6  F   UNL     1       1.461  10.174  17.627  0.00  0.00    +0.000 F 
ATOM      7  C   UNL     1       2.400   8.092  18.122  0.00  0.00    +0.000 A 
ENDROOT
BRANCH   1  10
ATOM      8  C   UNL     1       5.101   4.375  18.332  0.00  0.00    +0.000 C 
ATOM      9  C   UNL     1       4.806   5.837  18.606  0.00  0.00    +0.000 C 
ATOM     10  N   UNL     1       3.375   5.889  18.569  0.00  0.00    +0.000 N 
ATOM     11  C   UNL     1       2.892   4.756  17.927  0.00  0.00    +0.000 C 
ATOM     12  O   UNL     1       1.750   4.502  17.585  0.00  0.00    +0.000 OA
ATOM     13  O   UNL     1       3.933   3.910  17.638  0.00  0.00    +0.000 OA
BRANCH   8  14
ATOM     14  C   UNL     1       6.341   4.187  17.454  0.00  0.00    +0.000 C 
BRANCH  14  18
ATOM     15  C   UNL     1       6.201   3.863  13.681  0.00  0.00    +0.000 C 
ATOM     16  C   UNL     1       6.618   4.429  15.013  0.00  0.00    +0.000 C 
ATOM     17  O   UNL     1       7.425   5.344  15.126  0.00  0.00    +0.000 OA
ATOM     18  N   UNL     1       6.017   3.818  16.087  0.00  0.00    +0.000 N 
ATOM     19  H   UNL     1       5.440   3.000  15.933  0.00  0.00    +0.000 HD
ENDBRANCH  14  18
ENDBRANCH   8  14
ENDBRANCH   1  10
BRANCH   4  20
ATOM     20  N   UNL     1       0.349  10.391  20.237  0.00  0.00    +0.000 N 
ATOM     21  C   UNL     1      -0.916  10.794  19.891  0.00  0.00    +0.000 A 
ATOM     22  N   UNL     1      -1.209  11.943  20.456  0.00  0.00    +0.000 NA
ATOM     23  C   UNL     1      -0.079  12.231  21.185  0.00  0.00    +0.000 A 
ATOM     24  N   UNL     1       0.874  11.289  21.108  0.00  0.00    +0.000 NA
BRANCH  23  25
ATOM     25  C   UNL     1       0.049  13.469  21.946  0.00  0.00    +0.000 C 
ATOM     26  O   UNL     1       1.096  14.080  22.154  0.00  0.00    +0.000 OA
ENDBRANCH  23  25
ENDBRANCH   4  20
TORSDOF 5
ENDMDL
MODEL 6
REMARK VINA RESULT:      -7.8      1.582      1.950
REMARK  Name = 
REMARK  6 active torsions:
REMARK  status: ('A' for Active; 'I' for Inactive)
REMARK    1  A    between atoms: C_1  and  C_2
REMARK    2  A    between atoms: N_4  and  C_5
REMARK    3  A    between atoms: C_5  and  C_6
REMARK    4  A    between atoms: N_8  and  C_9
REMARK    5  A    between atoms: C_12  and  N_13
REMARK    6  A    between atoms: C_16  and  C_17
REMARK                            x       y       z     vdW  Elec       q    Type
REMARK                         _______ _______ _______ _____ _____    ______ ____
ROOT
ATOM      1  C   UNL     1       2.753   6.953  18.853  0.00  0.00    +0.000 A 
ATOM      2  C   UNL     1       2.166   7.020  20.124  0.00  0.00    +0.000 A 
ATOM      3  C   UNL     1       1.400   8.127  20.517  0.00  0.00    +0.000 A 
ATOM      4  C   UNL     1       1.185   9.189  19.631  0.00  0.00    +0.000 A 
ATOM      5  C   UNL     1       1.764   9.124  18.366  0.00  0.00    +0.000 A 
ATOM      6  F   UNL     1       1.606  10.104  17.467  0.00  0.00    +0.000 F 
ATOM      7  C   UNL     1       2.552   8.031  17.987  0.00  0.00    +0.000 A 
ENDROOT
BRANCH   1  10
ATOM      8  C   UNL     1       5.306   4.373  18.223  0.00  0.00    +0.000 C 
ATOM      9  C   UNL     1       4.969   5.835  18.446  0.00  0.00    +0.000 C 
ATOM     10  N   UNL     1       3.538   5.837  18.459  0.00  0.00    +0.000 N 
ATOM     11  C   UNL     1       3.072   4.662  17.883  0.00  0.00    +0.000 C 
ATOM     12  O   UNL     1       1.928   4.355  17.595  0.00  0.00    +0.000 OA
ATOM     13  O   UNL     1       4.131   3.840  17.593  0.00  0.00    +0.000 OA
BRANCH   8  14
ATOM     14  C   UNL     1       6.520   4.189  17.309  0.00  0.00    +0.000 C 
BRANCH  14  18
ATOM     15  C   UNL     1       6.246   3.876  13.543  0.00  0.00    +0.000 C 
ATOM     16  C   UNL     1       6.693   4.451  14.860  0.00  0.00    +0.000 C 
ATOM     17  O   UNL     1       7.471   5.394  14.948  0.00  0.00    +0.000 OA
ATOM     18  N   UNL     1       6.157   3.813  15.953  0.00  0.00    +0.000 N 
ATOM     19  H   UNL     1       5.604   2.976  15.817  0.00  0.00    +0.000 HD
ENDBRANCH  14  18
ENDBRANCH   8  14
ENDBRANCH   1  10
BRANCH   4  20
ATOM     20  N   UNL     1       0.416  10.304  20.044  0.00  0.00    +0.000 N 
ATOM     21  C   UNL     1       0.615  11.170  21.090  0.00  0.00    +0.000 A 
ATOM     22  N   UNL     1      -0.379  12.023  21.182  0.00  0.00    +0.000 NA
ATOM     23  C   UNL     1      -1.197  11.665  20.137  0.00  0.00    +0.000 A 
ATOM     24  N   UNL     1      -0.725  10.649  19.398  0.00  0.00    +0.000 NA
BRANCH  23  25
ATOM     25  C   UNL     1      -2.470  12.337  19.893  0.00  0.00    +0.000 C 
ATOM     26  O   UNL     1      -3.348  11.954  19.123  0.00  0.00    +0.000 OA
ENDBRANCH  23  25
ENDBRANCH   4  20
TORSDOF 5
ENDMDL
MODEL 7
REMARK VINA RESULT:      -7.7      3.251      8.582
REMARK  Name = 
REMARK  6 active torsions:
REMARK  status: ('A' for Active; 'I' for Inactive)
REMARK    1  A    between atoms: C_1  and  C_2
REMARK    2  A    between atoms: N_4  and  C_5
REMARK    3  A    between atoms: C_5  and  C_6
REMARK    4  A    between atoms: N_8  and  C_9
REMARK    5  A    between atoms: C_12  and  N_13
REMARK    6  A    between atoms: C_16  and  C_17
REMARK                            x       y       z     vdW  Elec       q    Type
REMARK                         _______ _______ _______ _____ _____    ______ ____
ROOT
ATOM      1  C   UNL     1       1.494   8.965  18.876  0.00  0.00    +0.000 A 
ATOM      2  C   UNL     1       1.478   8.180  20.037  0.00  0.00    +0.000 A 
ATOM      3  C   UNL     1       2.255   7.017  20.143  0.00  0.00    +0.000 A 
ATOM      4  C   UNL     1       3.087   6.623  19.088  0.00  0.00    +0.000 A 
ATOM      5  C   UNL     1       3.107   7.402  17.934  0.00  0.00    +0.000 A 
ATOM      6  F   UNL     1       3.875   7.085  16.884  0.00  0.00    +0.000 F 
ATOM      7  C   UNL     1       2.310   8.547  17.820  0.00  0.00    +0.000 A 
ENDROOT
BRANCH   1  10
ATOM      8  C   UNL     1      -1.107  11.571  18.780  0.00  0.00    +0.000 C 
ATOM      9  C   UNL     1      -0.716  10.123  18.557  0.00  0.00    +0.000 C 
ATOM     10  N   UNL     1       0.701  10.137  18.764  0.00  0.00    +0.000 N 
ATOM     11  C   UNL     1       1.164  11.443  18.672  0.00  0.00    +0.000 C 
ATOM     12  O   UNL     1       2.315  11.844  18.659  0.00  0.00    +0.000 OA
ATOM     13  O   UNL     1       0.103  12.299  18.525  0.00  0.00    +0.000 OA
BRANCH   8  14
ATOM     14  C   UNL     1      -2.208  12.030  17.820  0.00  0.00    +0.000 C 
BRANCH  14  18
ATOM     15  C   UNL     1      -3.073  10.265  14.580  0.00  0.00    +0.000 C 
ATOM     16  C   UNL     1      -3.313  10.893  15.928  0.00  0.00    +0.000 C 
ATOM     17  O   UNL     1      -4.428  11.002  16.425  0.00  0.00    +0.000 OA
ATOM     18  N   UNL     1      -2.168  11.341  16.541  0.00  0.00    +0.000 N 
ATOM     19  H   UNL     1      -1.292  11.317  16.034  0.00  0.00    +0.000 HD
ENDBRANCH  14  18
ENDBRANCH   8  14
ENDBRANCH   1  10
BRANCH   4  20
ATOM     20  N   UNL     1       3.859   5.442  19.206  0.00  0.00    +0.000 N 
ATOM     21  C   UNL     1       5.221   5.281  19.231  0.00  0.00    +0.000 A 
ATOM     22  N   UNL     1       5.538   4.007  19.269  0.00  0.00    +0.000 NA
ATOM     23  C   UNL     1       4.314   3.380  19.286  0.00  0.00    +0.000 A 
ATOM     24  N   UNL     1       3.270   4.223  19.291  0.00  0.00    +0.000 NA
BRANCH  23  25
ATOM     25  C   UNL     1       4.196   1.925  19.279  0.00  0.00    +0.000 C 
ATOM     26  O   UNL     1       3.534   1.262  18.483  0.00  0.00    +0.000 OA
ENDBRANCH  23  25
ENDBRANCH   4  20
TORSDOF 5
ENDMDL
MODEL 8
REMARK VINA RESULT:      -7.7      3.230      8.459
REMARK  Name = 
REMARK  6 active torsions:
REMARK  status: ('A' for Active; 'I' for Inactive)
REMARK    1  A    between atoms: C_1  and  C_2
REMARK    2  A    between atoms: N_4  and  C_5
REMARK    3  A    between atoms: C_5  and  C_6
REMARK    4  A    between atoms: N_8  and  C_9
REMARK    5  A    between atoms: C_12  and  N_13
REMARK    6  A    between atoms: C_16  and  C_17
REMARK                            x       y       z     vdW  Elec       q    Type
REMARK                         _______ _______ _______ _____ _____    ______ ____
ROOT
ATOM      1  C   UNL     1       1.458   8.997  18.845  0.00  0.00    +0.000 A 
ATOM      2  C   UNL     1       2.354   8.617  17.836  0.00  0.00    +0.000 A 
ATOM      3  C   UNL     1       3.160   7.477  17.968  0.00  0.00    +0.000 A 
ATOM      4  C   UNL     1       3.070   6.674  19.111  0.00  0.00    +0.000 A 
ATOM      5  C   UNL     1       2.179   7.048  20.114  0.00  0.00    +0.000 A 
ATOM      6  F   UNL     1       2.041   6.332  21.237  0.00  0.00    +0.000 F 
ATOM      7  C   UNL     1       1.396   8.202  19.993  0.00  0.00    +0.000 A 
ENDROOT
BRANCH   1  10
ATOM      8  C   UNL     1      -1.177  11.568  18.719  0.00  0.00    +0.000 C 
ATOM      9  C   UNL     1      -0.769  10.122  18.518  0.00  0.00    +0.000 C 
ATOM     10  N   UNL     1       0.649  10.157  18.717  0.00  0.00    +0.000 N 
ATOM     11  C   UNL     1       1.095  11.467  18.602  0.00  0.00    +0.000 C 
ATOM     12  O   UNL     1       2.241  11.882  18.576  0.00  0.00    +0.000 OA
ATOM     13  O   UNL     1       0.023  12.308  18.445  0.00  0.00    +0.000 OA
BRANCH   8  14
ATOM     14  C   UNL     1      -2.288  11.998  17.757  0.00  0.00    +0.000 C 
BRANCH  14  18
ATOM     15  C   UNL     1      -3.130  10.238  14.508  0.00  0.00    +0.000 C 
ATOM     16  C   UNL     1      -3.383  10.886  15.843  0.00  0.00    +0.000 C 
ATOM     17  O   UNL     1      -4.506  11.041  16.308  0.00  0.00    +0.000 OA
ATOM     18  N   UNL     1      -2.238  11.296  16.485  0.00  0.00    +0.000 N 
ATOM     19  H   UNL     1      -1.350  11.234  16.003  0.00  0.00    +0.000 HD
ENDBRANCH  14  18
ENDBRANCH   8  14
ENDBRANCH   1  10
BRANCH   4  20
ATOM     20  N   UNL     1       3.896   5.531  19.234  0.00  0.00    +0.000 N 
ATOM     21  C   UNL     1       5.230   5.376  18.950  0.00  0.00    +0.000 A 
ATOM     22  N   UNL     1       5.600   4.128  19.123  0.00  0.00    +0.000 NA
ATOM     23  C   UNL     1       4.444   3.514  19.545  0.00  0.00    +0.000 A 
ATOM     24  N   UNL     1       3.397   4.346  19.664  0.00  0.00    +0.000 NA
BRANCH  23  25
ATOM     25  C   UNL     1       4.389   2.080  19.812  0.00  0.00    +0.000 C 
ATOM     26  O   UNL     1       5.178   1.449  20.512  0.00  0.00    +0.000 OA
ENDBRANCH  23  25
ENDBRANCH   4  20
TORSDOF 5
ENDMDL
MODEL 9
REMARK VINA RESULT:      -7.6      2.057      2.622
REMARK  Name = 
REMARK  6 active torsions:
REMARK  status: ('A' for Active; 'I' for Inactive)
REMARK    1  A    between atoms: C_1  and  C_2
REMARK    2  A    between atoms: N_4  and  C_5
REMARK    3  A    between atoms: C_5  and  C_6
REMARK    4  A    between atoms: N_8  and  C_9
REMARK    5  A    between atoms: C_12  and  N_13
REMARK    6  A    between atoms: C_16  and  C_17
REMARK                            x       y       z     vdW  Elec       q    Type
REMARK                         _______ _______ _______ _____ _____    ______ ____
ROOT
ATOM      1  C   UNL     1       4.229   6.238  17.620  0.00  0.00    +0.000 A 
ATOM      2  C   UNL     1       3.831   7.521  17.223  0.00  0.00    +0.000 A 
ATOM      3  C   UNL     1       2.875   8.245  17.949  0.00  0.00    +0.000 A 
ATOM      4  C   UNL     1       2.307   7.705  19.109  0.00  0.00    +0.000 A 
ATOM      5  C   UNL     1       2.703   6.431  19.507  0.00  0.00    +0.000 A 
ATOM      6  F   UNL     1       2.201   5.848  20.603  0.00  0.00    +0.000 F 
ATOM      7  C   UNL     1       3.637   5.698  18.765  0.00  0.00    +0.000 A 
ENDROOT
BRANCH   1  10
ATOM      8  C   UNL     1       6.502   4.728  15.145  0.00  0.00    +0.000 C 
ATOM      9  C   UNL     1       5.152   5.343  15.457  0.00  0.00    +0.000 C 
ATOM     10  N   UNL     1       5.190   5.499  16.879  0.00  0.00    +0.000 N 
ATOM     11  C   UNL     1       6.195   4.696  17.401  0.00  0.00    +0.000 C 
ATOM     12  O   UNL     1       6.450   4.455  18.569  0.00  0.00    +0.000 OA
ATOM     13  O   UNL     1       6.891   4.104  16.378  0.00  0.00    +0.000 OA
BRANCH   8  14
ATOM     14  C   UNL     1       6.420   3.681  14.031  0.00  0.00    +0.000 C 
BRANCH  14  18
ATOM     15  C   UNL     1       3.882   3.474  11.226  0.00  0.00    +0.000 C 
ATOM     16  C   UNL     1       5.131   3.139  11.996  0.00  0.00    +0.000 C 
ATOM     17  O   UNL     1       5.914   2.263  11.651  0.00  0.00    +0.000 OA
ATOM     18  N   UNL     1       5.304   3.901  13.128  0.00  0.00    +0.000 N 
ATOM     19  H   UNL     1       4.569   4.536  13.415  0.00  0.00    +0.000 HD
ENDBRANCH  14  18
ENDBRANCH   8  14
ENDBRANCH   1  10
BRANCH   4  20
ATOM     20  N   UNL     1       1.337   8.445  19.826  0.00  0.00    +0.000 N 
ATOM     21  C   UNL     1       0.583   9.521  19.431  0.00  0.00    +0.000 A 
ATOM     22  N   UNL     1      -0.144   9.971  20.429  0.00  0.00    +0.000 NA
ATOM     23  C   UNL     1       0.175   9.117  21.458  0.00  0.00    +0.000 A 
ATOM     24  N   UNL     1       1.041   8.151  21.117  0.00  0.00    +0.000 NA
BRANCH  23  25
ATOM     25  C   UNL     1      -0.382   9.287  22.797  0.00  0.00    +0.000 C 
ATOM     26  O   UNL     1       0.112   9.959  23.700  0.00  0.00    +0.000 OA
ENDBRANCH  23  25
ENDBRANCH   4  20
TORSDOF 5
ENDMDL
