MODEL 1
REMARK VINA RESULT:      -6.7      0.000      0.000
REMARK  Name = 
REMARK  7 active torsions:
REMARK  status: ('A' for Active; 'I' for Inactive)
REMARK    1  A    between atoms: C_1  and  C_2
REMARK    2  A    between atoms: C_2  and  C_3
REMARK    3  A    between atoms: C_3  and  C_4
REMARK    4  A    between atoms: C_3  and  C_5
REMARK    5  A    between atoms: C_5  and  C_7
REMARK    6  A    between atoms: C_20  and  C_21
REMARK    7  A    between atoms: C_25  and  C_26
REMARK                            x       y       z     vdW  Elec       q    Type
REMARK                         _______ _______ _______ _____ _____    ______ ____
ROOT
ATOM      1  C   UNL     1       3.933   5.193  18.681  0.00  0.00    +0.000 C 
ATOM      2  C   UNL     1       4.431   5.751  17.318  0.00  0.00    +0.000 C 
ATOM      3  C   UNL     1       3.741   7.110  17.114  0.00  0.00    +0.000 C 
ATOM      4  C   UNL     1       3.118   7.406  18.471  0.00  0.00    +0.000 C 
ATOM      5  C   UNL     1       2.020   8.472  18.551  0.00  0.00    +0.000 C 
ATOM      6  C   UNL     1       2.508   9.831  18.025  0.00  0.00    +0.000 C 
ATOM      7  C   UNL     1       1.468  10.938  18.200  0.00  0.00    +0.000 C 
ATOM      8  C   UNL     1       0.986  11.009  19.649  0.00  0.00    +0.000 C 
ATOM      9  N   UNL     1       0.061  12.097  19.881  0.00  0.00    +0.000 N 
ATOM     10  C   UNL     1      -0.504  12.272  21.118  0.00  0.00    +0.000 C 
ATOM     11  O   UNL     1      -1.053  13.311  21.448  0.00  0.00    +0.000 OA
ATOM     12  C   UNL     1      -0.422  11.112  22.042  0.00  0.00    +0.000 C 
ATOM     13  C   UNL     1      -0.032   9.899  21.612  0.00  0.00    +0.000 C 
ATOM     14  C   UNL     1       0.396   9.661  20.166  0.00  0.00    +0.000 C 
ATOM     15  C   UNL     1      -0.879   9.257  19.385  0.00  0.00    +0.000 C 
ATOM     16  C   UNL     1       1.527   8.591  20.032  0.00  0.00    +0.000 C 
ATOM     17  C   UNL     1       1.167   7.218  20.638  0.00  0.00    +0.000 C 
ATOM     18  C   UNL     1       2.275   6.180  20.448  0.00  0.00    +0.000 C 
ATOM     19  C   UNL     1       2.652   6.016  18.966  0.00  0.00    +0.000 C 
ATOM     20  C   UNL     1       1.458   5.433  18.166  0.00  0.00    +0.000 C 
ATOM     21  H   UNL     1       0.082  12.932  19.309  0.00  0.00    +0.000 HD
ENDROOT
BRANCH   1  22
ATOM     22  C   UNL     1       3.760   3.666  18.677  0.00  0.00    +0.000 C 
ATOM     23  O   UNL     1       3.810   3.026  17.628  0.00  0.00    +0.000 OA
BRANCH  22  24
ATOM     24  C   UNL     1       3.523   2.958  20.024  0.00  0.00    +0.000 C 
ATOM     25  C   UNL     1       4.527   1.824  20.214  0.00  0.00    +0.000 C 
BRANCH  24  27
ATOM     26  C   UNL     1       1.459   2.729  21.514  0.00  0.00    +0.000 C 
ATOM     27  C   UNL     1       2.066   2.478  20.141  0.00  0.00    +0.000 C 
ENDBRANCH  24  27
ENDBRANCH  22  24
ENDBRANCH   1  22
TORSDOF 3
ENDMDL
MODEL 2
REMARK VINA RESULT:      -6.7      2.590      7.971
REMARK  Name = 
REMARK  7 active torsions:
REMARK  status: ('A' for Active; 'I' for Inactive)
REMARK    1  A    between atoms: C_1  and  C_2
REMARK    2  A    between atoms: C_2  and  C_3
REMARK    3  A    between atoms: C_3  and  C_4
REMARK    4  A    between atoms: C_3  and  C_5
REMARK    5  A    between atoms: C_5  and  C_7
REMARK    6  A    between atoms: C_20  and  C_21
REMARK    7  A    between atoms: C_25  and  C_26
REMARK                            x       y       z     vdW  Elec       q    Type
REMARK                         _______ _______ _______ _____ _____    ______ ____
ROOT
ATOM      1  C   UNL     1       1.525  10.609  19.810  0.00  0.00    +0.000 C 
ATOM      2  C   UNL     1       0.650  10.356  21.070  0.00  0.00    +0.000 C 
ATOM      3  C   UNL     1       0.525   8.832  21.226  0.00  0.00    +0.000 C 
ATOM      4  C   UNL     1       1.552   8.283  20.246  0.00  0.00    +0.000 C 
ATOM      5  C   UNL     1       1.446   6.812  19.827  0.00  0.00    +0.000 C 
ATOM      6  C   UNL     1       1.502   5.871  21.042  0.00  0.00    +0.000 C 
ATOM      7  C   UNL     1       1.513   4.395  20.642  0.00  0.00    +0.000 C 
ATOM      8  C   UNL     1       2.623   4.112  19.629  0.00  0.00    +0.000 C 
ATOM      9  N   UNL     1       2.726   2.712  19.283  0.00  0.00    +0.000 N 
ATOM     10  C   UNL     1       3.640   2.295  18.351  0.00  0.00    +0.000 C 
ATOM     11  O   UNL     1       3.967   1.125  18.228  0.00  0.00    +0.000 OA
ATOM     12  C   UNL     1       4.211   3.353  17.478  0.00  0.00    +0.000 C 
ATOM     13  C   UNL     1       3.690   4.593  17.450  0.00  0.00    +0.000 C 
ATOM     14  C   UNL     1       2.522   4.994  18.346  0.00  0.00    +0.000 C 
ATOM     15  C   UNL     1       1.227   4.697  17.549  0.00  0.00    +0.000 C 
ATOM     16  C   UNL     1       2.591   6.483  18.813  0.00  0.00    +0.000 C 
ATOM     17  C   UNL     1       2.654   7.502  17.655  0.00  0.00    +0.000 C 
ATOM     18  C   UNL     1       2.673   8.951  18.144  0.00  0.00    +0.000 C 
ATOM     19  C   UNL     1       1.470   9.262  19.051  0.00  0.00    +0.000 C 
ATOM     20  C   UNL     1       0.147   9.160  18.246  0.00  0.00    +0.000 C 
ATOM     21  H   UNL     1       2.429   1.991  19.929  0.00  0.00    +0.000 HD
ENDROOT
BRANCH   1  22
ATOM     22  C   UNL     1       1.084  11.847  19.012  0.00  0.00    +0.000 C 
ATOM     23  O   UNL     1       1.789  12.305  18.114  0.00  0.00    +0.000 OA
BRANCH  22  24
ATOM     24  C   UNL     1      -0.263  12.499  19.369  0.00  0.00    +0.000 C 
ATOM     25  C   UNL     1      -1.193  12.497  18.158  0.00  0.00    +0.000 C 
BRANCH  24  27
ATOM     26  C   UNL     1      -0.226  15.014  18.914  0.00  0.00    +0.000 C 
ATOM     27  C   UNL     1      -0.053  13.909  19.946  0.00  0.00    +0.000 C 
ENDBRANCH  24  27
ENDBRANCH  22  24
ENDBRANCH   1  22
TORSDOF 3
ENDMDL
MODEL 3
REMARK VINA RESULT:      -6.6      2.414      7.972
REMARK  Name = 
REMARK  7 active torsions:
REMARK  status: ('A' for Active; 'I' for Inactive)
REMARK    1  A    between atoms: C_1  and  C_2
REMARK    2  A    between atoms: C_2  and  C_3
REMARK    3  A    between atoms: C_3  and  C_4
REMARK    4  A    between atoms: C_3  and  C_5
REMARK    5  A    between atoms: C_5  and  C_7
REMARK    6  A    between atoms: C_20  and  C_21
REMARK    7  A    between atoms: C_25  and  C_26
REMARK                            x       y       z     vdW  Elec       q    Type
REMARK                         _______ _______ _______ _____ _____    ______ ____
ROOT
ATOM      1  C   UNL     1       0.378  11.518  19.474  0.00  0.00    +0.000 C 
ATOM      2  C   UNL     1      -0.529  11.144  20.681  0.00  0.00    +0.000 C 
ATOM      3  C   UNL     1      -0.296   9.652  20.968  0.00  0.00    +0.000 C 
ATOM      4  C   UNL     1       0.925   9.309  20.125  0.00  0.00    +0.000 C 
ATOM      5  C   UNL     1       1.219   7.832  19.838  0.00  0.00    +0.000 C 
ATOM      6  C   UNL     1       1.382   7.023  21.135  0.00  0.00    +0.000 C 
ATOM      7  C   UNL     1       1.789   5.572  20.876  0.00  0.00    +0.000 C 
ATOM      8  C   UNL     1       3.028   5.504  19.983  0.00  0.00    +0.000 C 
ATOM      9  N   UNL     1       3.500   4.152  19.777  0.00  0.00    +0.000 N 
ATOM     10  C   UNL     1       4.574   3.912  18.961  0.00  0.00    +0.000 C 
ATOM     11  O   UNL     1       5.185   2.855  18.973  0.00  0.00    +0.000 OA
ATOM     12  C   UNL     1       4.954   5.015  18.041  0.00  0.00    +0.000 C 
ATOM     13  C   UNL     1       4.155   6.080  17.857  0.00  0.00    +0.000 C 
ATOM     14  C   UNL     1       2.842   6.239  18.619  0.00  0.00    +0.000 C 
ATOM     15  C   UNL     1       1.742   5.573  17.755  0.00  0.00    +0.000 C 
ATOM     16  C   UNL     1       2.503   7.728  18.950  0.00  0.00    +0.000 C 
ATOM     17  C   UNL     1       2.430   8.645  17.710  0.00  0.00    +0.000 C 
ATOM     18  C   UNL     1       2.050  10.085  18.063  0.00  0.00    +0.000 C 
ATOM     19  C   UNL     1       0.725  10.149  18.841  0.00  0.00    +0.000 C 
ATOM     20  C   UNL     1      -0.449   9.663  17.950  0.00  0.00    +0.000 C 
ATOM     21  H   UNL     1       3.324   3.428  20.462  0.00  0.00    +0.000 HD
ENDROOT
BRANCH   1  22
ATOM     22  C   UNL     1      -0.269  12.547  18.533  0.00  0.00    +0.000 C 
ATOM     23  O   UNL     1      -1.378  12.345  18.041  0.00  0.00    +0.000 OA
BRANCH  22  24
ATOM     24  C   UNL     1       0.510  13.837  18.222  0.00  0.00    +0.000 C 
ATOM     25  C   UNL     1       1.968  13.696  18.652  0.00  0.00    +0.000 C 
BRANCH  24  27
ATOM     26  C   UNL     1       0.120  15.206  20.345  0.00  0.00    +0.000 C 
ATOM     27  C   UNL     1      -0.175  15.058  18.859  0.00  0.00    +0.000 C 
ENDBRANCH  24  27
ENDBRANCH  22  24
ENDBRANCH   1  22
TORSDOF 3
ENDMDL
MODEL 4
REMARK VINA RESULT:      -6.3      2.466      7.858
REMARK  Name = 
REMARK  7 active torsions:
REMARK  status: ('A' for Active; 'I' for Inactive)
REMARK    1  A    between atoms: C_1  and  C_2
REMARK    2  A    between atoms: C_2  and  C_3
REMARK    3  A    between atoms: C_3  and  C_4
REMARK    4  A    between atoms: C_3  and  C_5
REMARK    5  A    between atoms: C_5  and  C_7
REMARK    6  A    between atoms: C_20  and  C_21
REMARK    7  A    between atoms: C_25  and  C_26
REMARK                            x       y       z     vdW  Elec       q    Type
REMARK                         _______ _______ _______ _____ _____    ______ ____
ROOT
ATOM      1  C   UNL     1       1.081  11.163  19.646  0.00  0.00    +0.000 C 
ATOM      2  C   UNL     1       0.217  10.877  20.906  0.00  0.00    +0.000 C 
ATOM      3  C   UNL     1       0.219   9.354  21.113  0.00  0.00    +0.000 C 
ATOM      4  C   UNL     1       1.300   8.862  20.160  0.00  0.00    +0.000 C 
ATOM      5  C   UNL     1       1.323   7.375  19.790  0.00  0.00    +0.000 C 
ATOM      6  C   UNL     1       1.445   6.482  21.036  0.00  0.00    +0.000 C 
ATOM      7  C   UNL     1       1.585   5.000  20.687  0.00  0.00    +0.000 C 
ATOM      8  C   UNL     1       2.726   4.780  19.693  0.00  0.00    +0.000 C 
ATOM      9  N   UNL     1       2.950   3.382  19.396  0.00  0.00    +0.000 N 
ATOM     10  C   UNL     1       3.907   3.014  18.485  0.00  0.00    +0.000 C 
ATOM     11  O   UNL     1       4.332   1.872  18.405  0.00  0.00    +0.000 OA
ATOM     12  C   UNL     1       4.396   4.087  17.583  0.00  0.00    +0.000 C 
ATOM     13  C   UNL     1       3.773   5.277  17.508  0.00  0.00    +0.000 C 
ATOM     14  C   UNL     1       2.565   5.607  18.380  0.00  0.00    +0.000 C 
ATOM     15  C   UNL     1       1.308   5.174  17.583  0.00  0.00    +0.000 C 
ATOM     16  C   UNL     1       2.503   7.111  18.797  0.00  0.00    +0.000 C 
ATOM     17  C   UNL     1       2.492   8.092  17.606  0.00  0.00    +0.000 C 
ATOM     18  C   UNL     1       2.383   9.554  18.046  0.00  0.00    +0.000 C 
ATOM     19  C   UNL     1       1.148   9.791  18.931  0.00  0.00    +0.000 C 
ATOM     20  C   UNL     1      -0.152   9.550  18.120  0.00  0.00    +0.000 C 
ATOM     21  H   UNL     1       2.708   2.660  20.063  0.00  0.00    +0.000 HD
ENDROOT
BRANCH   1  22
ATOM     22  C   UNL     1       0.547  12.331  18.803  0.00  0.00    +0.000 C 
ATOM     23  O   UNL     1      -0.585  12.298  18.320  0.00  0.00    +0.000 OA
BRANCH  22  24
ATOM     24  C   UNL     1       1.466  13.545  18.577  0.00  0.00    +0.000 C 
ATOM     25  C   UNL     1       2.808  13.097  18.002  0.00  0.00    +0.000 C 
BRANCH  24  27
ATOM     26  C   UNL     1       3.044  14.347  20.420  0.00  0.00    +0.000 C 
ATOM     27  C   UNL     1       1.625  14.360  19.871  0.00  0.00    +0.000 C 
ENDBRANCH  24  27
ENDBRANCH  22  24
ENDBRANCH   1  22
TORSDOF 3
ENDMDL
MODEL 5
REMARK VINA RESULT:      -6.2      2.286      8.073
REMARK  Name = 
REMARK  7 active torsions:
REMARK  status: ('A' for Active; 'I' for Inactive)
REMARK    1  A    between atoms: C_1  and  C_2
REMARK    2  A    between atoms: C_2  and  C_3
REMARK    3  A    between atoms: C_3  and  C_4
REMARK    4  A    between atoms: C_3  and  C_5
REMARK    5  A    between atoms: C_5  and  C_7
REMARK    6  A    between atoms: C_20  and  C_21
REMARK    7  A    between atoms: C_25  and  C_26
REMARK                            x       y       z     vdW  Elec       q    Type
REMARK                         _______ _______ _______ _____ _____    ______ ____
ROOT
ATOM      1  C   UNL     1      -0.165  11.660  20.547  0.00  0.00    +0.000 C 
ATOM      2  C   UNL     1      -0.768  10.970  21.802  0.00  0.00    +0.000 C 
ATOM      3  C   UNL     1      -0.318   9.501  21.763  0.00  0.00    +0.000 C 
ATOM      4  C   UNL     1       0.744   9.478  20.671  0.00  0.00    +0.000 C 
ATOM      5  C   UNL     1       1.139   8.126  20.068  0.00  0.00    +0.000 C 
ATOM      6  C   UNL     1       1.644   7.151  21.145  0.00  0.00    +0.000 C 
ATOM      7  C   UNL     1       2.153   5.835  20.555  0.00  0.00    +0.000 C 
ATOM      8  C   UNL     1       3.191   6.092  19.462  0.00  0.00    +0.000 C 
ATOM      9  N   UNL     1       3.762   4.874  18.931  0.00  0.00    +0.000 N 
ATOM     10  C   UNL     1       4.675   4.926  17.909  0.00  0.00    +0.000 C 
ATOM     11  O   UNL     1       5.390   3.980  17.619  0.00  0.00    +0.000 OA
ATOM     12  C   UNL     1       4.740   6.205  17.158  0.00  0.00    +0.000 C 
ATOM     13  C   UNL     1       3.805   7.159  17.317  0.00  0.00    +0.000 C 
ATOM     14  C   UNL     1       2.659   7.002  18.312  0.00  0.00    +0.000 C 
ATOM     15  C   UNL     1       1.492   6.331  17.545  0.00  0.00    +0.000 C 
ATOM     16  C   UNL     1       2.227   8.353  18.967  0.00  0.00    +0.000 C 
ATOM     17  C   UNL     1       1.809   9.437  17.951  0.00  0.00    +0.000 C 
ATOM     18  C   UNL     1       1.346  10.731  18.625  0.00  0.00    +0.000 C 
ATOM     19  C   UNL     1       0.202  10.476  19.620  0.00  0.00    +0.000 C 
ATOM     20  C   UNL     1      -1.062   9.975  18.872  0.00  0.00    +0.000 C 
ATOM     21  H   UNL     1       3.807   4.031  19.490  0.00  0.00    +0.000 HD
ENDROOT
BRANCH   1  22
ATOM     22  C   UNL     1      -1.096  12.722  19.940  0.00  0.00    +0.000 C 
ATOM     23  O   UNL     1      -0.759  13.368  18.948  0.00  0.00    +0.000 OA
BRANCH  22  24
ATOM     24  C   UNL     1      -2.462  12.958  20.608  0.00  0.00    +0.000 C 
ATOM     25  C   UNL     1      -3.592  12.507  19.684  0.00  0.00    +0.000 C 
BRANCH  24  27
ATOM     26  C   UNL     1      -1.782  14.773  22.274  0.00  0.00    +0.000 C 
ATOM     27  C   UNL     1      -2.612  14.424  21.046  0.00  0.00    +0.000 C 
ENDBRANCH  24  27
ENDBRANCH  22  24
ENDBRANCH   1  22
TORSDOF 3
ENDMDL
MODEL 6
REMARK VINA RESULT:      -6.2      2.263      7.947
REMARK  Name = 
REMARK  7 active torsions:
REMARK  status: ('A' for Active; 'I' for Inactive)
REMARK    1  A    between atoms: C_1  and  C_2
REMARK    2  A    between atoms: C_2  and  C_3
REMARK    3  A    between atoms: C_3  and  C_4
REMARK    4  A    between atoms: C_3  and  C_5
REMARK    5  A    between atoms: C_5  and  C_7
REMARK    6  A    between atoms: C_20  and  C_21
REMARK    7  A    between atoms: C_25  and  C_26
REMARK                            x       y       z     vdW  Elec       q    Type
REMARK                         _______ _______ _______ _____ _____    ______ ____
ROOT
ATOM      1  C   UNL     1      -0.067  11.384  20.967  0.00  0.00    +0.000 C 
ATOM      2  C   UNL     1      -0.652  10.601  22.176  0.00  0.00    +0.000 C 
ATOM      3  C   UNL     1      -0.213   9.137  22.014  0.00  0.00    +0.000 C 
ATOM      4  C   UNL     1       0.828   9.193  20.904  0.00  0.00    +0.000 C 
ATOM      5  C   UNL     1       1.202   7.890  20.189  0.00  0.00    +0.000 C 
ATOM      6  C   UNL     1       1.720   6.831  21.176  0.00  0.00    +0.000 C 
ATOM      7  C   UNL     1       2.208   5.562  20.476  0.00  0.00    +0.000 C 
ATOM      8  C   UNL     1       3.227   5.898  19.387  0.00  0.00    +0.000 C 
ATOM      9  N   UNL     1       3.779   4.722  18.751  0.00  0.00    +0.000 N 
ATOM     10  C   UNL     1       4.673   4.848  17.719  0.00  0.00    +0.000 C 
ATOM     11  O   UNL     1       5.376   3.924  17.342  0.00  0.00    +0.000 OA
ATOM     12  C   UNL     1       4.733   6.183  17.069  0.00  0.00    +0.000 C 
ATOM     13  C   UNL     1       3.809   7.127  17.320  0.00  0.00    +0.000 C 
ATOM     14  C   UNL     1       2.681   6.898  18.322  0.00  0.00    +0.000 C 
ATOM     15  C   UNL     1       1.495   6.296  17.527  0.00  0.00    +0.000 C 
ATOM     16  C   UNL     1       2.271   8.197  19.088  0.00  0.00    +0.000 C 
ATOM     17  C   UNL     1       1.841   9.359  18.168  0.00  0.00    +0.000 C 
ATOM     18  C   UNL     1       1.401  10.599  18.950  0.00  0.00    +0.000 C 
ATOM     19  C   UNL     1       0.274  10.274  19.944  0.00  0.00    +0.000 C 
ATOM     20  C   UNL     1      -1.008   9.840  19.184  0.00  0.00    +0.000 C 
ATOM     21  H   UNL     1       3.829   3.838  19.242  0.00  0.00    +0.000 HD
ENDROOT
BRANCH   1  22
ATOM     22  C   UNL     1      -1.001  12.496  20.463  0.00  0.00    +0.000 C 
ATOM     23  O   UNL     1      -2.218  12.423  20.628  0.00  0.00    +0.000 OA
BRANCH  22  24
ATOM     24  C   UNL     1      -0.373  13.703  19.745  0.00  0.00    +0.000 C 
ATOM     25  C   UNL     1      -0.439  13.517  18.231  0.00  0.00    +0.000 C 
BRANCH  24  27
ATOM     26  C   UNL     1       1.912  14.742  19.259  0.00  0.00    +0.000 C 
ATOM     27  C   UNL     1       1.061  13.952  20.244  0.00  0.00    +0.000 C 
ENDBRANCH  24  27
ENDBRANCH  22  24
ENDBRANCH   1  22
TORSDOF 3
ENDMDL
MODEL 7
REMARK VINA RESULT:      -6.1      2.362      8.003
REMARK  Name = 
REMARK  7 active torsions:
REMARK  status: ('A' for Active; 'I' for Inactive)
REMARK    1  A    between atoms: C_1  and  C_2
REMARK    2  A    between atoms: C_2  and  C_3
REMARK    3  A    between atoms: C_3  and  C_4
REMARK    4  A    between atoms: C_3  and  C_5
REMARK    5  A    between atoms: C_5  and  C_7
REMARK    6  A    between atoms: C_20  and  C_21
REMARK    7  A    between atoms: C_25  and  C_26
REMARK                            x       y       z     vdW  Elec       q    Type
REMARK                         _______ _______ _______ _____ _____    ______ ____
ROOT
ATOM      1  C   UNL     1       0.665  11.585  19.994  0.00  0.00    +0.000 C 
ATOM      2  C   UNL     1      -0.151  11.152  21.245  0.00  0.00    +0.000 C 
ATOM      3  C   UNL     1      -0.007   9.627  21.365  0.00  0.00    +0.000 C 
ATOM      4  C   UNL     1       1.100   9.290  20.376  0.00  0.00    +0.000 C 
ATOM      5  C   UNL     1       1.253   7.834  19.922  0.00  0.00    +0.000 C 
ATOM      6  C   UNL     1       1.475   6.888  21.114  0.00  0.00    +0.000 C 
ATOM      7  C   UNL     1       1.745   5.447  20.680  0.00  0.00    +0.000 C 
ATOM      8  C   UNL     1       2.886   5.388  19.665  0.00  0.00    +0.000 C 
ATOM      9  N   UNL     1       3.233   4.035  19.287  0.00  0.00    +0.000 N 
ATOM     10  C   UNL     1       4.205   3.807  18.348  0.00  0.00    +0.000 C 
ATOM     11  O   UNL     1       4.732   2.716  18.199  0.00  0.00    +0.000 OA
ATOM     12  C   UNL     1       4.580   4.970  17.502  0.00  0.00    +0.000 C 
ATOM     13  C   UNL     1       3.850   6.099  17.501  0.00  0.00    +0.000 C 
ATOM     14  C   UNL     1       2.630   6.268  18.402  0.00  0.00    +0.000 C 
ATOM     15  C   UNL     1       1.407   5.767  17.594  0.00  0.00    +0.000 C 
ATOM     16  C   UNL     1       2.438   7.735  18.904  0.00  0.00    +0.000 C 
ATOM     17  C   UNL     1       2.319   8.775  17.770  0.00  0.00    +0.000 C 
ATOM     18  C   UNL     1       2.084  10.194  18.294  0.00  0.00    +0.000 C 
ATOM     19  C   UNL     1       0.846  10.267  19.203  0.00  0.00    +0.000 C 
ATOM     20  C   UNL     1      -0.439   9.953  18.392  0.00  0.00    +0.000 C 
ATOM     21  H   UNL     1       3.067   3.259  19.915  0.00  0.00    +0.000 HD
ENDROOT
BRANCH   1  22
ATOM     22  C   UNL     1       0.013  12.745  19.224  0.00  0.00    +0.000 C 
ATOM     23  O   UNL     1      -1.126  12.642  18.771  0.00  0.00    +0.000 OA
BRANCH  22  24
ATOM     24  C   UNL     1       0.825  14.038  19.033  0.00  0.00    +0.000 C 
ATOM     25  C   UNL     1      -0.098  15.198  18.667  0.00  0.00    +0.000 C 
BRANCH  24  27
ATOM     26  C   UNL     1       3.342  13.894  18.612  0.00  0.00    +0.000 C 
ATOM     27  C   UNL     1       1.948  13.833  18.003  0.00  0.00    +0.000 C 
ENDBRANCH  24  27
ENDBRANCH  22  24
ENDBRANCH   1  22
TORSDOF 3
ENDMDL
MODEL 8
REMARK VINA RESULT:      -6.0      8.921     10.954
REMARK  Name = 
REMARK  7 active torsions:
REMARK  status: ('A' for Active; 'I' for Inactive)
REMARK    1  A    between atoms: C_1  and  C_2
REMARK    2  A    between atoms: C_2  and  C_3
REMARK    3  A    between atoms: C_3  and  C_4
REMARK    4  A    between atoms: C_3  and  C_5
REMARK    5  A    between atoms: C_5  and  C_7
REMARK    6  A    between atoms: C_20  and  C_21
REMARK    7  A    between atoms: C_25  and  C_26
REMARK                            x       y       z     vdW  Elec       q    Type
REMARK                         _______ _______ _______ _____ _____    ______ ____
ROOT
ATOM      1  C   UNL     1       6.249  13.365  24.087  0.00  0.00    +0.000 C 
ATOM      2  C   UNL     1       5.443  14.644  23.725  0.00  0.00    +0.000 C 
ATOM      3  C   UNL     1       6.077  15.225  22.450  0.00  0.00    +0.000 C 
ATOM      4  C   UNL     1       7.011  14.119  21.976  0.00  0.00    +0.000 C 
ATOM      5  C   UNL     1       8.107  14.475  20.966  0.00  0.00    +0.000 C 
ATOM      6  C   UNL     1       7.520  15.087  19.683  0.00  0.00    +0.000 C 
ATOM      7  C   UNL     1       8.583  15.344  18.614  0.00  0.00    +0.000 C 
ATOM      8  C   UNL     1       9.400  14.081  18.342  0.00  0.00    +0.000 C 
ATOM      9  N   UNL     1      10.365  14.254  17.278  0.00  0.00    +0.000 N 
ATOM     10  C   UNL     1      11.212  13.231  16.939  0.00  0.00    +0.000 C 
ATOM     11  O   UNL     1      11.835  13.214  15.890  0.00  0.00    +0.000 OA
ATOM     12  C   UNL     1      11.343  12.137  17.936  0.00  0.00    +0.000 C 
ATOM     13  C   UNL     1      10.849  12.259  19.180  0.00  0.00    +0.000 C 
ATOM     14  C   UNL     1      10.083  13.504  19.620  0.00  0.00    +0.000 C 
ATOM     15  C   UNL     1      11.129  14.488  20.203  0.00  0.00    +0.000 C 
ATOM     16  C   UNL     1       8.942  13.192  20.641  0.00  0.00    +0.000 C 
ATOM     17  C   UNL     1       9.424  12.472  21.919  0.00  0.00    +0.000 C 
ATOM     18  C   UNL     1       8.292  12.224  22.918  0.00  0.00    +0.000 C 
ATOM     19  C   UNL     1       7.568  13.528  23.293  0.00  0.00    +0.000 C 
ATOM     20  C   UNL     1       8.530  14.481  24.051  0.00  0.00    +0.000 C 
ATOM     21  H   UNL     1      10.215  14.934  16.543  0.00  0.00    +0.000 HD
ENDROOT
BRANCH   1  22
ATOM     22  C   UNL     1       6.400  13.160  25.603  0.00  0.00    +0.000 C 
ATOM     23  O   UNL     1       6.341  14.112  26.379  0.00  0.00    +0.000 OA
BRANCH  22  24
ATOM     24  C   UNL     1       6.628  11.729  26.123  0.00  0.00    +0.000 C 
ATOM     25  C   UNL     1       5.475  10.820  25.704  0.00  0.00    +0.000 C 
BRANCH  24  27
ATOM     26  C   UNL     1       6.490  10.408  28.306  0.00  0.00    +0.000 C 
ATOM     27  C   UNL     1       6.854  11.729  27.644  0.00  0.00    +0.000 C 
ENDBRANCH  24  27
ENDBRANCH  22  24
ENDBRANCH   1  22
TORSDOF 3
ENDMDL
MODEL 9
REMARK VINA RESULT:      -6.0      2.758      5.179
REMARK  Name = 
REMARK  7 active torsions:
REMARK  status: ('A' for Active; 'I' for Inactive)
REMARK    1  A    between atoms: C_1  and  C_2
REMARK    2  A    between atoms: C_2  and  C_3
REMARK    3  A    between atoms: C_3  and  C_4
REMARK    4  A    between atoms: C_3  and  C_5
REMARK    5  A    between atoms: C_5  and  C_7
REMARK    6  A    between atoms: C_20  and  C_21
REMARK    7  A    between atoms: C_25  and  C_26
REMARK                            x       y       z     vdW  Elec       q    Type
REMARK                         _______ _______ _______ _____ _____    ______ ____
ROOT
ATOM      1  C   UNL     1       1.052   8.531  19.438  0.00  0.00    +0.000 C 
ATOM      2  C   UNL     1       1.711   8.324  20.830  0.00  0.00    +0.000 C 
ATOM      3  C   UNL     1       1.063   9.339  21.786  0.00  0.00    +0.000 C 
ATOM      4  C   UNL     1      -0.123   9.874  20.993  0.00  0.00    +0.000 C 
ATOM      5  C   UNL     1      -0.773  11.184  21.451  0.00  0.00    +0.000 C 
ATOM      6  C   UNL     1      -1.265  11.095  22.905  0.00  0.00    +0.000 C 
ATOM      7  C   UNL     1      -2.020  12.349  23.348  0.00  0.00    +0.000 C 
ATOM      8  C   UNL     1      -3.144  12.684  22.368  0.00  0.00    +0.000 C 
ATOM      9  N   UNL     1      -3.940  13.816  22.790  0.00  0.00    +0.000 N 
ATOM     10  C   UNL     1      -4.959  14.278  21.999  0.00  0.00    +0.000 C 
ATOM     11  O   UNL     1      -5.829  15.026  22.418  0.00  0.00    +0.000 OA
ATOM     12  C   UNL     1      -4.945  13.824  20.584  0.00  0.00    +0.000 C 
ATOM     13  C   UNL     1      -3.876  13.197  20.061  0.00  0.00    +0.000 C 
ATOM     14  C   UNL     1      -2.644  12.874  20.902  0.00  0.00    +0.000 C 
ATOM     15  C   UNL     1      -1.688  14.086  20.777  0.00  0.00    +0.000 C 
ATOM     16  C   UNL     1      -1.951  11.537  20.484  0.00  0.00    +0.000 C 
ATOM     17  C   UNL     1      -1.522  11.490  19.002  0.00  0.00    +0.000 C 
ATOM     18  C   UNL     1      -0.805  10.189  18.636  0.00  0.00    +0.000 C 
ATOM     19  C   UNL     1       0.412   9.936  19.542  0.00  0.00    +0.000 C 
ATOM     20  C   UNL     1       1.489  11.029  19.317  0.00  0.00    +0.000 C 
ATOM     21  H   UNL     1      -4.028  14.057  23.769  0.00  0.00    +0.000 HD
ENDROOT
BRANCH   1  22
ATOM     22  C   UNL     1       2.035   8.327  18.273  0.00  0.00    +0.000 C 
ATOM     23  O   UNL     1       2.070   9.116  17.330  0.00  0.00    +0.000 OA
BRANCH  22  24
ATOM     24  C   UNL     1       2.972   7.108  18.318  0.00  0.00    +0.000 C 
ATOM     25  C   UNL     1       4.107   7.270  17.309  0.00  0.00    +0.000 C 
BRANCH  24  27
ATOM     26  C   UNL     1       2.160   4.912  19.345  0.00  0.00    +0.000 C 
ATOM     27  C   UNL     1       2.185   5.803  18.111  0.00  0.00    +0.000 C 
ENDBRANCH  24  27
ENDBRANCH  22  24
ENDBRANCH   1  22
TORSDOF 3
ENDMDL
