MODEL 1
REMARK VINA RESULT:      -8.2      0.000      0.000
REMARK  Name = 
REMARK  4 active torsions:
REMARK  status: ('A' for Active; 'I' for Inactive)
REMARK    1  A    between atoms: C_2  and  C_21
REMARK    2  A    between atoms: N_3  and  C_4
REMARK    3  A    between atoms: C_7  and  N_8
REMARK    4  A    between atoms: C_9  and  C_11
REMARK                            x       y       z     vdW  Elec       q    Type
REMARK                         _______ _______ _______ _____ _____    ______ ____
ROOT
ATOM      1  C   UNL     1       2.046   8.451  18.747  0.00  0.00    +0.000 A 
ATOM      2  C   UNL     1       1.307   9.355  17.998  0.00  0.00    +0.000 A 
ATOM      3  C   UNL     1       0.289  10.101  18.579  0.00  0.00    +0.000 A 
ATOM      4  C   UNL     1      -0.043   9.964  19.924  0.00  0.00    +0.000 A 
ATOM      5  C   UNL     1       0.694   9.052  20.689  0.00  0.00    +0.000 A 
ATOM      6  C   UNL     1       1.724   8.289  20.100  0.00  0.00    +0.000 A 
ENDROOT
BRANCH   1   9
ATOM      7  O   UNL     1       2.108   5.580  18.147  0.00  0.00    +0.000 OA
ATOM      8  C   UNL     1       3.058   6.330  17.957  0.00  0.00    +0.000 C 
ATOM      9  N   UNL     1       3.100   7.700  18.180  0.00  0.00    +0.000 N 
ATOM     10  H   UNL     1       3.873   8.226  17.796  0.00  0.00    +0.000 HD
BRANCH   8  11
ATOM     11  C   UNL     1       4.267   5.726  17.354  0.00  0.00    +0.000 A 
ATOM     12  C   UNL     1       4.248   4.465  16.741  0.00  0.00    +0.000 A 
ATOM     13  C   UNL     1       5.416   3.957  16.170  0.00  0.00    +0.000 A 
ATOM     14  C   UNL     1       6.588   4.713  16.207  0.00  0.00    +0.000 A 
ATOM     15  F   UNL     1       7.705   4.216  15.658  0.00  0.00    +0.000 F 
ATOM     16  C   UNL     1       6.600   5.972  16.793  0.00  0.00    +0.000 A 
ATOM     17  F   UNL     1       7.724   6.699  16.813  0.00  0.00    +0.000 F 
ATOM     18  C   UNL     1       5.445   6.488  17.362  0.00  0.00    +0.000 A 
ENDBRANCH   8  11
ENDBRANCH   1   9
BRANCH   4  19
ATOM     19  N   UNL     1      -1.094  10.708  20.523  0.00  0.00    +0.000 N 
ATOM     20  C   UNL     1      -0.936  11.586  21.585  0.00  0.00    +0.000 C 
ATOM     21  O   UNL     1       0.129  11.858  22.135  0.00  0.00    +0.000 OA
ATOM     22  H   UNL     1      -2.022  10.590  20.128  0.00  0.00    +0.000 HD
BRANCH  20  23
ATOM     23  C   UNL     1      -2.124  12.279  22.141  0.00  0.00    +0.000 A 
ATOM     24  C   UNL     1      -2.489  11.956  23.465  0.00  0.00    +0.000 A 
ATOM     25  C   UNL     1      -3.623  12.509  24.051  0.00  0.00    +0.000 A 
ATOM     26  C   UNL     1      -4.393  13.399  23.316  0.00  0.00    +0.000 A 
ATOM     27  F   UNL     1      -5.496  13.919  23.867  0.00  0.00    +0.000 F 
ATOM     28  C   UNL     1      -4.041  13.753  22.016  0.00  0.00    +0.000 A 
ATOM     29  C   UNL     1      -2.905  13.191  21.436  0.00  0.00    +0.000 A 
ATOM     30  F   UNL     1      -2.586  13.544  20.180  0.00  0.00    +0.000 F 
ENDBRANCH  20  23
ENDBRANCH   4  19
TORSDOF 4
ENDMDL
MODEL 2
REMARK VINA RESULT:      -8.1      1.104     11.173
REMARK  Name = 
REMARK  4 active torsions:
REMARK  status: ('A' for Active; 'I' for Inactive)
REMARK    1  A    between atoms: C_2  and  C_21
REMARK    2  A    between atoms: N_3  and  C_4
REMARK    3  A    between atoms: C_7  and  N_8
REMARK    4  A    between atoms: C_9  and  C_11
REMARK                            x       y       z     vdW  Elec       q    Type
REMARK                         _______ _______ _______ _____ _____    ______ ____
ROOT
ATOM      1  C   UNL     1      -0.131  10.096  20.082  0.00  0.00    +0.000 A 
ATOM      2  C   UNL     1       0.620   9.153  20.769  0.00  0.00    +0.000 A 
ATOM      3  C   UNL     1       1.612   8.423  20.126  0.00  0.00    +0.000 A 
ATOM      4  C   UNL     1       1.883   8.592  18.770  0.00  0.00    +0.000 A 
ATOM      5  C   UNL     1       1.129   9.539  18.066  0.00  0.00    +0.000 A 
ATOM      6  C   UNL     1       0.116  10.276  18.716  0.00  0.00    +0.000 A 
ENDROOT
BRANCH   1   9
ATOM      7  O   UNL     1       0.220  12.347  21.930  0.00  0.00    +0.000 OA
ATOM      8  C   UNL     1      -0.875  11.898  21.613  0.00  0.00    +0.000 C 
ATOM      9  N   UNL     1      -1.129  10.863  20.723  0.00  0.00    +0.000 N 
ATOM     10  H   UNL     1      -2.078  10.727  20.404  0.00  0.00    +0.000 HD
BRANCH   8  11
ATOM     11  C   UNL     1      -2.059  12.581  22.183  0.00  0.00    +0.000 A 
ATOM     12  C   UNL     1      -2.605  13.736  21.608  0.00  0.00    +0.000 A 
ATOM     13  C   UNL     1      -3.737  14.323  22.178  0.00  0.00    +0.000 A 
ATOM     14  C   UNL     1      -4.317  13.747  23.308  0.00  0.00    +0.000 A 
ATOM     15  F   UNL     1      -5.402  14.318  23.849  0.00  0.00    +0.000 F 
ATOM     16  C   UNL     1      -3.789  12.589  23.862  0.00  0.00    +0.000 A 
ATOM     17  F   UNL     1      -4.359  12.032  24.939  0.00  0.00    +0.000 F 
ATOM     18  C   UNL     1      -2.667  11.996  23.304  0.00  0.00    +0.000 A 
ENDBRANCH   8  11
ENDBRANCH   1   9
BRANCH   4  19
ATOM     19  N   UNL     1       2.882   7.838  18.099  0.00  0.00    +0.000 N 
ATOM     20  C   UNL     1       3.067   6.471  18.234  0.00  0.00    +0.000 C 
ATOM     21  O   UNL     1       2.384   5.723  18.931  0.00  0.00    +0.000 OA
ATOM     22  H   UNL     1       3.490   8.347  17.465  0.00  0.00    +0.000 HD
BRANCH  20  23
ATOM     23  C   UNL     1       4.171   5.808  17.499  0.00  0.00    +0.000 A 
ATOM     24  C   UNL     1       5.379   6.527  17.377  0.00  0.00    +0.000 A 
ATOM     25  C   UNL     1       6.450   6.012  16.654  0.00  0.00    +0.000 A 
ATOM     26  C   UNL     1       6.320   4.767  16.056  0.00  0.00    +0.000 A 
ATOM     27  F   UNL     1       7.340   4.275  15.342  0.00  0.00    +0.000 F 
ATOM     28  C   UNL     1       5.148   4.026  16.182  0.00  0.00    +0.000 A 
ATOM     29  C   UNL     1       4.078   4.551  16.906  0.00  0.00    +0.000 A 
ATOM     30  F   UNL     1       2.957   3.820  17.011  0.00  0.00    +0.000 F 
ENDBRANCH  20  23
ENDBRANCH   4  19
TORSDOF 4
ENDMDL
MODEL 3
REMARK VINA RESULT:      -8.0      1.657     11.096
REMARK  Name = 
REMARK  4 active torsions:
REMARK  status: ('A' for Active; 'I' for Inactive)
REMARK    1  A    between atoms: C_2  and  C_21
REMARK    2  A    between atoms: N_3  and  C_4
REMARK    3  A    between atoms: C_7  and  N_8
REMARK    4  A    between atoms: C_9  and  C_11
REMARK                            x       y       z     vdW  Elec       q    Type
REMARK                         _______ _______ _______ _____ _____    ______ ____
ROOT
ATOM      1  C   UNL     1       0.395   9.895  20.340  0.00  0.00    +0.000 A 
ATOM      2  C   UNL     1       0.521  10.160  18.984  0.00  0.00    +0.000 A 
ATOM      3  C   UNL     1       1.276   9.333  18.162  0.00  0.00    +0.000 A 
ATOM      4  C   UNL     1       1.949   8.221  18.661  0.00  0.00    +0.000 A 
ATOM      5  C   UNL     1       1.832   7.946  20.029  0.00  0.00    +0.000 A 
ATOM      6  C   UNL     1       1.070   8.788  20.867  0.00  0.00    +0.000 A 
ENDROOT
BRANCH   1   9
ATOM      7  O   UNL     1       1.029  12.565  21.378  0.00  0.00    +0.000 OA
ATOM      8  C   UNL     1       0.004  11.957  21.661  0.00  0.00    +0.000 C 
ATOM      9  N   UNL     1      -0.387  10.711  21.188  0.00  0.00    +0.000 N 
ATOM     10  H   UNL     1      -1.341  10.416  21.345  0.00  0.00    +0.000 HD
BRANCH   8  11
ATOM     11  C   UNL     1      -0.958  12.656  22.543  0.00  0.00    +0.000 A 
ATOM     12  C   UNL     1      -0.820  14.011  22.875  0.00  0.00    +0.000 A 
ATOM     13  C   UNL     1      -1.772  14.621  23.694  0.00  0.00    +0.000 A 
ATOM     14  C   UNL     1      -2.855  13.879  24.165  0.00  0.00    +0.000 A 
ATOM     15  F   UNL     1      -3.763  14.473  24.951  0.00  0.00    +0.000 F 
ATOM     16  C   UNL     1      -3.003  12.544  23.815  0.00  0.00    +0.000 A 
ATOM     17  F   UNL     1      -4.053  11.839  24.258  0.00  0.00    +0.000 F 
ATOM     18  C   UNL     1      -2.065  11.927  23.001  0.00  0.00    +0.000 A 
ENDBRANCH   8  11
ENDBRANCH   1   9
BRANCH   4  19
ATOM     19  N   UNL     1       2.739   7.380  17.833  0.00  0.00    +0.000 N 
ATOM     20  C   UNL     1       3.539   6.344  18.291  0.00  0.00    +0.000 C 
ATOM     21  O   UNL     1       3.657   5.998  19.464  0.00  0.00    +0.000 OA
ATOM     22  H   UNL     1       2.696   7.550  16.833  0.00  0.00    +0.000 HD
BRANCH  20  23
ATOM     23  C   UNL     1       4.341   5.559  17.322  0.00  0.00    +0.000 A 
ATOM     24  C   UNL     1       5.136   6.289  16.412  0.00  0.00    +0.000 A 
ATOM     25  C   UNL     1       5.876   5.642  15.427  0.00  0.00    +0.000 A 
ATOM     26  C   UNL     1       5.832   4.257  15.355  0.00  0.00    +0.000 A 
ATOM     27  F   UNL     1       6.527   3.630  14.398  0.00  0.00    +0.000 F 
ATOM     28  C   UNL     1       5.076   3.512  16.257  0.00  0.00    +0.000 A 
ATOM     29  C   UNL     1       4.336   4.169  17.239  0.00  0.00    +0.000 A 
ATOM     30  F   UNL     1       3.611   3.430  18.094  0.00  0.00    +0.000 F 
ENDBRANCH  20  23
ENDBRANCH   4  19
TORSDOF 4
ENDMDL
MODEL 4
REMARK VINA RESULT:      -7.9      0.941      1.589
REMARK  Name = 
REMARK  4 active torsions:
REMARK  status: ('A' for Active; 'I' for Inactive)
REMARK    1  A    between atoms: C_2  and  C_21
REMARK    2  A    between atoms: N_3  and  C_4
REMARK    3  A    between atoms: C_7  and  N_8
REMARK    4  A    between atoms: C_9  and  C_11
REMARK                            x       y       z     vdW  Elec       q    Type
REMARK                         _______ _______ _______ _____ _____    ______ ____
ROOT
ATOM      1  C   UNL     1       2.108   8.371  18.873  0.00  0.00    +0.000 A 
ATOM      2  C   UNL     1       1.766   8.178  20.204  0.00  0.00    +0.000 A 
ATOM      3  C   UNL     1       0.728   8.897  20.786  0.00  0.00    +0.000 A 
ATOM      4  C   UNL     1       0.003   9.846  20.071  0.00  0.00    +0.000 A 
ATOM      5  C   UNL     1       0.342  10.051  18.728  0.00  0.00    +0.000 A 
ATOM      6  C   UNL     1       1.399   9.327  18.136  0.00  0.00    +0.000 A 
ENDROOT
BRANCH   1   9
ATOM      7  O   UNL     1       2.150   5.517  18.195  0.00  0.00    +0.000 OA
ATOM      8  C   UNL     1       3.095   6.271  17.999  0.00  0.00    +0.000 C 
ATOM      9  N   UNL     1       3.144   7.635  18.257  0.00  0.00    +0.000 N 
ATOM     10  H   UNL     1       3.907   8.170  17.866  0.00  0.00    +0.000 HD
BRANCH   8  11
ATOM     11  C   UNL     1       4.286   5.683  17.347  0.00  0.00    +0.000 A 
ATOM     12  C   UNL     1       4.255   4.428  16.723  0.00  0.00    +0.000 A 
ATOM     13  C   UNL     1       5.406   3.935  16.105  0.00  0.00    +0.000 A 
ATOM     14  C   UNL     1       6.572   4.700  16.107  0.00  0.00    +0.000 A 
ATOM     15  F   UNL     1       7.671   4.218  15.513  0.00  0.00    +0.000 F 
ATOM     16  C   UNL     1       6.594   5.953  16.704  0.00  0.00    +0.000 A 
ATOM     17  F   UNL     1       7.713   6.690  16.690  0.00  0.00    +0.000 F 
ATOM     18  C   UNL     1       5.457   6.455  17.319  0.00  0.00    +0.000 A 
ENDBRANCH   8  11
ENDBRANCH   1   9
BRANCH   4  19
ATOM     19  N   UNL     1      -1.046  10.599  20.662  0.00  0.00    +0.000 N 
ATOM     20  C   UNL     1      -0.968  11.944  20.990  0.00  0.00    +0.000 C 
ATOM     21  O   UNL     1       0.004  12.671  20.796  0.00  0.00    +0.000 OA
ATOM     22  H   UNL     1      -1.917  10.109  20.839  0.00  0.00    +0.000 HD
BRANCH  20  23
ATOM     23  C   UNL     1      -2.128  12.606  21.633  0.00  0.00    +0.000 A 
ATOM     24  C   UNL     1      -2.699  13.701  20.949  0.00  0.00    +0.000 A 
ATOM     25  C   UNL     1      -3.752  14.422  21.503  0.00  0.00    +0.000 A 
ATOM     26  C   UNL     1      -4.247  14.043  22.742  0.00  0.00    +0.000 A 
ATOM     27  F   UNL     1      -5.247  14.745  23.289  0.00  0.00    +0.000 F 
ATOM     28  C   UNL     1      -3.719  12.951  23.426  0.00  0.00    +0.000 A 
ATOM     29  C   UNL     1      -2.662  12.236  22.865  0.00  0.00    +0.000 A 
ATOM     30  F   UNL     1      -2.166  11.189  23.544  0.00  0.00    +0.000 F 
ENDBRANCH  20  23
ENDBRANCH   4  19
TORSDOF 4
ENDMDL
MODEL 5
REMARK VINA RESULT:      -7.9      1.213     11.164
REMARK  Name = 
REMARK  4 active torsions:
REMARK  status: ('A' for Active; 'I' for Inactive)
REMARK    1  A    between atoms: C_2  and  C_21
REMARK    2  A    between atoms: N_3  and  C_4
REMARK    3  A    between atoms: C_7  and  N_8
REMARK    4  A    between atoms: C_9  and  C_11
REMARK                            x       y       z     vdW  Elec       q    Type
REMARK                         _______ _______ _______ _____ _____    ______ ____
ROOT
ATOM      1  C   UNL     1      -0.208  10.127  20.005  0.00  0.00    +0.000 A 
ATOM      2  C   UNL     1       0.121  10.322  18.671  0.00  0.00    +0.000 A 
ATOM      3  C   UNL     1       1.161   9.613  18.081  0.00  0.00    +0.000 A 
ATOM      4  C   UNL     1       1.923   8.697  18.800  0.00  0.00    +0.000 A 
ATOM      5  C   UNL     1       1.602   8.494  20.148  0.00  0.00    +0.000 A 
ATOM      6  C   UNL     1       0.551   9.217  20.751  0.00  0.00    +0.000 A 
ENDROOT
BRANCH   1   9
ATOM      7  O   UNL     1      -0.075  12.179  22.097  0.00  0.00    +0.000 OA
ATOM      8  C   UNL     1      -1.126  11.761  21.628  0.00  0.00    +0.000 C 
ATOM      9  N   UNL     1      -1.275  10.821  20.617  0.00  0.00    +0.000 N 
ATOM     10  H   UNL     1      -2.186  10.714  20.191  0.00  0.00    +0.000 HD
BRANCH   8  11
ATOM     11  C   UNL     1      -2.371  12.377  22.141  0.00  0.00    +0.000 A 
ATOM     12  C   UNL     1      -3.173  13.212  21.352  0.00  0.00    +0.000 A 
ATOM     13  C   UNL     1      -4.348  13.746  21.886  0.00  0.00    +0.000 A 
ATOM     14  C   UNL     1      -4.715  13.435  23.195  0.00  0.00    +0.000 A 
ATOM     15  F   UNL     1      -5.844  13.953  23.698  0.00  0.00    +0.000 F 
ATOM     16  C   UNL     1      -3.932  12.587  23.967  0.00  0.00    +0.000 A 
ATOM     17  F   UNL     1      -4.297  12.280  25.219  0.00  0.00    +0.000 F 
ATOM     18  C   UNL     1      -2.764  12.049  23.448  0.00  0.00    +0.000 A 
ENDBRANCH   8  11
ENDBRANCH   1   9
BRANCH   4  19
ATOM     19  N   UNL     1       2.999   7.981  18.212  0.00  0.00    +0.000 N 
ATOM     20  C   UNL     1       3.143   6.602  18.240  0.00  0.00    +0.000 C 
ATOM     21  O   UNL     1       2.354   5.813  18.754  0.00  0.00    +0.000 OA
ATOM     22  H   UNL     1       3.702   8.530  17.725  0.00  0.00    +0.000 HD
BRANCH  20  23
ATOM     23  C   UNL     1       4.334   5.980  17.613  0.00  0.00    +0.000 A 
ATOM     24  C   UNL     1       4.629   6.360  16.286  0.00  0.00    +0.000 A 
ATOM     25  C   UNL     1       5.691   5.784  15.595  0.00  0.00    +0.000 A 
ATOM     26  C   UNL     1       6.471   4.832  16.234  0.00  0.00    +0.000 A 
ATOM     27  F   UNL     1       7.482   4.260  15.569  0.00  0.00    +0.000 F 
ATOM     28  C   UNL     1       6.217   4.458  17.551  0.00  0.00    +0.000 A 
ATOM     29  C   UNL     1       5.149   5.037  18.235  0.00  0.00    +0.000 A 
ATOM     30  F   UNL     1       4.920   4.659  19.503  0.00  0.00    +0.000 F 
ENDBRANCH  20  23
ENDBRANCH   4  19
TORSDOF 4
ENDMDL
MODEL 6
REMARK VINA RESULT:      -7.8      0.986      1.281
REMARK  Name = 
REMARK  4 active torsions:
REMARK  status: ('A' for Active; 'I' for Inactive)
REMARK    1  A    between atoms: C_2  and  C_21
REMARK    2  A    between atoms: N_3  and  C_4
REMARK    3  A    between atoms: C_7  and  N_8
REMARK    4  A    between atoms: C_9  and  C_11
REMARK                            x       y       z     vdW  Elec       q    Type
REMARK                         _______ _______ _______ _____ _____    ______ ____
ROOT
ATOM      1  C   UNL     1       1.981   8.509  18.676  0.00  0.00    +0.000 A 
ATOM      2  C   UNL     1       1.216   9.359  17.890  0.00  0.00    +0.000 A 
ATOM      3  C   UNL     1       0.196  10.121  18.446  0.00  0.00    +0.000 A 
ATOM      4  C   UNL     1      -0.113  10.054  19.801  0.00  0.00    +0.000 A 
ATOM      5  C   UNL     1       0.650   9.197  20.604  0.00  0.00    +0.000 A 
ATOM      6  C   UNL     1       1.683   8.418  20.041  0.00  0.00    +0.000 A 
ENDROOT
BRANCH   1   9
ATOM      7  O   UNL     1       2.079   5.611  18.235  0.00  0.00    +0.000 OA
ATOM      8  C   UNL     1       3.013   6.363  17.988  0.00  0.00    +0.000 C 
ATOM      9  N   UNL     1       3.037   7.743  18.134  0.00  0.00    +0.000 N 
ATOM     10  H   UNL     1       3.796   8.258  17.708  0.00  0.00    +0.000 HD
BRANCH   8  11
ATOM     11  C   UNL     1       4.223   5.744  17.399  0.00  0.00    +0.000 A 
ATOM     12  C   UNL     1       4.205   4.465  16.826  0.00  0.00    +0.000 A 
ATOM     13  C   UNL     1       5.373   3.943  16.267  0.00  0.00    +0.000 A 
ATOM     14  C   UNL     1       6.542   4.703  16.275  0.00  0.00    +0.000 A 
ATOM     15  F   UNL     1       7.658   4.193  15.738  0.00  0.00    +0.000 F 
ATOM     16  C   UNL     1       6.552   5.979  16.822  0.00  0.00    +0.000 A 
ATOM     17  F   UNL     1       7.674   6.711  16.815  0.00  0.00    +0.000 F 
ATOM     18  C   UNL     1       5.398   6.510  17.379  0.00  0.00    +0.000 A 
ENDBRANCH   8  11
ENDBRANCH   1   9
BRANCH   4  19
ATOM     19  N   UNL     1      -1.166  10.814  20.376  0.00  0.00    +0.000 N 
ATOM     20  C   UNL     1      -1.033  12.104  20.869  0.00  0.00    +0.000 C 
ATOM     21  O   UNL     1      -0.001  12.770  20.857  0.00  0.00    +0.000 OA
ATOM     22  H   UNL     1      -2.081  10.376  20.411  0.00  0.00    +0.000 HD
BRANCH  20  23
ATOM     23  C   UNL     1      -2.208  12.777  21.475  0.00  0.00    +0.000 A 
ATOM     24  C   UNL     1      -3.329  12.978  20.642  0.00  0.00    +0.000 A 
ATOM     25  C   UNL     1      -4.454  13.654  21.104  0.00  0.00    +0.000 A 
ATOM     26  C   UNL     1      -4.466  14.123  22.410  0.00  0.00    +0.000 A 
ATOM     27  F   UNL     1      -5.537  14.791  22.855  0.00  0.00    +0.000 F 
ATOM     28  C   UNL     1      -3.382  13.916  23.260  0.00  0.00    +0.000 A 
ATOM     29  C   UNL     1      -2.258  13.241  22.788  0.00  0.00    +0.000 A 
ATOM     30  F   UNL     1      -1.224  13.056  23.624  0.00  0.00    +0.000 F 
ENDBRANCH  20  23
ENDBRANCH   4  19
TORSDOF 4
ENDMDL
MODEL 7
REMARK VINA RESULT:      -7.8      1.807     11.054
REMARK  Name = 
REMARK  4 active torsions:
REMARK  status: ('A' for Active; 'I' for Inactive)
REMARK    1  A    between atoms: C_2  and  C_21
REMARK    2  A    between atoms: N_3  and  C_4
REMARK    3  A    between atoms: C_7  and  N_8
REMARK    4  A    between atoms: C_9  and  C_11
REMARK                            x       y       z     vdW  Elec       q    Type
REMARK                         _______ _______ _______ _____ _____    ______ ____
ROOT
ATOM      1  C   UNL     1       0.005  10.495  20.369  0.00  0.00    +0.000 A 
ATOM      2  C   UNL     1       0.646   9.407  20.945  0.00  0.00    +0.000 A 
ATOM      3  C   UNL     1       1.431   8.553  20.180  0.00  0.00    +0.000 A 
ATOM      4  C   UNL     1       1.595   8.739  18.810  0.00  0.00    +0.000 A 
ATOM      5  C   UNL     1       0.950   9.833  18.218  0.00  0.00    +0.000 A 
ATOM      6  C   UNL     1       0.147  10.698  18.991  0.00  0.00    +0.000 A 
ENDROOT
BRANCH   1   9
ATOM      7  O   UNL     1      -0.279  10.617  23.287  0.00  0.00    +0.000 OA
ATOM      8  C   UNL     1      -0.882  11.357  22.518  0.00  0.00    +0.000 C 
ATOM      9  N   UNL     1      -0.779  11.388  21.134  0.00  0.00    +0.000 N 
ATOM     10  H   UNL     1      -1.178  12.174  20.640  0.00  0.00    +0.000 HD
BRANCH   8  11
ATOM     11  C   UNL     1      -1.759  12.378  23.135  0.00  0.00    +0.000 A 
ATOM     12  C   UNL     1      -3.084  12.104  23.501  0.00  0.00    +0.000 A 
ATOM     13  C   UNL     1      -3.856  13.102  24.099  0.00  0.00    +0.000 A 
ATOM     14  C   UNL     1      -3.297  14.358  24.334  0.00  0.00    +0.000 A 
ATOM     15  F   UNL     1      -4.046  15.310  24.907  0.00  0.00    +0.000 F 
ATOM     16  C   UNL     1      -1.977  14.620  23.993  0.00  0.00    +0.000 A 
ATOM     17  F   UNL     1      -1.441  15.825  24.234  0.00  0.00    +0.000 F 
ATOM     18  C   UNL     1      -1.200  13.637  23.400  0.00  0.00    +0.000 A 
ENDBRANCH   8  11
ENDBRANCH   1   9
BRANCH   4  19
ATOM     19  N   UNL     1       2.379   7.862  18.016  0.00  0.00    +0.000 N 
ATOM     20  C   UNL     1       3.027   6.731  18.489  0.00  0.00    +0.000 C 
ATOM     21  O   UNL     1       2.995   6.322  19.647  0.00  0.00    +0.000 OA
ATOM     22  H   UNL     1       2.452   8.082  17.027  0.00  0.00    +0.000 HD
BRANCH  20  23
ATOM     23  C   UNL     1       3.844   5.916  17.558  0.00  0.00    +0.000 A 
ATOM     24  C   UNL     1       4.751   6.609  16.729  0.00  0.00    +0.000 A 
ATOM     25  C   UNL     1       5.516   5.936  15.783  0.00  0.00    +0.000 A 
ATOM     26  C   UNL     1       5.384   4.559  15.668  0.00  0.00    +0.000 A 
ATOM     27  F   UNL     1       6.103   3.908  14.746  0.00  0.00    +0.000 F 
ATOM     28  C   UNL     1       4.515   3.848  16.492  0.00  0.00    +0.000 A 
ATOM     29  C   UNL     1       3.750   4.531  17.435  0.00  0.00    +0.000 A 
ATOM     30  F   UNL     1       2.916   3.826  18.215  0.00  0.00    +0.000 F 
ENDBRANCH  20  23
ENDBRANCH   4  19
TORSDOF 4
ENDMDL
MODEL 8
REMARK VINA RESULT:      -7.7      1.959     11.145
REMARK  Name = 
REMARK  4 active torsions:
REMARK  status: ('A' for Active; 'I' for Inactive)
REMARK    1  A    between atoms: C_2  and  C_21
REMARK    2  A    between atoms: N_3  and  C_4
REMARK    3  A    between atoms: C_7  and  N_8
REMARK    4  A    between atoms: C_9  and  C_11
REMARK                            x       y       z     vdW  Elec       q    Type
REMARK                         _______ _______ _______ _____ _____    ______ ____
ROOT
ATOM      1  C   UNL     1      -0.150  10.319  21.483  0.00  0.00    +0.000 A 
ATOM      2  C   UNL     1      -0.058  10.284  20.099  0.00  0.00    +0.000 A 
ATOM      3  C   UNL     1       0.722   9.329  19.458  0.00  0.00    +0.000 A 
ATOM      4  C   UNL     1       1.453   8.383  20.172  0.00  0.00    +0.000 A 
ATOM      5  C   UNL     1       1.371   8.411  21.569  0.00  0.00    +0.000 A 
ATOM      6  C   UNL     1       0.584   9.385  22.222  0.00  0.00    +0.000 A 
ENDROOT
BRANCH   1   9
ATOM      7  O   UNL     1       0.412  13.158  21.965  0.00  0.00    +0.000 OA
ATOM      8  C   UNL     1      -0.598  12.593  22.365  0.00  0.00    +0.000 C 
ATOM      9  N   UNL     1      -0.956  11.268  22.151  0.00  0.00    +0.000 N 
ATOM     10  H   UNL     1      -1.903  10.986  22.364  0.00  0.00    +0.000 HD
BRANCH   8  11
ATOM     11  C   UNL     1      -1.581  13.430  23.090  0.00  0.00    +0.000 A 
ATOM     12  C   UNL     1      -1.199  14.545  23.848  0.00  0.00    +0.000 A 
ATOM     13  C   UNL     1      -2.174  15.309  24.492  0.00  0.00    +0.000 A 
ATOM     14  C   UNL     1      -3.519  14.960  24.366  0.00  0.00    +0.000 A 
ATOM     15  F   UNL     1      -4.448  15.699  24.989  0.00  0.00    +0.000 F 
ATOM     16  C   UNL     1      -3.897  13.869  23.595  0.00  0.00    +0.000 A 
ATOM     17  F   UNL     1      -5.192  13.546  23.466  0.00  0.00    +0.000 F 
ATOM     18  C   UNL     1      -2.938  13.103  22.949  0.00  0.00    +0.000 A 
ENDBRANCH   8  11
ENDBRANCH   1   9
BRANCH   4  19
ATOM     19  N   UNL     1       2.268   7.415  19.528  0.00  0.00    +0.000 N 
ATOM     20  C   UNL     1       2.743   7.516  18.229  0.00  0.00    +0.000 C 
ATOM     21  O   UNL     1       2.545   8.461  17.469  0.00  0.00    +0.000 OA
ATOM     22  H   UNL     1       2.528   6.599  20.075  0.00  0.00    +0.000 HD
BRANCH  20  23
ATOM     23  C   UNL     1       3.561   6.416  17.664  0.00  0.00    +0.000 A 
ATOM     24  C   UNL     1       4.774   6.778  17.039  0.00  0.00    +0.000 A 
ATOM     25  C   UNL     1       5.578   5.822  16.427  0.00  0.00    +0.000 A 
ATOM     26  C   UNL     1       5.177   4.494  16.448  0.00  0.00    +0.000 A 
ATOM     27  F   UNL     1       5.937   3.572  15.844  0.00  0.00    +0.000 F 
ATOM     28  C   UNL     1       3.998   4.107  17.079  0.00  0.00    +0.000 A 
ATOM     29  C   UNL     1       3.196   5.072  17.687  0.00  0.00    +0.000 A 
ATOM     30  F   UNL     1       2.062   4.677  18.287  0.00  0.00    +0.000 F 
ENDBRANCH  20  23
ENDBRANCH   4  19
TORSDOF 4
ENDMDL
MODEL 9
REMARK VINA RESULT:      -7.7      1.556     11.018
REMARK  Name = 
REMARK  4 active torsions:
REMARK  status: ('A' for Active; 'I' for Inactive)
REMARK    1  A    between atoms: C_2  and  C_21
REMARK    2  A    between atoms: N_3  and  C_4
REMARK    3  A    between atoms: C_7  and  N_8
REMARK    4  A    between atoms: C_9  and  C_11
REMARK                            x       y       z     vdW  Elec       q    Type
REMARK                         _______ _______ _______ _____ _____    ______ ____
ROOT
ATOM      1  C   UNL     1       0.045  10.494  20.453  0.00  0.00    +0.000 A 
ATOM      2  C   UNL     1       0.612   9.369  21.035  0.00  0.00    +0.000 A 
ATOM      3  C   UNL     1       1.403   8.502  20.291  0.00  0.00    +0.000 A 
ATOM      4  C   UNL     1       1.647   8.713  18.937  0.00  0.00    +0.000 A 
ATOM      5  C   UNL     1       1.077   9.843  18.338  0.00  0.00    +0.000 A 
ATOM      6  C   UNL     1       0.268  10.722  19.090  0.00  0.00    +0.000 A 
ENDROOT
BRANCH   1   9
ATOM      7  O   UNL     1      -0.350  10.592  23.359  0.00  0.00    +0.000 OA
ATOM      8  C   UNL     1      -0.902  11.356  22.576  0.00  0.00    +0.000 C 
ATOM      9  N   UNL     1      -0.744  11.400  21.198  0.00  0.00    +0.000 N 
ATOM     10  H   UNL     1      -1.102  12.202  20.698  0.00  0.00    +0.000 HD
BRANCH   8  11
ATOM     11  C   UNL     1      -1.774  12.395  23.171  0.00  0.00    +0.000 A 
ATOM     12  C   UNL     1      -3.084  12.122  23.588  0.00  0.00    +0.000 A 
ATOM     13  C   UNL     1      -3.851  13.138  24.162  0.00  0.00    +0.000 A 
ATOM     14  C   UNL     1      -3.303  14.410  24.322  0.00  0.00    +0.000 A 
ATOM     15  F   UNL     1      -4.048  15.379  24.872  0.00  0.00    +0.000 F 
ATOM     16  C   UNL     1      -1.997  14.672  23.930  0.00  0.00    +0.000 A 
ATOM     17  F   UNL     1      -1.470  15.893  24.099  0.00  0.00    +0.000 F 
ATOM     18  C   UNL     1      -1.224  13.671  23.360  0.00  0.00    +0.000 A 
ENDBRANCH   8  11
ENDBRANCH   1   9
BRANCH   4  19
ATOM     19  N   UNL     1       2.438   7.823  18.163  0.00  0.00    +0.000 N 
ATOM     20  C   UNL     1       2.958   6.622  18.622  0.00  0.00    +0.000 C 
ATOM     21  O   UNL     1       2.788   6.154  19.746  0.00  0.00    +0.000 OA
ATOM     22  H   UNL     1       2.619   8.090  17.200  0.00  0.00    +0.000 HD
BRANCH  20  23
ATOM     23  C   UNL     1       3.798   5.799  17.720  0.00  0.00    +0.000 A 
ATOM     24  C   UNL     1       3.372   4.475  17.481  0.00  0.00    +0.000 A 
ATOM     25  C   UNL     1       4.127   3.608  16.697  0.00  0.00    +0.000 A 
ATOM     26  C   UNL     1       5.310   4.068  16.137  0.00  0.00    +0.000 A 
ATOM     27  F   UNL     1       6.051   3.234  15.397  0.00  0.00    +0.000 F 
ATOM     28  C   UNL     1       5.740   5.378  16.336  0.00  0.00    +0.000 A 
ATOM     29  C   UNL     1       4.979   6.238  17.126  0.00  0.00    +0.000 A 
ATOM     30  F   UNL     1       5.416   7.494  17.307  0.00  0.00    +0.000 F 
ENDBRANCH  20  23
ENDBRANCH   4  19
TORSDOF 4
ENDMDL
