MODEL 1
REMARK VINA RESULT:      -7.9      0.000      0.000
REMARK  Name = 
REMARK  7 active torsions:
REMARK  status: ('A' for Active; 'I' for Inactive)
REMARK    1  A    between atoms: C_2  and  C_3
REMARK    2  A    between atoms: C_3  and  C_4
REMARK    3  A    between atoms: C_4  and  C_5
REMARK    4  A    between atoms: C_5  and  O_6
REMARK    5  A    between atoms: C_13  and  C_14
REMARK    6  A    between atoms: C_15  and  C_16
REMARK    7  A    between atoms: C_19  and  C_20
REMARK                            x       y       z     vdW  Elec       q    Type
REMARK                         _______ _______ _______ _____ _____    ______ ____
ROOT
ATOM      1  C   UNL     1       2.352   2.435  18.106  0.00  0.00    +0.000 C 
ATOM      2  C   UNL     1       1.025   2.994  18.736  0.00  0.00    +0.000 C 
ATOM      3  O   UNL     1       0.053   2.342  19.083  0.00  0.00    +0.000 OA
ATOM      4  N   UNL     1       1.125   4.382  18.773  0.00  0.00    +0.000 N 
ATOM      5  C   UNL     1       2.302   4.810  18.184  0.00  0.00    +0.000 A 
ATOM      6  C   UNL     1       2.715   6.112  17.974  0.00  0.00    +0.000 A 
ATOM      7  C   UNL     1       3.923   6.298  17.292  0.00  0.00    +0.000 A 
ATOM      8  C   UNL     1       4.712   5.208  16.860  0.00  0.00    +0.000 A 
ATOM      9  C   UNL     1       4.275   3.905  17.135  0.00  0.00    +0.000 A 
ATOM     10  C   UNL     1       3.056   3.725  17.769  0.00  0.00    +0.000 A 
ATOM     11  H   UNL     1       0.380   4.976  19.101  0.00  0.00    +0.000 HD
ENDROOT
BRANCH   8  12
ATOM     12  C   UNL     1       5.950   5.421  16.123  0.00  0.00    +0.000 A 
ATOM     13  C   UNL     1       6.382   4.965  14.842  0.00  0.00    +0.000 A 
ATOM     14  C   UNL     1       5.686   4.132  13.832  0.00  0.00    +0.000 C 
ATOM     15  N   UNL     1       7.619   5.398  14.563  0.00  0.00    +0.000 NA
ATOM     16  O   UNL     1       8.023   6.125  15.657  0.00  0.00    +0.000 OA
ATOM     17  C   UNL     1       7.039   6.136  16.595  0.00  0.00    +0.000 A 
ATOM     18  C   UNL     1       7.377   6.844  17.850  0.00  0.00    +0.000 C 
ENDBRANCH   8  12
BRANCH   1  19
ATOM     19  O   UNL     1       2.150   1.719  16.899  0.00  0.00    +0.000 OA
ATOM     20  H   UNL     1       1.380   2.123  16.462  0.00  0.00    +0.000 HD
ENDBRANCH   1  19
BRANCH   1  21
ATOM     21  C   UNL     1       3.184   1.617  19.101  0.00  0.00    +0.000 C 
BRANCH  21  22
ATOM     22  C   UNL     1       3.788   2.466  20.218  0.00  0.00    +0.000 C 
BRANCH  22  24
ATOM     23  C   UNL     1       2.102   3.221  21.904  0.00  0.00    +0.000 C 
ATOM     24  C   UNL     1       3.008   2.326  21.493  0.00  0.00    +0.000 C 
ENDBRANCH  22  24
ENDBRANCH  21  22
ENDBRANCH   1  21
TORSDOF 5
ENDMDL
MODEL 2
REMARK VINA RESULT:      -7.5      1.681      6.650
REMARK  Name = 
REMARK  7 active torsions:
REMARK  status: ('A' for Active; 'I' for Inactive)
REMARK    1  A    between atoms: C_2  and  C_3
REMARK    2  A    between atoms: C_3  and  C_4
REMARK    3  A    between atoms: C_4  and  C_5
REMARK    4  A    between atoms: C_5  and  O_6
REMARK    5  A    between atoms: C_13  and  C_14
REMARK    6  A    between atoms: C_15  and  C_16
REMARK    7  A    between atoms: C_19  and  C_20
REMARK                            x       y       z     vdW  Elec       q    Type
REMARK                         _______ _______ _______ _____ _____    ______ ____
ROOT
ATOM      1  C   UNL     1       5.969   4.234  15.198  0.00  0.00    +0.000 C 
ATOM      2  C   UNL     1       6.940   5.441  14.936  0.00  0.00    +0.000 C 
ATOM      3  O   UNL     1       7.920   5.443  14.208  0.00  0.00    +0.000 OA
ATOM      4  N   UNL     1       6.520   6.503  15.733  0.00  0.00    +0.000 N 
ATOM      5  C   UNL     1       5.457   6.130  16.536  0.00  0.00    +0.000 A 
ATOM      6  C   UNL     1       4.821   6.889  17.501  0.00  0.00    +0.000 A 
ATOM      7  C   UNL     1       3.806   6.267  18.238  0.00  0.00    +0.000 A 
ATOM      8  C   UNL     1       3.416   4.931  17.992  0.00  0.00    +0.000 A 
ATOM      9  C   UNL     1       4.058   4.215  16.972  0.00  0.00    +0.000 A 
ATOM     10  C   UNL     1       5.093   4.819  16.277  0.00  0.00    +0.000 A 
ATOM     11  H   UNL     1       7.008   7.384  15.772  0.00  0.00    +0.000 HD
ENDROOT
BRANCH   8  12
ATOM     12  C   UNL     1       2.379   4.291  18.791  0.00  0.00    +0.000 A 
ATOM     13  C   UNL     1       1.620   4.754  19.906  0.00  0.00    +0.000 A 
ATOM     14  C   UNL     1       1.635   6.063  20.604  0.00  0.00    +0.000 C 
ATOM     15  N   UNL     1       0.773   3.813  20.343  0.00  0.00    +0.000 NA
ATOM     16  O   UNL     1       0.974   2.717  19.537  0.00  0.00    +0.000 OA
ATOM     17  C   UNL     1       1.936   2.990  18.616  0.00  0.00    +0.000 A 
ATOM     18  C   UNL     1       2.285   1.863  17.721  0.00  0.00    +0.000 C 
ENDBRANCH   8  12
BRANCH   1  19
ATOM     19  O   UNL     1       6.616   3.091  15.732  0.00  0.00    +0.000 OA
ATOM     20  H   UNL     1       7.567   3.299  15.762  0.00  0.00    +0.000 HD
ENDBRANCH   1  19
BRANCH   1  21
ATOM     21  C   UNL     1       5.129   3.868  13.968  0.00  0.00    +0.000 C 
BRANCH  21  22
ATOM     22  C   UNL     1       5.976   3.478  12.758  0.00  0.00    +0.000 C 
BRANCH  22  24
ATOM     23  C   UNL     1       3.998   3.301  11.239  0.00  0.00    +0.000 C 
ATOM     24  C   UNL     1       5.147   2.800  11.707  0.00  0.00    +0.000 C 
ENDBRANCH  22  24
ENDBRANCH  21  22
ENDBRANCH   1  21
TORSDOF 5
ENDMDL
MODEL 3
REMARK VINA RESULT:      -7.4      0.430      1.738
REMARK  Name = 
REMARK  7 active torsions:
REMARK  status: ('A' for Active; 'I' for Inactive)
REMARK    1  A    between atoms: C_2  and  C_3
REMARK    2  A    between atoms: C_3  and  C_4
REMARK    3  A    between atoms: C_4  and  C_5
REMARK    4  A    between atoms: C_5  and  O_6
REMARK    5  A    between atoms: C_13  and  C_14
REMARK    6  A    between atoms: C_15  and  C_16
REMARK    7  A    between atoms: C_19  and  C_20
REMARK                            x       y       z     vdW  Elec       q    Type
REMARK                         _______ _______ _______ _____ _____    ______ ____
ROOT
ATOM      1  C   UNL     1       2.372   2.386  18.131  0.00  0.00    +0.000 C 
ATOM      2  C   UNL     1       1.012   2.910  18.719  0.00  0.00    +0.000 C 
ATOM      3  O   UNL     1       0.047   2.234  19.035  0.00  0.00    +0.000 OA
ATOM      4  N   UNL     1       1.077   4.300  18.760  0.00  0.00    +0.000 N 
ATOM      5  C   UNL     1       2.261   4.758  18.209  0.00  0.00    +0.000 A 
ATOM      6  C   UNL     1       2.649   6.071  18.015  0.00  0.00    +0.000 A 
ATOM      7  C   UNL     1       3.873   6.287  17.371  0.00  0.00    +0.000 A 
ATOM      8  C   UNL     1       4.702   5.217  16.963  0.00  0.00    +0.000 A 
ATOM      9  C   UNL     1       4.288   3.903  17.223  0.00  0.00    +0.000 A 
ATOM     10  C   UNL     1       3.055   3.693  17.818  0.00  0.00    +0.000 A 
ATOM     11  H   UNL     1       0.307   4.875  19.065  0.00  0.00    +0.000 HD
ENDROOT
BRANCH   8  12
ATOM     12  C   UNL     1       5.957   5.462  16.266  0.00  0.00    +0.000 A 
ATOM     13  C   UNL     1       7.114   6.213  16.631  0.00  0.00    +0.000 A 
ATOM     14  C   UNL     1       7.415   6.978  17.865  0.00  0.00    +0.000 C 
ATOM     15  N   UNL     1       8.043   6.176  15.666  0.00  0.00    +0.000 NA
ATOM     16  O   UNL     1       7.506   5.421  14.650  0.00  0.00    +0.000 OA
ATOM     17  C   UNL     1       6.260   5.000  14.996  0.00  0.00    +0.000 A 
ATOM     18  C   UNL     1       5.552   4.220  13.955  0.00  0.00    +0.000 C 
ENDBRANCH   8  12
BRANCH   1  19
ATOM     19  O   UNL     1       2.227   1.667  16.918  0.00  0.00    +0.000 OA
ATOM     20  H   UNL     1       1.331   1.286  16.926  0.00  0.00    +0.000 HD
ENDBRANCH   1  19
BRANCH   1  21
ATOM     21  C   UNL     1       3.192   1.586  19.151  0.00  0.00    +0.000 C 
BRANCH  21  22
ATOM     22  C   UNL     1       3.778   2.456  20.263  0.00  0.00    +0.000 C 
BRANCH  22  24
ATOM     23  C   UNL     1       2.170   3.436  21.908  0.00  0.00    +0.000 C 
ATOM     24  C   UNL     1       2.926   2.411  21.497  0.00  0.00    +0.000 C 
ENDBRANCH  22  24
ENDBRANCH  21  22
ENDBRANCH   1  21
TORSDOF 5
ENDMDL
MODEL 4
REMARK VINA RESULT:      -7.4      1.848      6.475
REMARK  Name = 
REMARK  7 active torsions:
REMARK  status: ('A' for Active; 'I' for Inactive)
REMARK    1  A    between atoms: C_2  and  C_3
REMARK    2  A    between atoms: C_3  and  C_4
REMARK    3  A    between atoms: C_4  and  C_5
REMARK    4  A    between atoms: C_5  and  O_6
REMARK    5  A    between atoms: C_13  and  C_14
REMARK    6  A    between atoms: C_15  and  C_16
REMARK    7  A    between atoms: C_19  and  C_20
REMARK                            x       y       z     vdW  Elec       q    Type
REMARK                         _______ _______ _______ _____ _____    ______ ____
ROOT
ATOM      1  C   UNL     1       5.941   4.249  15.204  0.00  0.00    +0.000 C 
ATOM      2  C   UNL     1       7.007   5.392  15.043  0.00  0.00    +0.000 C 
ATOM      3  O   UNL     1       7.974   5.386  14.298  0.00  0.00    +0.000 OA
ATOM      4  N   UNL     1       6.689   6.399  15.950  0.00  0.00    +0.000 N 
ATOM      5  C   UNL     1       5.607   6.037  16.734  0.00  0.00    +0.000 A 
ATOM      6  C   UNL     1       5.050   6.745  17.782  0.00  0.00    +0.000 A 
ATOM      7  C   UNL     1       3.996   6.138  18.475  0.00  0.00    +0.000 A 
ATOM      8  C   UNL     1       3.491   4.871  18.106  0.00  0.00    +0.000 A 
ATOM      9  C   UNL     1       4.058   4.210  17.007  0.00  0.00    +0.000 A 
ATOM     10  C   UNL     1       5.131   4.793  16.354  0.00  0.00    +0.000 A 
ATOM     11  H   UNL     1       7.249   7.229  16.065  0.00  0.00    +0.000 HD
ENDROOT
BRANCH   8  12
ATOM     12  C   UNL     1       2.414   4.242  18.859  0.00  0.00    +0.000 A 
ATOM     13  C   UNL     1       1.820   2.948  18.763  0.00  0.00    +0.000 A 
ATOM     14  C   UNL     1       2.129   1.811  17.863  0.00  0.00    +0.000 C 
ATOM     15  N   UNL     1       0.835   2.798  19.659  0.00  0.00    +0.000 NA
ATOM     16  O   UNL     1       0.757   3.989  20.342  0.00  0.00    +0.000 OA
ATOM     17  C   UNL     1       1.687   4.857  19.865  0.00  0.00    +0.000 A 
ATOM     18  C   UNL     1       1.665   6.202  20.484  0.00  0.00    +0.000 C 
ENDBRANCH   8  12
BRANCH   1  19
ATOM     19  O   UNL     1       6.496   3.008  15.609  0.00  0.00    +0.000 OA
ATOM     20  H   UNL     1       7.419   3.187  15.863  0.00  0.00    +0.000 HD
ENDBRANCH   1  19
BRANCH   1  21
ATOM     21  C   UNL     1       5.058   4.079  13.962  0.00  0.00    +0.000 C 
BRANCH  21  22
ATOM     22  C   UNL     1       5.835   3.608  12.734  0.00  0.00    +0.000 C 
BRANCH  22  24
ATOM     23  C   UNL     1       3.930   3.368  11.131  0.00  0.00    +0.000 C 
ATOM     24  C   UNL     1       4.957   2.829  11.798  0.00  0.00    +0.000 C 
ENDBRANCH  22  24
ENDBRANCH  21  22
ENDBRANCH   1  21
TORSDOF 5
ENDMDL
MODEL 5
REMARK VINA RESULT:      -7.4      1.873      6.410
REMARK  Name = 
REMARK  7 active torsions:
REMARK  status: ('A' for Active; 'I' for Inactive)
REMARK    1  A    between atoms: C_2  and  C_3
REMARK    2  A    between atoms: C_3  and  C_4
REMARK    3  A    between atoms: C_4  and  C_5
REMARK    4  A    between atoms: C_5  and  O_6
REMARK    5  A    between atoms: C_13  and  C_14
REMARK    6  A    between atoms: C_15  and  C_16
REMARK    7  A    between atoms: C_19  and  C_20
REMARK                            x       y       z     vdW  Elec       q    Type
REMARK                         _______ _______ _______ _____ _____    ______ ____
ROOT
ATOM      1  C   UNL     1       6.304   4.409  16.212  0.00  0.00    +0.000 C 
ATOM      2  C   UNL     1       6.889   5.736  15.607  0.00  0.00    +0.000 C 
ATOM      3  O   UNL     1       7.944   5.859  15.007  0.00  0.00    +0.000 OA
ATOM      4  N   UNL     1       6.015   6.770  15.931  0.00  0.00    +0.000 N 
ATOM      5  C   UNL     1       4.980   6.313  16.729  0.00  0.00    +0.000 A 
ATOM      6  C   UNL     1       3.965   7.057  17.302  0.00  0.00    +0.000 A 
ATOM      7  C   UNL     1       3.065   6.378  18.132  0.00  0.00    +0.000 A 
ATOM      8  C   UNL     1       3.161   4.986  18.357  0.00  0.00    +0.000 A 
ATOM      9  C   UNL     1       4.180   4.265  17.718  0.00  0.00    +0.000 A 
ATOM     10  C   UNL     1       5.095   4.949  16.935  0.00  0.00    +0.000 A 
ATOM     11  H   UNL     1       6.190   7.732  15.686  0.00  0.00    +0.000 HD
ENDROOT
BRANCH   8  12
ATOM     12  C   UNL     1       2.235   4.303  19.250  0.00  0.00    +0.000 A 
ATOM     13  C   UNL     1       1.721   2.972  19.246  0.00  0.00    +0.000 A 
ATOM     14  C   UNL     1       1.987   1.840  18.325  0.00  0.00    +0.000 C 
ATOM     15  N   UNL     1       0.872   2.774  20.263  0.00  0.00    +0.000 NA
ATOM     16  O   UNL     1       0.802   3.971  20.937  0.00  0.00    +0.000 OA
ATOM     17  C   UNL     1       1.603   4.889  20.334  0.00  0.00    +0.000 A 
ATOM     18  C   UNL     1       1.571   6.241  20.937  0.00  0.00    +0.000 C 
ENDBRANCH   8  12
BRANCH   1  19
ATOM     19  O   UNL     1       7.152   3.800  17.172  0.00  0.00    +0.000 OA
ATOM     20  H   UNL     1       7.679   4.516  17.570  0.00  0.00    +0.000 HD
ENDBRANCH   1  19
BRANCH   1  21
ATOM     21  C   UNL     1       5.877   3.402  15.137  0.00  0.00    +0.000 C 
BRANCH  21  22
ATOM     22  C   UNL     1       5.401   4.069  13.847  0.00  0.00    +0.000 C 
BRANCH  22  24
ATOM     23  C   UNL     1       5.628   2.633  11.812  0.00  0.00    +0.000 C 
ATOM     24  C   UNL     1       6.141   3.539  12.654  0.00  0.00    +0.000 C 
ENDBRANCH  22  24
ENDBRANCH  21  22
ENDBRANCH   1  21
TORSDOF 5
ENDMDL
MODEL 6
REMARK VINA RESULT:      -7.3      1.961      6.252
REMARK  Name = 
REMARK  7 active torsions:
REMARK  status: ('A' for Active; 'I' for Inactive)
REMARK    1  A    between atoms: C_2  and  C_3
REMARK    2  A    between atoms: C_3  and  C_4
REMARK    3  A    between atoms: C_4  and  C_5
REMARK    4  A    between atoms: C_5  and  O_6
REMARK    5  A    between atoms: C_13  and  C_14
REMARK    6  A    between atoms: C_15  and  C_16
REMARK    7  A    between atoms: C_19  and  C_20
REMARK                            x       y       z     vdW  Elec       q    Type
REMARK                         _______ _______ _______ _____ _____    ______ ____
ROOT
ATOM      1  C   UNL     1       7.023   5.811  17.987  0.00  0.00    +0.000 C 
ATOM      2  C   UNL     1       7.320   7.173  17.262  0.00  0.00    +0.000 C 
ATOM      3  O   UNL     1       8.415   7.685  17.093  0.00  0.00    +0.000 OA
ATOM      4  N   UNL     1       6.098   7.732  16.895  0.00  0.00    +0.000 N 
ATOM      5  C   UNL     1       5.043   6.960  17.349  0.00  0.00    +0.000 A 
ATOM      6  C   UNL     1       3.692   7.229  17.237  0.00  0.00    +0.000 A 
ATOM      7  C   UNL     1       2.808   6.326  17.838  0.00  0.00    +0.000 A 
ATOM      8  C   UNL     1       3.265   5.166  18.506  0.00  0.00    +0.000 A 
ATOM      9  C   UNL     1       4.642   4.911  18.554  0.00  0.00    +0.000 A 
ATOM     10  C   UNL     1       5.515   5.832  17.998  0.00  0.00    +0.000 A 
ATOM     11  H   UNL     1       6.021   8.631  16.446  0.00  0.00    +0.000 HD
ENDROOT
BRANCH   8  12
ATOM     12  C   UNL     1       2.331   4.254  19.153  0.00  0.00    +0.000 A 
ATOM     13  C   UNL     1       1.967   2.905  18.863  0.00  0.00    +0.000 A 
ATOM     14  C   UNL     1       2.447   1.986  17.803  0.00  0.00    +0.000 C 
ATOM     15  N   UNL     1       1.046   2.454  19.724  0.00  0.00    +0.000 NA
ATOM     16  O   UNL     1       0.778   3.499  20.577  0.00  0.00    +0.000 OA
ATOM     17  C   UNL     1       1.533   4.578  20.238  0.00  0.00    +0.000 A 
ATOM     18  C   UNL     1       1.293   5.790  21.052  0.00  0.00    +0.000 C 
ENDBRANCH   8  12
BRANCH   1  19
ATOM     19  O   UNL     1       7.469   5.775  19.332  0.00  0.00    +0.000 OA
ATOM     20  H   UNL     1       7.139   6.586  19.757  0.00  0.00    +0.000 HD
ENDBRANCH   1  19
BRANCH   1  21
ATOM     21  C   UNL     1       7.535   4.596  17.203  0.00  0.00    +0.000 C 
BRANCH  21  22
ATOM     22  C   UNL     1       7.405   4.761  15.690  0.00  0.00    +0.000 C 
BRANCH  22  24
ATOM     23  C   UNL     1       5.182   4.435  14.591  0.00  0.00    +0.000 C 
ATOM     24  C   UNL     1       6.288   3.921  15.143  0.00  0.00    +0.000 C 
ENDBRANCH  22  24
ENDBRANCH  21  22
ENDBRANCH   1  21
TORSDOF 5
ENDMDL
MODEL 7
REMARK VINA RESULT:      -7.3      1.805      6.405
REMARK  Name = 
REMARK  7 active torsions:
REMARK  status: ('A' for Active; 'I' for Inactive)
REMARK    1  A    between atoms: C_2  and  C_3
REMARK    2  A    between atoms: C_3  and  C_4
REMARK    3  A    between atoms: C_4  and  C_5
REMARK    4  A    between atoms: C_5  and  O_6
REMARK    5  A    between atoms: C_13  and  C_14
REMARK    6  A    between atoms: C_15  and  C_16
REMARK    7  A    between atoms: C_19  and  C_20
REMARK                            x       y       z     vdW  Elec       q    Type
REMARK                         _______ _______ _______ _____ _____    ______ ____
ROOT
ATOM      1  C   UNL     1       7.100   5.785  18.007  0.00  0.00    +0.000 C 
ATOM      2  C   UNL     1       7.299   7.167  17.284  0.00  0.00    +0.000 C 
ATOM      3  O   UNL     1       8.356   7.749  17.107  0.00  0.00    +0.000 OA
ATOM      4  N   UNL     1       6.040   7.646  16.932  0.00  0.00    +0.000 N 
ATOM      5  C   UNL     1       5.043   6.804  17.393  0.00  0.00    +0.000 A 
ATOM      6  C   UNL     1       3.676   6.984  17.296  0.00  0.00    +0.000 A 
ATOM      7  C   UNL     1       2.859   6.023  17.903  0.00  0.00    +0.000 A 
ATOM      8  C   UNL     1       3.398   4.893  18.560  0.00  0.00    +0.000 A 
ATOM      9  C   UNL     1       4.790   4.729  18.594  0.00  0.00    +0.000 A 
ATOM     10  C   UNL     1       5.594   5.707  18.033  0.00  0.00    +0.000 A 
ATOM     11  H   UNL     1       5.899   8.539  16.487  0.00  0.00    +0.000 HD
ENDROOT
BRANCH   8  12
ATOM     12  C   UNL     1       2.533   3.920  19.213  0.00  0.00    +0.000 A 
ATOM     13  C   UNL     1       1.547   4.061  20.235  0.00  0.00    +0.000 A 
ATOM     14  C   UNL     1       1.071   5.268  20.952  0.00  0.00    +0.000 C 
ATOM     15  N   UNL     1       0.996   2.880  20.546  0.00  0.00    +0.000 NA
ATOM     16  O   UNL     1       1.621   1.948  19.752  0.00  0.00    +0.000 OA
ATOM     17  C   UNL     1       2.544   2.557  18.962  0.00  0.00    +0.000 A 
ATOM     18  C   UNL     1       3.327   1.646  18.096  0.00  0.00    +0.000 C 
ENDBRANCH   8  12
BRANCH   1  19
ATOM     19  O   UNL     1       7.562   5.773  19.347  0.00  0.00    +0.000 OA
ATOM     20  H   UNL     1       8.013   6.624  19.493  0.00  0.00    +0.000 HD
ENDBRANCH   1  19
BRANCH   1  21
ATOM     21  C   UNL     1       7.682   4.609  17.213  0.00  0.00    +0.000 C 
BRANCH  21  22
ATOM     22  C   UNL     1       7.473   4.743  15.705  0.00  0.00    +0.000 C 
BRANCH  22  24
ATOM     23  C   UNL     1       5.298   4.384  14.523  0.00  0.00    +0.000 C 
ATOM     24  C   UNL     1       6.322   3.901  15.237  0.00  0.00    +0.000 C 
ENDBRANCH  22  24
ENDBRANCH  21  22
ENDBRANCH   1  21
TORSDOF 5
ENDMDL
MODEL 8
REMARK VINA RESULT:      -7.2      2.365      6.402
REMARK  Name = 
REMARK  7 active torsions:
REMARK  status: ('A' for Active; 'I' for Inactive)
REMARK    1  A    between atoms: C_2  and  C_3
REMARK    2  A    between atoms: C_3  and  C_4
REMARK    3  A    between atoms: C_4  and  C_5
REMARK    4  A    between atoms: C_5  and  O_6
REMARK    5  A    between atoms: C_13  and  C_14
REMARK    6  A    between atoms: C_15  and  C_16
REMARK    7  A    between atoms: C_19  and  C_20
REMARK                            x       y       z     vdW  Elec       q    Type
REMARK                         _______ _______ _______ _____ _____    ______ ____
ROOT
ATOM      1  C   UNL     1       6.131   5.697  16.052  0.00  0.00    +0.000 C 
ATOM      2  C   UNL     1       6.465   4.397  15.235  0.00  0.00    +0.000 C 
ATOM      3  O   UNL     1       7.219   4.311  14.280  0.00  0.00    +0.000 OA
ATOM      4  N   UNL     1       5.696   3.360  15.757  0.00  0.00    +0.000 N 
ATOM      5  C   UNL     1       4.851   3.821  16.751  0.00  0.00    +0.000 A 
ATOM      6  C   UNL     1       3.897   3.103  17.447  0.00  0.00    +0.000 A 
ATOM      7  C   UNL     1       3.110   3.807  18.366  0.00  0.00    +0.000 A 
ATOM      8  C   UNL     1       3.295   5.188  18.603  0.00  0.00    +0.000 A 
ATOM      9  C   UNL     1       4.305   5.866  17.906  0.00  0.00    +0.000 A 
ATOM     10  C   UNL     1       5.051   5.175  16.965  0.00  0.00    +0.000 A 
ATOM     11  H   UNL     1       5.704   2.428  15.375  0.00  0.00    +0.000 HD
ENDROOT
BRANCH   8  12
ATOM     12  C   UNL     1       2.445   5.911  19.539  0.00  0.00    +0.000 A 
ATOM     13  C   UNL     1       1.976   7.259  19.549  0.00  0.00    +0.000 A 
ATOM     14  C   UNL     1       2.196   8.361  18.582  0.00  0.00    +0.000 C 
ATOM     15  N   UNL     1       1.217   7.502  20.626  0.00  0.00    +0.000 NA
ATOM     16  O   UNL     1       1.190   6.331  21.345  0.00  0.00    +0.000 OA
ATOM     17  C   UNL     1       1.927   5.381  20.710  0.00  0.00    +0.000 A 
ATOM     18  C   UNL     1       2.022   4.084  21.418  0.00  0.00    +0.000 C 
ENDBRANCH   8  12
BRANCH   1  19
ATOM     19  O   UNL     1       5.573   6.736  15.264  0.00  0.00    +0.000 OA
ATOM     20  H   UNL     1       4.742   6.997  15.698  0.00  0.00    +0.000 HD
ENDBRANCH   1  19
BRANCH   1  21
ATOM     21  C   UNL     1       7.323   6.207  16.873  0.00  0.00    +0.000 C 
BRANCH  21  22
ATOM     22  C   UNL     1       7.305   7.721  17.078  0.00  0.00    +0.000 C 
BRANCH  22  24
ATOM     23  C   UNL     1       8.606   9.399  18.401  0.00  0.00    +0.000 C 
ATOM     24  C   UNL     1       8.231   8.132  18.186  0.00  0.00    +0.000 C 
ENDBRANCH  22  24
ENDBRANCH  21  22
ENDBRANCH   1  21
TORSDOF 5
ENDMDL
MODEL 9
REMARK VINA RESULT:      -7.1      1.793      3.177
REMARK  Name = 
REMARK  7 active torsions:
REMARK  status: ('A' for Active; 'I' for Inactive)
REMARK    1  A    between atoms: C_2  and  C_3
REMARK    2  A    between atoms: C_3  and  C_4
REMARK    3  A    between atoms: C_4  and  C_5
REMARK    4  A    between atoms: C_5  and  O_6
REMARK    5  A    between atoms: C_13  and  C_14
REMARK    6  A    between atoms: C_15  and  C_16
REMARK    7  A    between atoms: C_19  and  C_20
REMARK                            x       y       z     vdW  Elec       q    Type
REMARK                         _______ _______ _______ _____ _____    ______ ____
ROOT
ATOM      1  C   UNL     1       2.439   4.425  20.297  0.00  0.00    +0.000 C 
ATOM      2  C   UNL     1       1.658   3.101  20.625  0.00  0.00    +0.000 C 
ATOM      3  O   UNL     1       0.941   2.899  21.591  0.00  0.00    +0.000 OA
ATOM      4  N   UNL     1       1.979   2.166  19.644  0.00  0.00    +0.000 N 
ATOM      5  C   UNL     1       2.920   2.673  18.764  0.00  0.00    +0.000 A 
ATOM      6  C   UNL     1       3.527   2.019  17.709  0.00  0.00    +0.000 A 
ATOM      7  C   UNL     1       4.506   2.722  16.998  0.00  0.00    +0.000 A 
ATOM      8  C   UNL     1       4.843   4.058  17.314  0.00  0.00    +0.000 A 
ATOM      9  C   UNL     1       4.168   4.697  18.364  0.00  0.00    +0.000 A 
ATOM     10  C   UNL     1       3.233   3.981  19.094  0.00  0.00    +0.000 A 
ATOM     11  H   UNL     1       1.631   1.221  19.655  0.00  0.00    +0.000 HD
ENDROOT
BRANCH   8  12
ATOM     12  C   UNL     1       5.887   4.764  16.583  0.00  0.00    +0.000 A 
ATOM     13  C   UNL     1       6.207   4.808  15.193  0.00  0.00    +0.000 A 
ATOM     14  C   UNL     1       5.554   4.153  14.034  0.00  0.00    +0.000 C 
ATOM     15  N   UNL     1       7.272   5.587  14.964  0.00  0.00    +0.000 NA
ATOM     16  O   UNL     1       7.677   6.049  16.194  0.00  0.00    +0.000 OA
ATOM     17  C   UNL     1       6.863   5.556  17.164  0.00  0.00    +0.000 A 
ATOM     18  C   UNL     1       7.232   5.939  18.546  0.00  0.00    +0.000 C 
ENDBRANCH   8  12
BRANCH   1  19
ATOM     19  O   UNL     1       3.355   4.810  21.308  0.00  0.00    +0.000 OA
ATOM     20  H   UNL     1       3.971   4.065  21.423  0.00  0.00    +0.000 HD
ENDBRANCH   1  19
BRANCH   1  21
ATOM     21  C   UNL     1       1.510   5.586  19.923  0.00  0.00    +0.000 C 
BRANCH  21  22
ATOM     22  C   UNL     1       2.190   6.952  20.015  0.00  0.00    +0.000 C 
BRANCH  22  24
ATOM     23  C   UNL     1       2.923   8.017  17.874  0.00  0.00    +0.000 C 
ATOM     24  C   UNL     1       1.963   7.759  18.770  0.00  0.00    +0.000 C 
ENDBRANCH  22  24
ENDBRANCH  21  22
ENDBRANCH   1  21
TORSDOF 5
ENDMDL
