MODEL 1
REMARK VINA RESULT:      -7.9      0.000      0.000
REMARK  Name = 
REMARK  6 active torsions:
REMARK  status: ('A' for Active; 'I' for Inactive)
REMARK    1  A    between atoms: C_1  and  N_2
REMARK    2  A    between atoms: N_2  and  C_3
REMARK    3  A    between atoms: C_6  and  C_7
REMARK    4  A    between atoms: C_7  and  C_8
REMARK    5  A    between atoms: C_8  and  N_9
REMARK    6  A    between atoms: C_10  and  C_12
REMARK                            x       y       z     vdW  Elec       q    Type
REMARK                         _______ _______ _______ _____ _____    ______ ____
ROOT
ATOM      1  N   UNL     1       7.231   7.152  18.207  0.00  0.00    +0.000 N 
ATOM      2  C   UNL     1       6.912   6.188  17.272  0.00  0.00    +0.000 C 
ATOM      3  O   UNL     1       7.546   6.046  16.230  0.00  0.00    +0.000 OA
ATOM      4  H   UNL     1       6.732   7.183  19.084  0.00  0.00    +0.000 HD
ENDROOT
BRANCH   2   5
ATOM      5  C   UNL     1       5.795   5.330  17.611  0.00  0.00    +0.000 A 
ATOM      6  C   UNL     1       4.476   5.327  17.194  0.00  0.00    +0.000 A 
ATOM      7  C   UNL     1       3.788   4.281  17.865  0.00  0.00    +0.000 A 
ATOM      8  C   UNL     1       2.461   3.819  17.842  0.00  0.00    +0.000 A 
ATOM      9  C   UNL     1       2.096   2.765  18.682  0.00  0.00    +0.000 A 
ATOM     10 CL   UNL     1       0.468   2.201  18.662  0.00  0.00    +0.000 Cl
ATOM     11  C   UNL     1       3.022   2.170  19.535  0.00  0.00    +0.000 A 
ATOM     12  C   UNL     1       4.357   2.597  19.556  0.00  0.00    +0.000 A 
ATOM     13  C   UNL     1       4.711   3.653  18.705  0.00  0.00    +0.000 A 
ATOM     14  N   UNL     1       5.924   4.272  18.491  0.00  0.00    +0.000 N 
ATOM     15  H   UNL     1       6.798   4.013  18.932  0.00  0.00    +0.000 HD
ENDBRANCH   2   5
BRANCH   1  16
ATOM     16  C   UNL     1       8.378   8.020  18.014  0.00  0.00    +0.000 C 
BRANCH  16  17
ATOM     17  C   UNL     1       8.039   9.504  17.818  0.00  0.00    +0.000 C 
BRANCH  17  21
ATOM     18  C   UNL     1      10.577  12.583  19.590  0.00  0.00    +0.000 A 
ATOM     19  C   UNL     1      10.001  12.729  18.323  0.00  0.00    +0.000 A 
ATOM     20  C   UNL     1       9.174  11.740  17.778  0.00  0.00    +0.000 A 
ATOM     21  C   UNL     1       8.931  10.542  18.464  0.00  0.00    +0.000 A 
ATOM     22  C   UNL     1       9.487  10.396  19.737  0.00  0.00    +0.000 A 
ATOM     23  C   UNL     1      10.311  11.397  20.283  0.00  0.00    +0.000 A 
BRANCH  18  25
ATOM     24  C   UNL     1      11.377  14.910  19.522  0.00  0.00    +0.000 C 
ATOM     25  N   UNL     1      11.483  13.554  20.028  0.00  0.00    +0.000 N 
ATOM     26  H   UNL     1      12.440  13.212  20.032  0.00  0.00    +0.000 HD
ENDBRANCH  18  25
ENDBRANCH  17  21
ENDBRANCH  16  17
ENDBRANCH   1  16
TORSDOF 5
ENDMDL
MODEL 2
REMARK VINA RESULT:      -7.9      0.708      1.186
REMARK  Name = 
REMARK  6 active torsions:
REMARK  status: ('A' for Active; 'I' for Inactive)
REMARK    1  A    between atoms: C_1  and  N_2
REMARK    2  A    between atoms: N_2  and  C_3
REMARK    3  A    between atoms: C_6  and  C_7
REMARK    4  A    between atoms: C_7  and  C_8
REMARK    5  A    between atoms: C_8  and  N_9
REMARK    6  A    between atoms: C_10  and  C_12
REMARK                            x       y       z     vdW  Elec       q    Type
REMARK                         _______ _______ _______ _____ _____    ______ ____
ROOT
ATOM      1  N   UNL     1       6.838   7.778  17.833  0.00  0.00    +0.000 N 
ATOM      2  C   UNL     1       6.778   6.603  17.111  0.00  0.00    +0.000 C 
ATOM      3  O   UNL     1       7.583   6.332  16.224  0.00  0.00    +0.000 OA
ATOM      4  H   UNL     1       6.204   7.924  18.604  0.00  0.00    +0.000 HD
ENDROOT
BRANCH   2   5
ATOM      5  C   UNL     1       5.717   5.690  17.484  0.00  0.00    +0.000 A 
ATOM      6  C   UNL     1       4.405   5.579  17.060  0.00  0.00    +0.000 A 
ATOM      7  C   UNL     1       3.782   4.523  17.778  0.00  0.00    +0.000 A 
ATOM      8  C   UNL     1       2.488   3.974  17.770  0.00  0.00    +0.000 A 
ATOM      9  C   UNL     1       2.186   2.939  18.659  0.00  0.00    +0.000 A 
ATOM     10 CL   UNL     1       0.599   2.269  18.658  0.00  0.00    +0.000 Cl
ATOM     11  C   UNL     1       3.143   2.449  19.545  0.00  0.00    +0.000 A 
ATOM     12  C   UNL     1       4.446   2.964  19.552  0.00  0.00    +0.000 A 
ATOM     13  C   UNL     1       4.737   3.999  18.652  0.00  0.00    +0.000 A 
ATOM     14  N   UNL     1       5.908   4.687  18.415  0.00  0.00    +0.000 N 
ATOM     15  H   UNL     1       6.793   4.508  18.873  0.00  0.00    +0.000 HD
ENDBRANCH   2   5
BRANCH   1  16
ATOM     16  C   UNL     1       7.904   8.736  17.601  0.00  0.00    +0.000 C 
BRANCH  16  17
ATOM     17  C   UNL     1       8.814   8.994  18.809  0.00  0.00    +0.000 C 
BRANCH  17  21
ATOM     18  C   UNL     1      10.410  12.992  19.537  0.00  0.00    +0.000 A 
ATOM     19  C   UNL     1      10.071  12.123  20.580  0.00  0.00    +0.000 A 
ATOM     20  C   UNL     1       9.578  10.837  20.329  0.00  0.00    +0.000 A 
ATOM     21  C   UNL     1       9.361  10.389  19.018  0.00  0.00    +0.000 A 
ATOM     22  C   UNL     1       9.715  11.244  17.971  0.00  0.00    +0.000 A 
ATOM     23  C   UNL     1      10.216  12.532  18.230  0.00  0.00    +0.000 A 
BRANCH  18  25
ATOM     24  C   UNL     1      10.482  14.833  21.169  0.00  0.00    +0.000 C 
ATOM     25  N   UNL     1      10.787  14.301  19.853  0.00  0.00    +0.000 N 
ATOM     26  H   UNL     1      10.568  14.955  19.108  0.00  0.00    +0.000 HD
ENDBRANCH  18  25
ENDBRANCH  17  21
ENDBRANCH  16  17
ENDBRANCH   1  16
TORSDOF 5
ENDMDL
MODEL 3
REMARK VINA RESULT:      -7.9      3.822      9.637
REMARK  Name = 
REMARK  6 active torsions:
REMARK  status: ('A' for Active; 'I' for Inactive)
REMARK    1  A    between atoms: C_1  and  N_2
REMARK    2  A    between atoms: N_2  and  C_3
REMARK    3  A    between atoms: C_6  and  C_7
REMARK    4  A    between atoms: C_7  and  C_8
REMARK    5  A    between atoms: C_8  and  N_9
REMARK    6  A    between atoms: C_10  and  C_12
REMARK                            x       y       z     vdW  Elec       q    Type
REMARK                         _______ _______ _______ _____ _____    ______ ____
ROOT
ATOM      1  N   UNL     1       7.047   7.519  17.099  0.00  0.00    +0.000 N 
ATOM      2  C   UNL     1       7.938   7.686  18.141  0.00  0.00    +0.000 C 
ATOM      3  O   UNL     1       8.307   6.752  18.848  0.00  0.00    +0.000 OA
ATOM      4  H   UNL     1       6.831   8.299  16.496  0.00  0.00    +0.000 HD
ENDROOT
BRANCH   2   5
ATOM      5  C   UNL     1       8.435   9.033  18.332  0.00  0.00    +0.000 A 
ATOM      6  C   UNL     1       8.342  10.169  17.549  0.00  0.00    +0.000 A 
ATOM      7  C   UNL     1       9.040  11.226  18.193  0.00  0.00    +0.000 A 
ATOM      8  C   UNL     1       9.280  12.572  17.869  0.00  0.00    +0.000 A 
ATOM      9  C   UNL     1      10.065  13.346  18.726  0.00  0.00    +0.000 A 
ATOM     10 CL   UNL     1      10.367  14.995  18.328  0.00  0.00    +0.000 Cl
ATOM     11  C   UNL     1      10.607  12.806  19.890  0.00  0.00    +0.000 A 
ATOM     12  C   UNL     1      10.359  11.473  20.246  0.00  0.00    +0.000 A 
ATOM     13  C   UNL     1       9.567  10.709  19.379  0.00  0.00    +0.000 A 
ATOM     14  N   UNL     1       9.142   9.400  19.461  0.00  0.00    +0.000 N 
ATOM     15  H   UNL     1       9.335   8.771  20.230  0.00  0.00    +0.000 HD
ENDBRANCH   2   5
BRANCH   1  16
ATOM     16  C   UNL     1       6.540   6.202  16.762  0.00  0.00    +0.000 C 
BRANCH  16  17
ATOM     17  C   UNL     1       5.074   6.171  16.309  0.00  0.00    +0.000 C 
BRANCH  17  21
ATOM     18  C   UNL     1       2.103   4.454  19.008  0.00  0.00    +0.000 A 
ATOM     19  C   UNL     1       2.702   3.709  17.986  0.00  0.00    +0.000 A 
ATOM     20  C   UNL     1       3.667   4.269  17.142  0.00  0.00    +0.000 A 
ATOM     21  C   UNL     1       4.035   5.617  17.259  0.00  0.00    +0.000 A 
ATOM     22  C   UNL     1       3.455   6.363  18.289  0.00  0.00    +0.000 A 
ATOM     23  C   UNL     1       2.491   5.791  19.139  0.00  0.00    +0.000 A 
BRANCH  18  25
ATOM     24  C   UNL     1       1.356   3.252  21.023  0.00  0.00    +0.000 C 
ATOM     25  N   UNL     1       1.065   3.870  19.741  0.00  0.00    +0.000 N 
ATOM     26  H   UNL     1       0.459   3.297  19.161  0.00  0.00    +0.000 HD
ENDBRANCH  18  25
ENDBRANCH  17  21
ENDBRANCH  16  17
ENDBRANCH   1  16
TORSDOF 5
ENDMDL
MODEL 4
REMARK VINA RESULT:      -7.9      3.773      9.293
REMARK  Name = 
REMARK  6 active torsions:
REMARK  status: ('A' for Active; 'I' for Inactive)
REMARK    1  A    between atoms: C_1  and  N_2
REMARK    2  A    between atoms: N_2  and  C_3
REMARK    3  A    between atoms: C_6  and  C_7
REMARK    4  A    between atoms: C_7  and  C_8
REMARK    5  A    between atoms: C_8  and  N_9
REMARK    6  A    between atoms: C_10  and  C_12
REMARK                            x       y       z     vdW  Elec       q    Type
REMARK                         _______ _______ _______ _____ _____    ______ ____
ROOT
ATOM      1  N   UNL     1       7.480   6.893  16.667  0.00  0.00    +0.000 N 
ATOM      2  C   UNL     1       7.791   7.207  17.975  0.00  0.00    +0.000 C 
ATOM      3  O   UNL     1       7.706   6.389  18.886  0.00  0.00    +0.000 OA
ATOM      4  H   UNL     1       7.638   7.573  15.938  0.00  0.00    +0.000 HD
ENDROOT
BRANCH   2   5
ATOM      5  C   UNL     1       8.254   8.560  18.203  0.00  0.00    +0.000 A 
ATOM      6  C   UNL     1       8.110   9.720  17.463  0.00  0.00    +0.000 A 
ATOM      7  C   UNL     1       8.793  10.773  18.129  0.00  0.00    +0.000 A 
ATOM      8  C   UNL     1       8.987  12.136  17.848  0.00  0.00    +0.000 A 
ATOM      9  C   UNL     1       9.769  12.902  18.715  0.00  0.00    +0.000 A 
ATOM     10 CL   UNL     1      10.016  14.572  18.369  0.00  0.00    +0.000 Cl
ATOM     11  C   UNL     1      10.354  12.338  19.846  0.00  0.00    +0.000 A 
ATOM     12  C   UNL     1      10.152  10.987  20.159  0.00  0.00    +0.000 A 
ATOM     13  C   UNL     1       9.362  10.230  19.284  0.00  0.00    +0.000 A 
ATOM     14  N   UNL     1       8.976   8.907  19.329  0.00  0.00    +0.000 N 
ATOM     15  H   UNL     1       9.205   8.258  20.070  0.00  0.00    +0.000 HD
ENDBRANCH   2   5
BRANCH   1  16
ATOM     16  C   UNL     1       7.079   5.546  16.303  0.00  0.00    +0.000 C 
BRANCH  16  17
ATOM     17  C   UNL     1       5.656   5.426  15.742  0.00  0.00    +0.000 C 
BRANCH  17  21
ATOM     18  C   UNL     1       2.402   4.425  18.475  0.00  0.00    +0.000 A 
ATOM     19  C   UNL     1       2.889   5.730  18.341  0.00  0.00    +0.000 A 
ATOM     20  C   UNL     1       3.920   6.037  17.446  0.00  0.00    +0.000 A 
ATOM     21  C   UNL     1       4.537   5.036  16.683  0.00  0.00    +0.000 A 
ATOM     22  C   UNL     1       4.044   3.733  16.797  0.00  0.00    +0.000 A 
ATOM     23  C   UNL     1       3.002   3.432  17.693  0.00  0.00    +0.000 A 
BRANCH  18  25
ATOM     24  C   UNL     1       1.697   4.611  20.826  0.00  0.00    +0.000 C 
ATOM     25  N   UNL     1       1.451   4.164  19.467  0.00  0.00    +0.000 N 
ATOM     26  H   UNL     1       1.105   3.210  19.427  0.00  0.00    +0.000 HD
ENDBRANCH  18  25
ENDBRANCH  17  21
ENDBRANCH  16  17
ENDBRANCH   1  16
TORSDOF 5
ENDMDL
MODEL 5
REMARK VINA RESULT:      -7.9      3.881      9.900
REMARK  Name = 
REMARK  6 active torsions:
REMARK  status: ('A' for Active; 'I' for Inactive)
REMARK    1  A    between atoms: C_1  and  N_2
REMARK    2  A    between atoms: N_2  and  C_3
REMARK    3  A    between atoms: C_6  and  C_7
REMARK    4  A    between atoms: C_7  and  C_8
REMARK    5  A    between atoms: C_8  and  N_9
REMARK    6  A    between atoms: C_10  and  C_12
REMARK                            x       y       z     vdW  Elec       q    Type
REMARK                         _______ _______ _______ _____ _____    ______ ____
ROOT
ATOM      1  N   UNL     1       7.139   7.913  17.145  0.00  0.00    +0.000 N 
ATOM      2  C   UNL     1       8.045   8.023  18.181  0.00  0.00    +0.000 C 
ATOM      3  O   UNL     1       8.398   7.057  18.852  0.00  0.00    +0.000 OA
ATOM      4  H   UNL     1       6.936   8.717  16.571  0.00  0.00    +0.000 HD
ENDROOT
BRANCH   2   5
ATOM      5  C   UNL     1       8.578   9.350  18.411  0.00  0.00    +0.000 A 
ATOM      6  C   UNL     1       8.526  10.507  17.655  0.00  0.00    +0.000 A 
ATOM      7  C   UNL     1       9.246  11.527  18.332  0.00  0.00    +0.000 A 
ATOM      8  C   UNL     1       9.527  12.874  18.044  0.00  0.00    +0.000 A 
ATOM      9  C   UNL     1      10.324  13.604  18.929  0.00  0.00    +0.000 A 
ATOM     10 CL   UNL     1      10.677  15.252  18.575  0.00  0.00    +0.000 Cl
ATOM     11  C   UNL     1      10.836  13.020  20.086  0.00  0.00    +0.000 A 
ATOM     12  C   UNL     1      10.547  11.687  20.405  0.00  0.00    +0.000 A 
ATOM     13  C   UNL     1       9.743  10.966  19.511  0.00  0.00    +0.000 A 
ATOM     14  N   UNL     1       9.281   9.669  19.557  0.00  0.00    +0.000 N 
ATOM     15  H   UNL     1       9.447   9.016  20.312  0.00  0.00    +0.000 HD
ENDBRANCH   2   5
BRANCH   1  16
ATOM     16  C   UNL     1       6.595   6.620  16.770  0.00  0.00    +0.000 C 
BRANCH  16  17
ATOM     17  C   UNL     1       5.088   6.612  16.484  0.00  0.00    +0.000 C 
BRANCH  17  21
ATOM     18  C   UNL     1       2.566   3.510  18.238  0.00  0.00    +0.000 A 
ATOM     19  C   UNL     1       2.340   4.872  18.465  0.00  0.00    +0.000 A 
ATOM     20  C   UNL     1       3.146   5.854  17.879  0.00  0.00    +0.000 A 
ATOM     21  C   UNL     1       4.244   5.506  17.080  0.00  0.00    +0.000 A 
ATOM     22  C   UNL     1       4.466   4.148  16.834  0.00  0.00    +0.000 A 
ATOM     23  C   UNL     1       3.647   3.166  17.419  0.00  0.00    +0.000 A 
BRANCH  18  25
ATOM     24  C   UNL     1       0.885   3.039  19.974  0.00  0.00    +0.000 C 
ATOM     25  N   UNL     1       1.797   2.578  18.943  0.00  0.00    +0.000 N 
ATOM     26  H   UNL     1       2.342   1.773  19.236  0.00  0.00    +0.000 HD
ENDBRANCH  18  25
ENDBRANCH  17  21
ENDBRANCH  16  17
ENDBRANCH   1  16
TORSDOF 5
ENDMDL
MODEL 6
REMARK VINA RESULT:      -7.8      1.507      1.867
REMARK  Name = 
REMARK  6 active torsions:
REMARK  status: ('A' for Active; 'I' for Inactive)
REMARK    1  A    between atoms: C_1  and  N_2
REMARK    2  A    between atoms: N_2  and  C_3
REMARK    3  A    between atoms: C_6  and  C_7
REMARK    4  A    between atoms: C_7  and  C_8
REMARK    5  A    between atoms: C_8  and  N_9
REMARK    6  A    between atoms: C_10  and  C_12
REMARK                            x       y       z     vdW  Elec       q    Type
REMARK                         _______ _______ _______ _____ _____    ______ ____
ROOT
ATOM      1  N   UNL     1       6.997   7.802  17.896  0.00  0.00    +0.000 N 
ATOM      2  C   UNL     1       6.711   6.599  17.282  0.00  0.00    +0.000 C 
ATOM      3  O   UNL     1       7.388   6.152  16.360  0.00  0.00    +0.000 OA
ATOM      4  H   UNL     1       6.461   8.093  18.700  0.00  0.00    +0.000 HD
ENDROOT
BRANCH   2   5
ATOM      5  C   UNL     1       5.574   5.877  17.815  0.00  0.00    +0.000 A 
ATOM      6  C   UNL     1       5.243   5.502  19.104  0.00  0.00    +0.000 A 
ATOM      7  C   UNL     1       4.022   4.777  19.069  0.00  0.00    +0.000 A 
ATOM      8  C   UNL     1       3.228   4.162  20.052  0.00  0.00    +0.000 A 
ATOM      9  C   UNL     1       2.076   3.475  19.661  0.00  0.00    +0.000 A 
ATOM     10 CL   UNL     1       1.104   2.713  20.862  0.00  0.00    +0.000 Cl
ATOM     11  C   UNL     1       1.707   3.394  18.320  0.00  0.00    +0.000 A 
ATOM     12  C   UNL     1       2.470   4.021  17.326  0.00  0.00    +0.000 A 
ATOM     13  C   UNL     1       3.620   4.711  17.732  0.00  0.00    +0.000 A 
ATOM     14  N   UNL     1       4.547   5.427  17.006  0.00  0.00    +0.000 N 
ATOM     15  H   UNL     1       4.508   5.591  16.008  0.00  0.00    +0.000 HD
ENDBRANCH   2   5
BRANCH   1  16
ATOM     16  C   UNL     1       8.159   8.577  17.500  0.00  0.00    +0.000 C 
BRANCH  16  17
ATOM     17  C   UNL     1       8.738   9.479  18.599  0.00  0.00    +0.000 C 
BRANCH  17  21
ATOM     18  C   UNL     1      10.324  13.384  17.459  0.00  0.00    +0.000 A 
ATOM     19  C   UNL     1       8.952  13.107  17.462  0.00  0.00    +0.000 A 
ATOM     20  C   UNL     1       8.459  11.856  17.848  0.00  0.00    +0.000 A 
ATOM     21  C   UNL     1       9.328  10.815  18.202  0.00  0.00    +0.000 A 
ATOM     22  C   UNL     1      10.699  11.088  18.220  0.00  0.00    +0.000 A 
ATOM     23  C   UNL     1      11.187  12.350  17.837  0.00  0.00    +0.000 A 
BRANCH  18  25
ATOM     24  C   UNL     1      10.934  15.735  17.858  0.00  0.00    +0.000 C 
ATOM     25  N   UNL     1      10.757  14.614  16.953  0.00  0.00    +0.000 N 
ATOM     26  H   UNL     1      10.268  14.873  16.101  0.00  0.00    +0.000 HD
ENDBRANCH  18  25
ENDBRANCH  17  21
ENDBRANCH  16  17
ENDBRANCH   1  16
TORSDOF 5
ENDMDL
MODEL 7
REMARK VINA RESULT:      -7.7      3.203      4.036
REMARK  Name = 
REMARK  6 active torsions:
REMARK  status: ('A' for Active; 'I' for Inactive)
REMARK    1  A    between atoms: C_1  and  N_2
REMARK    2  A    between atoms: N_2  and  C_3
REMARK    3  A    between atoms: C_6  and  C_7
REMARK    4  A    between atoms: C_7  and  C_8
REMARK    5  A    between atoms: C_8  and  N_9
REMARK    6  A    between atoms: C_10  and  C_12
REMARK                            x       y       z     vdW  Elec       q    Type
REMARK                         _______ _______ _______ _____ _____    ______ ____
ROOT
ATOM      1  N   UNL     1       7.903   7.456  17.040  0.00  0.00    +0.000 N 
ATOM      2  C   UNL     1       7.098   6.346  17.192  0.00  0.00    +0.000 C 
ATOM      3  O   UNL     1       6.677   5.982  18.286  0.00  0.00    +0.000 OA
ATOM      4  H   UNL     1       8.163   7.764  16.115  0.00  0.00    +0.000 HD
ENDROOT
BRANCH   2   5
ATOM      5  C   UNL     1       6.753   5.649  15.970  0.00  0.00    +0.000 A 
ATOM      6  C   UNL     1       5.627   4.934  15.603  0.00  0.00    +0.000 A 
ATOM      7  C   UNL     1       5.818   4.423  14.292  0.00  0.00    +0.000 A 
ATOM      8  C   UNL     1       5.032   3.639  13.429  0.00  0.00    +0.000 A 
ATOM      9  C   UNL     1       5.553   3.268  12.188  0.00  0.00    +0.000 A 
ATOM     10 CL   UNL     1       4.595   2.300  11.132  0.00  0.00    +0.000 Cl
ATOM     11  C   UNL     1       6.830   3.662  11.795  0.00  0.00    +0.000 A 
ATOM     12  C   UNL     1       7.621   4.465  12.628  0.00  0.00    +0.000 A 
ATOM     13  C   UNL     1       7.085   4.834  13.870  0.00  0.00    +0.000 A 
ATOM     14  N   UNL     1       7.603   5.615  14.881  0.00  0.00    +0.000 N 
ATOM     15  H   UNL     1       8.497   6.088  14.853  0.00  0.00    +0.000 HD
ENDBRANCH   2   5
BRANCH   1  16
ATOM     16  C   UNL     1       8.252   8.280  18.184  0.00  0.00    +0.000 C 
BRANCH  16  17
ATOM     17  C   UNL     1       8.055   9.788  17.977  0.00  0.00    +0.000 C 
BRANCH  17  21
ATOM     18  C   UNL     1      11.045  12.606  19.455  0.00  0.00    +0.000 A 
ATOM     19  C   UNL     1      10.434  12.753  18.204  0.00  0.00    +0.000 A 
ATOM     20  C   UNL     1       9.463  11.851  17.754  0.00  0.00    +0.000 A 
ATOM     21  C   UNL     1       9.101  10.736  18.522  0.00  0.00    +0.000 A 
ATOM     22  C   UNL     1       9.693  10.592  19.780  0.00  0.00    +0.000 A 
ATOM     23  C   UNL     1      10.662  11.506  20.230  0.00  0.00    +0.000 A 
BRANCH  18  25
ATOM     24  C   UNL     1      12.033  14.858  19.364  0.00  0.00    +0.000 C 
ATOM     25  N   UNL     1      12.087  13.473  19.796  0.00  0.00    +0.000 N 
ATOM     26  H   UNL     1      13.000  13.054  19.649  0.00  0.00    +0.000 HD
ENDBRANCH  18  25
ENDBRANCH  17  21
ENDBRANCH  16  17
ENDBRANCH   1  16
TORSDOF 5
ENDMDL
MODEL 8
REMARK VINA RESULT:      -7.7      1.157      1.521
REMARK  Name = 
REMARK  6 active torsions:
REMARK  status: ('A' for Active; 'I' for Inactive)
REMARK    1  A    between atoms: C_1  and  N_2
REMARK    2  A    between atoms: N_2  and  C_3
REMARK    3  A    between atoms: C_6  and  C_7
REMARK    4  A    between atoms: C_7  and  C_8
REMARK    5  A    between atoms: C_8  and  N_9
REMARK    6  A    between atoms: C_10  and  C_12
REMARK                            x       y       z     vdW  Elec       q    Type
REMARK                         _______ _______ _______ _____ _____    ______ ____
ROOT
ATOM      1  N   UNL     1       6.958   7.791  17.786  0.00  0.00    +0.000 N 
ATOM      2  C   UNL     1       6.749   6.603  17.114  0.00  0.00    +0.000 C 
ATOM      3  O   UNL     1       7.493   6.212  16.219  0.00  0.00    +0.000 OA
ATOM      4  H   UNL     1       6.367   8.035  18.566  0.00  0.00    +0.000 HD
ENDROOT
BRANCH   2   5
ATOM      5  C   UNL     1       5.607   5.827  17.553  0.00  0.00    +0.000 A 
ATOM      6  C   UNL     1       4.809   4.909  16.893  0.00  0.00    +0.000 A 
ATOM      7  C   UNL     1       3.797   4.461  17.784  0.00  0.00    +0.000 A 
ATOM      8  C   UNL     1       2.729   3.556  17.666  0.00  0.00    +0.000 A 
ATOM      9  C   UNL     1       1.872   3.373  18.753  0.00  0.00    +0.000 A 
ATOM     10 CL   UNL     1       0.556   2.270  18.609  0.00  0.00    +0.000 Cl
ATOM     11  C   UNL     1       2.061   4.071  19.944  0.00  0.00    +0.000 A 
ATOM     12  C   UNL     1       3.134   4.959  20.093  0.00  0.00    +0.000 A 
ATOM     13  C   UNL     1       3.990   5.129  18.996  0.00  0.00    +0.000 A 
ATOM     14  N   UNL     1       5.119   5.906  18.843  0.00  0.00    +0.000 N 
ATOM     15  H   UNL     1       5.533   6.481  19.565  0.00  0.00    +0.000 HD
ENDBRANCH   2   5
BRANCH   1  16
ATOM     16  C   UNL     1       8.114   8.616  17.487  0.00  0.00    +0.000 C 
BRANCH  16  17
ATOM     17  C   UNL     1       8.709   9.355  18.694  0.00  0.00    +0.000 C 
BRANCH  17  21
ATOM     18  C   UNL     1      10.457  13.315  18.132  0.00  0.00    +0.000 A 
ATOM     19  C   UNL     1      11.137  12.287  18.794  0.00  0.00    +0.000 A 
ATOM     20  C   UNL     1      10.569  11.017  18.949  0.00  0.00    +0.000 A 
ATOM     21  C   UNL     1       9.275  10.743  18.486  0.00  0.00    +0.000 A 
ATOM     22  C   UNL     1       8.597  11.759  17.808  0.00  0.00    +0.000 A 
ATOM     23  C   UNL     1       9.176  13.031  17.649  0.00  0.00    +0.000 A 
BRANCH  18  25
ATOM     24  C   UNL     1      11.482  15.190  19.355  0.00  0.00    +0.000 C 
ATOM     25  N   UNL     1      11.031  14.591  18.112  0.00  0.00    +0.000 N 
ATOM     26  H   UNL     1      10.504  15.240  17.535  0.00  0.00    +0.000 HD
ENDBRANCH  18  25
ENDBRANCH  17  21
ENDBRANCH  16  17
ENDBRANCH   1  16
TORSDOF 5
ENDMDL
MODEL 9
REMARK VINA RESULT:      -7.7      3.728      9.165
REMARK  Name = 
REMARK  6 active torsions:
REMARK  status: ('A' for Active; 'I' for Inactive)
REMARK    1  A    between atoms: C_1  and  N_2
REMARK    2  A    between atoms: N_2  and  C_3
REMARK    3  A    between atoms: C_6  and  C_7
REMARK    4  A    between atoms: C_7  and  C_8
REMARK    5  A    between atoms: C_8  and  N_9
REMARK    6  A    between atoms: C_10  and  C_12
REMARK                            x       y       z     vdW  Elec       q    Type
REMARK                         _______ _______ _______ _____ _____    ______ ____
ROOT
ATOM      1  N   UNL     1       7.393   6.659  16.791  0.00  0.00    +0.000 N 
ATOM      2  C   UNL     1       7.746   7.019  18.075  0.00  0.00    +0.000 C 
ATOM      3  O   UNL     1       7.714   6.227  19.014  0.00  0.00    +0.000 OA
ATOM      4  H   UNL     1       7.508   7.319  16.036  0.00  0.00    +0.000 HD
ENDROOT
BRANCH   2   5
ATOM      5  C   UNL     1       8.187   8.388  18.245  0.00  0.00    +0.000 A 
ATOM      6  C   UNL     1       7.947   9.531  17.504  0.00  0.00    +0.000 A 
ATOM      7  C   UNL     1       8.652  10.614  18.095  0.00  0.00    +0.000 A 
ATOM      8  C   UNL     1       8.781  11.977  17.781  0.00  0.00    +0.000 A 
ATOM      9  C   UNL     1       9.611  12.779  18.568  0.00  0.00    +0.000 A 
ATOM     10 CL   UNL     1       9.778  14.450  18.180  0.00  0.00    +0.000 Cl
ATOM     11  C   UNL     1      10.305  12.249  19.653  0.00  0.00    +0.000 A 
ATOM     12  C   UNL     1      10.170  10.898  20.001  0.00  0.00    +0.000 A 
ATOM     13  C   UNL     1       9.331  10.106  19.205  0.00  0.00    +0.000 A 
ATOM     14  N   UNL     1       8.990   8.774  19.301  0.00  0.00    +0.000 N 
ATOM     15  H   UNL     1       9.299   8.143  20.030  0.00  0.00    +0.000 HD
ENDBRANCH   2   5
BRANCH   1  16
ATOM     16  C   UNL     1       7.009   5.293  16.483  0.00  0.00    +0.000 C 
BRANCH  16  17
ATOM     17  C   UNL     1       5.503   5.075  16.282  0.00  0.00    +0.000 C 
BRANCH  17  21
ATOM     18  C   UNL     1       3.042   4.722  19.871  0.00  0.00    +0.000 A 
ATOM     19  C   UNL     1       4.256   4.040  19.728  0.00  0.00    +0.000 A 
ATOM     20  C   UNL     1       5.042   4.179  18.579  0.00  0.00    +0.000 A 
ATOM     21  C   UNL     1       4.617   4.973  17.504  0.00  0.00    +0.000 A 
ATOM     22  C   UNL     1       3.415   5.673  17.647  0.00  0.00    +0.000 A 
ATOM     23  C   UNL     1       2.634   5.534  18.808  0.00  0.00    +0.000 A 
BRANCH  18  25
ATOM     24  C   UNL     1       1.464   3.232  21.033  0.00  0.00    +0.000 C 
ATOM     25  N   UNL     1       2.251   4.451  20.992  0.00  0.00    +0.000 N 
ATOM     26  H   UNL     1       1.726   5.265  21.297  0.00  0.00    +0.000 HD
ENDBRANCH  18  25
ENDBRANCH  17  21
ENDBRANCH  16  17
ENDBRANCH   1  16
TORSDOF 5
ENDMDL
