MODEL 1
REMARK VINA RESULT:      -7.9      0.000      0.000
REMARK  Name = 
REMARK  5 active torsions:
REMARK  status: ('A' for Active; 'I' for Inactive)
REMARK    1  A    between atoms: C_2  and  C_19
REMARK    2  A    between atoms: N_3  and  C_4
REMARK    3  A    between atoms: C_4  and  C_5
REMARK    4  A    between atoms: C_5  and  C_6
REMARK    5  A    between atoms: C_6  and  N_7
REMARK                            x       y       z     vdW  Elec       q    Type
REMARK                         _______ _______ _______ _____ _____    ______ ____
ROOT
ATOM      1  C   UNL     1       7.636   6.959  17.781  0.00  0.00    +0.000 C 
ENDROOT
BRANCH   1   2
ATOM      2  N   UNL     1       6.942   6.215  16.713  0.00  0.00    +0.000 NA
ATOM      3  C   UNL     1       6.807   4.772  17.006  0.00  0.00    +0.000 C 
ATOM      4  C   UNL     1       5.952   4.482  18.251  0.00  0.00    +0.000 C 
ATOM      5  N   UNL     1       4.612   4.998  18.020  0.00  0.00    +0.000 N 
ATOM      6  C   UNL     1       3.549   4.215  18.382  0.00  0.00    +0.000 A 
ATOM      7  N   UNL     1       3.800   3.133  19.145  0.00  0.00    +0.000 NA
ATOM      8  C   UNL     1       2.804   2.260  19.365  0.00  0.00    +0.000 A 
ATOM      9  C   UNL     1       1.550   2.416  18.847  0.00  0.00    +0.000 A 
ATOM     10  C   UNL     1       1.363   3.565  18.119  0.00  0.00    +0.000 A 
ATOM     11  N   UNL     1       2.331   4.478  17.891  0.00  0.00    +0.000 NA
ATOM     12  C   UNL     1       4.470   6.373  17.548  0.00  0.00    +0.000 C 
ATOM     13  C   UNL     1       5.561   6.742  16.491  0.00  0.00    +0.000 C 
ENDBRANCH   1   2
BRANCH   1  14
ATOM     14  C   UNL     1       7.732   8.485  17.579  0.00  0.00    +0.000 C 
BRANCH  14  15
ATOM     15  C   UNL     1       8.601   9.188  18.618  0.00  0.00    +0.000 C 
BRANCH  15  18
ATOM     16  O   UNL     1       9.918  11.169  20.135  0.00  0.00    +0.000 OA
ATOM     17  C   UNL     1       9.798  11.332  18.926  0.00  0.00    +0.000 C 
ATOM     18  N   UNL     1       9.179  10.421  18.095  0.00  0.00    +0.000 N 
ATOM     19  H   UNL     1       9.292  10.503  17.094  0.00  0.00    +0.000 HD
BRANCH  17  20
ATOM     20  C   UNL     1      10.368  12.549  18.289  0.00  0.00    +0.000 A 
ATOM     21  C   UNL     1       9.718  13.766  18.504  0.00  0.00    +0.000 A 
ATOM     22  C   UNL     1      10.218  14.892  17.879  0.00  0.00    +0.000 A 
ATOM     23  N   UNL     1      11.293  14.880  17.061  0.00  0.00    +0.000 NA
ATOM     24  C   UNL     1      11.895  13.688  16.860  0.00  0.00    +0.000 A 
ATOM     25  C   UNL     1      11.476  12.498  17.446  0.00  0.00    +0.000 A 
ENDBRANCH  17  20
ENDBRANCH  15  18
ENDBRANCH  14  15
ENDBRANCH   1  14
TORSDOF 5
ENDMDL
MODEL 2
REMARK VINA RESULT:      -7.6      0.613      1.121
REMARK  Name = 
REMARK  5 active torsions:
REMARK  status: ('A' for Active; 'I' for Inactive)
REMARK    1  A    between atoms: C_2  and  C_19
REMARK    2  A    between atoms: N_3  and  C_4
REMARK    3  A    between atoms: C_4  and  C_5
REMARK    4  A    between atoms: C_5  and  C_6
REMARK    5  A    between atoms: C_6  and  N_7
REMARK                            x       y       z     vdW  Elec       q    Type
REMARK                         _______ _______ _______ _____ _____    ______ ____
ROOT
ATOM      1  C   UNL     1       7.684   7.373  17.986  0.00  0.00    +0.000 C 
ENDROOT
BRANCH   1   2
ATOM      2  N   UNL     1       7.166   6.577  16.858  0.00  0.00    +0.000 NA
ATOM      3  C   UNL     1       7.214   5.120  17.107  0.00  0.00    +0.000 C 
ATOM      4  C   UNL     1       6.333   4.676  18.286  0.00  0.00    +0.000 C 
ATOM      5  N   UNL     1       4.951   5.012  17.982  0.00  0.00    +0.000 N 
ATOM      6  C   UNL     1       3.987   4.079  18.256  0.00  0.00    +0.000 A 
ATOM      7  N   UNL     1       4.338   3.017  19.008  0.00  0.00    +0.000 NA
ATOM      8  C   UNL     1       3.460   2.010  19.141  0.00  0.00    +0.000 A 
ATOM      9  C   UNL     1       2.230   2.010  18.547  0.00  0.00    +0.000 A 
ATOM     10  C   UNL     1       1.931   3.146  17.836  0.00  0.00    +0.000 A 
ATOM     11  N   UNL     1       2.776   4.190  17.693  0.00  0.00    +0.000 NA
ATOM     12  C   UNL     1       4.650   6.369  17.535  0.00  0.00    +0.000 C 
ATOM     13  C   UNL     1       5.742   6.918  16.560  0.00  0.00    +0.000 C 
ENDBRANCH   1   2
BRANCH   1  14
ATOM     14  C   UNL     1       8.036   8.840  17.663  0.00  0.00    +0.000 C 
BRANCH  14  15
ATOM     15  C   UNL     1       8.829   9.538  18.766  0.00  0.00    +0.000 C 
BRANCH  15  18
ATOM     16  O   UNL     1       9.190  12.018  20.060  0.00  0.00    +0.000 OA
ATOM     17  C   UNL     1       9.703  11.845  18.960  0.00  0.00    +0.000 C 
ATOM     18  N   UNL     1       9.594  10.668  18.249  0.00  0.00    +0.000 N 
ATOM     19  H   UNL     1      10.201  10.505  17.458  0.00  0.00    +0.000 HD
BRANCH  17  20
ATOM     20  C   UNL     1      10.518  12.929  18.351  0.00  0.00    +0.000 A 
ATOM     21  C   UNL     1      11.517  12.566  17.445  0.00  0.00    +0.000 A 
ATOM     22  C   UNL     1      12.307  13.565  16.909  0.00  0.00    +0.000 A 
ATOM     23  N   UNL     1      12.175  14.873  17.223  0.00  0.00    +0.000 NA
ATOM     24  C   UNL     1      11.210  15.195  18.110  0.00  0.00    +0.000 A 
ATOM     25  C   UNL     1      10.358  14.268  18.702  0.00  0.00    +0.000 A 
ENDBRANCH  17  20
ENDBRANCH  15  18
ENDBRANCH  14  15
ENDBRANCH   1  14
TORSDOF 5
ENDMDL
MODEL 3
REMARK VINA RESULT:      -7.5      1.643      2.094
REMARK  Name = 
REMARK  5 active torsions:
REMARK  status: ('A' for Active; 'I' for Inactive)
REMARK    1  A    between atoms: C_2  and  C_19
REMARK    2  A    between atoms: N_3  and  C_4
REMARK    3  A    between atoms: C_4  and  C_5
REMARK    4  A    between atoms: C_5  and  C_6
REMARK    5  A    between atoms: C_6  and  N_7
REMARK                            x       y       z     vdW  Elec       q    Type
REMARK                         _______ _______ _______ _____ _____    ______ ____
ROOT
ATOM      1  C   UNL     1       7.005   6.649  17.209  0.00  0.00    +0.000 C 
ENDROOT
BRANCH   1   2
ATOM      2  N   UNL     1       6.963   5.238  17.637  0.00  0.00    +0.000 NA
ATOM      3  C   UNL     1       6.430   5.064  19.005  0.00  0.00    +0.000 C 
ATOM      4  C   UNL     1       4.970   5.520  19.152  0.00  0.00    +0.000 C 
ATOM      5  N   UNL     1       4.144   4.715  18.266  0.00  0.00    +0.000 N 
ATOM      6  C   UNL     1       2.956   4.236  18.752  0.00  0.00    +0.000 A 
ATOM      7  N   UNL     1       2.511   4.735  19.922  0.00  0.00    +0.000 NA
ATOM      8  C   UNL     1       1.446   4.158  20.499  0.00  0.00    +0.000 A 
ATOM      9  C   UNL     1       0.795   3.086  19.958  0.00  0.00    +0.000 A 
ATOM     10  C   UNL     1       1.281   2.666  18.744  0.00  0.00    +0.000 A 
ATOM     11  N   UNL     1       2.337   3.230  18.120  0.00  0.00    +0.000 NA
ATOM     12  C   UNL     1       4.553   4.577  16.871  0.00  0.00    +0.000 C 
ATOM     13  C   UNL     1       6.102   4.420  16.731  0.00  0.00    +0.000 C 
ENDBRANCH   1   2
BRANCH   1  14
ATOM     14  C   UNL     1       7.982   7.555  17.988  0.00  0.00    +0.000 C 
BRANCH  14  15
ATOM     15  C   UNL     1       7.703   9.046  17.818  0.00  0.00    +0.000 C 
BRANCH  15  18
ATOM     16  O   UNL     1       8.086  11.802  17.355  0.00  0.00    +0.000 OA
ATOM     17  C   UNL     1       8.883  11.207  18.071  0.00  0.00    +0.000 C 
ATOM     18  N   UNL     1       8.780   9.863  18.367  0.00  0.00    +0.000 N 
ATOM     19  H   UNL     1       9.332   9.474  19.119  0.00  0.00    +0.000 HD
BRANCH  17  20
ATOM     20  C   UNL     1      10.008  11.951  18.695  0.00  0.00    +0.000 A 
ATOM     21  C   UNL     1      11.284  11.386  18.628  0.00  0.00    +0.000 A 
ATOM     22  C   UNL     1      12.326  12.052  19.243  0.00  0.00    +0.000 A 
ATOM     23  N   UNL     1      12.178  13.213  19.918  0.00  0.00    +0.000 NA
ATOM     24  C   UNL     1      10.934  13.731  19.979  0.00  0.00    +0.000 A 
ATOM     25  C   UNL     1       9.818  13.145  19.388  0.00  0.00    +0.000 A 
ENDBRANCH  17  20
ENDBRANCH  15  18
ENDBRANCH  14  15
ENDBRANCH   1  14
TORSDOF 5
ENDMDL
MODEL 4
REMARK VINA RESULT:      -7.5      1.277      1.343
REMARK  Name = 
REMARK  5 active torsions:
REMARK  status: ('A' for Active; 'I' for Inactive)
REMARK    1  A    between atoms: C_2  and  C_19
REMARK    2  A    between atoms: N_3  and  C_4
REMARK    3  A    between atoms: C_4  and  C_5
REMARK    4  A    between atoms: C_5  and  C_6
REMARK    5  A    between atoms: C_6  and  N_7
REMARK                            x       y       z     vdW  Elec       q    Type
REMARK                         _______ _______ _______ _____ _____    ______ ____
ROOT
ATOM      1  C   UNL     1       6.337   7.186  17.460  0.00  0.00    +0.000 C 
ENDROOT
BRANCH   1   2
ATOM      2  N   UNL     1       6.111   5.753  17.192  0.00  0.00    +0.000 NA
ATOM      3  C   UNL     1       6.150   4.924  18.415  0.00  0.00    +0.000 C 
ATOM      4  C   UNL     1       5.043   5.273  19.423  0.00  0.00    +0.000 C 
ATOM      5  N   UNL     1       3.754   5.041  18.790  0.00  0.00    +0.000 N 
ATOM      6  C   UNL     1       2.784   4.407  19.518  0.00  0.00    +0.000 A 
ATOM      7  N   UNL     1       2.991   4.256  20.841  0.00  0.00    +0.000 NA
ATOM      8  C   UNL     1       2.140   3.488  21.539  0.00  0.00    +0.000 A 
ATOM      9  C   UNL     1       1.075   2.849  20.970  0.00  0.00    +0.000 A 
ATOM     10  C   UNL     1       0.906   3.089  19.628  0.00  0.00    +0.000 A 
ATOM     11  N   UNL     1       1.727   3.870  18.893  0.00  0.00    +0.000 NA
ATOM     12  C   UNL     1       3.516   5.618  17.469  0.00  0.00    +0.000 C 
ATOM     13  C   UNL     1       4.780   5.522  16.555  0.00  0.00    +0.000 C 
ENDBRANCH   1   2
BRANCH   1  14
ATOM     14  C   UNL     1       7.793   7.673  17.310  0.00  0.00    +0.000 C 
BRANCH  14  15
ATOM     15  C   UNL     1       8.285   8.512  18.488  0.00  0.00    +0.000 C 
BRANCH  15  18
ATOM     16  O   UNL     1       9.449  10.472  20.149  0.00  0.00    +0.000 OA
ATOM     17  C   UNL     1       9.321  10.710  18.953  0.00  0.00    +0.000 C 
ATOM     18  N   UNL     1       8.774   9.816  18.056  0.00  0.00    +0.000 N 
ATOM     19  H   UNL     1       8.884   9.975  17.064  0.00  0.00    +0.000 HD
BRANCH  17  20
ATOM     20  C   UNL     1       9.804  12.005  18.407  0.00  0.00    +0.000 A 
ATOM     21  C   UNL     1       9.049  13.150  18.673  0.00  0.00    +0.000 A 
ATOM     22  C   UNL     1       9.469  14.350  18.132  0.00  0.00    +0.000 A 
ATOM     23  N   UNL     1      10.562  14.475  17.347  0.00  0.00    +0.000 NA
ATOM     24  C   UNL     1      11.266  13.352  17.095  0.00  0.00    +0.000 A 
ATOM     25  C   UNL     1      10.934  12.097  17.597  0.00  0.00    +0.000 A 
ENDBRANCH  17  20
ENDBRANCH  15  18
ENDBRANCH  14  15
ENDBRANCH   1  14
TORSDOF 5
ENDMDL
MODEL 5
REMARK VINA RESULT:      -7.5      1.009      1.105
REMARK  Name = 
REMARK  5 active torsions:
REMARK  status: ('A' for Active; 'I' for Inactive)
REMARK    1  A    between atoms: C_2  and  C_19
REMARK    2  A    between atoms: N_3  and  C_4
REMARK    3  A    between atoms: C_4  and  C_5
REMARK    4  A    between atoms: C_5  and  C_6
REMARK    5  A    between atoms: C_6  and  N_7
REMARK                            x       y       z     vdW  Elec       q    Type
REMARK                         _______ _______ _______ _____ _____    ______ ____
ROOT
ATOM      1  C   UNL     1       7.800   7.431  18.000  0.00  0.00    +0.000 C 
ENDROOT
BRANCH   1   2
ATOM      2  N   UNL     1       7.323   6.593  16.884  0.00  0.00    +0.000 NA
ATOM      3  C   UNL     1       7.346   5.148  17.194  0.00  0.00    +0.000 C 
ATOM      4  C   UNL     1       6.411   4.759  18.351  0.00  0.00    +0.000 C 
ATOM      5  N   UNL     1       5.047   5.094  17.974  0.00  0.00    +0.000 N 
ATOM      6  C   UNL     1       4.062   4.181  18.243  0.00  0.00    +0.000 A 
ATOM      7  N   UNL     1       4.369   3.148  19.052  0.00  0.00    +0.000 NA
ATOM      8  C   UNL     1       3.477   2.155  19.188  0.00  0.00    +0.000 A 
ATOM      9  C   UNL     1       2.274   2.140  18.542  0.00  0.00    +0.000 A 
ATOM     10  C   UNL     1       2.017   3.249  17.773  0.00  0.00    +0.000 A 
ATOM     11  N   UNL     1       2.878   4.279  17.624  0.00  0.00    +0.000 NA
ATOM     12  C   UNL     1       4.778   6.434  17.459  0.00  0.00    +0.000 C 
ATOM     13  C   UNL     1       5.917   6.933  16.511  0.00  0.00    +0.000 C 
ENDBRANCH   1   2
BRANCH   1  14
ATOM     14  C   UNL     1       8.056   8.914  17.661  0.00  0.00    +0.000 C 
BRANCH  14  15
ATOM     15  C   UNL     1       8.952   9.628  18.671  0.00  0.00    +0.000 C 
BRANCH  15  18
ATOM     16  O   UNL     1      11.141  11.204  17.846  0.00  0.00    +0.000 OA
ATOM     17  C   UNL     1      10.070  11.755  18.077  0.00  0.00    +0.000 C 
ATOM     18  N   UNL     1       8.938  11.074  18.477  0.00  0.00    +0.000 N 
ATOM     19  H   UNL     1       8.041  11.539  18.450  0.00  0.00    +0.000 HD
BRANCH  17  20
ATOM     20  C   UNL     1       9.944  13.224  17.894  0.00  0.00    +0.000 A 
ATOM     21  C   UNL     1       8.744  13.831  18.270  0.00  0.00    +0.000 A 
ATOM     22  C   UNL     1       8.605  15.190  18.062  0.00  0.00    +0.000 A 
ATOM     23  N   UNL     1       9.562  15.963  17.502  0.00  0.00    +0.000 NA
ATOM     24  C   UNL     1      10.707  15.350  17.136  0.00  0.00    +0.000 A 
ATOM     25  C   UNL     1      10.950  13.990  17.308  0.00  0.00    +0.000 A 
ENDBRANCH  17  20
ENDBRANCH  15  18
ENDBRANCH  14  15
ENDBRANCH   1  14
TORSDOF 5
ENDMDL
MODEL 6
REMARK VINA RESULT:      -7.5      0.901      1.047
REMARK  Name = 
REMARK  5 active torsions:
REMARK  status: ('A' for Active; 'I' for Inactive)
REMARK    1  A    between atoms: C_2  and  C_19
REMARK    2  A    between atoms: N_3  and  C_4
REMARK    3  A    between atoms: C_4  and  C_5
REMARK    4  A    between atoms: C_5  and  C_6
REMARK    5  A    between atoms: C_6  and  N_7
REMARK                            x       y       z     vdW  Elec       q    Type
REMARK                         _______ _______ _______ _____ _____    ______ ____
ROOT
ATOM      1  C   UNL     1       7.614   7.060  17.865  0.00  0.00    +0.000 C 
ENDROOT
BRANCH   1   2
ATOM      2  N   UNL     1       6.860   6.434  16.762  0.00  0.00    +0.000 NA
ATOM      3  C   UNL     1       6.756   4.965  16.894  0.00  0.00    +0.000 C 
ATOM      4  C   UNL     1       5.985   4.519  18.146  0.00  0.00    +0.000 C 
ATOM      5  N   UNL     1       4.628   5.037  18.061  0.00  0.00    +0.000 N 
ATOM      6  C   UNL     1       3.597   4.200  18.395  0.00  0.00    +0.000 A 
ATOM      7  N   UNL     1       3.905   3.041  19.010  0.00  0.00    +0.000 NA
ATOM      8  C   UNL     1       2.932   2.133  19.188  0.00  0.00    +0.000 A 
ATOM      9  C   UNL     1       1.646   2.328  18.770  0.00  0.00    +0.000 A 
ATOM     10  C   UNL     1       1.404   3.551  18.194  0.00  0.00    +0.000 A 
ATOM     11  N   UNL     1       2.348   4.500  18.014  0.00  0.00    +0.000 NA
ATOM     12  C   UNL     1       4.445   6.455  17.762  0.00  0.00    +0.000 C 
ATOM     13  C   UNL     1       5.464   6.961  16.690  0.00  0.00    +0.000 C 
ENDBRANCH   1   2
BRANCH   1  14
ATOM     14  C   UNL     1       7.918   8.563  17.697  0.00  0.00    +0.000 C 
BRANCH  14  15
ATOM     15  C   UNL     1       8.777   9.144  18.818  0.00  0.00    +0.000 C 
BRANCH  15  18
ATOM     16  O   UNL     1       9.531  11.051  20.755  0.00  0.00    +0.000 OA
ATOM     17  C   UNL     1       9.493  11.388  19.576  0.00  0.00    +0.000 C 
ATOM     18  N   UNL     1       9.146  10.530  18.553  0.00  0.00    +0.000 N 
ATOM     19  H   UNL     1       9.333  10.795  17.595  0.00  0.00    +0.000 HD
BRANCH  17  20
ATOM     20  C   UNL     1       9.868  12.775  19.196  0.00  0.00    +0.000 A 
ATOM     21  C   UNL     1      10.724  13.479  20.047  0.00  0.00    +0.000 A 
ATOM     22  C   UNL     1      11.041  14.783  19.721  0.00  0.00    +0.000 A 
ATOM     23  N   UNL     1      10.559  15.421  18.632  0.00  0.00    +0.000 NA
ATOM     24  C   UNL     1       9.724  14.724  17.834  0.00  0.00    +0.000 A 
ATOM     25  C   UNL     1       9.347  13.405  18.067  0.00  0.00    +0.000 A 
ENDBRANCH  17  20
ENDBRANCH  15  18
ENDBRANCH  14  15
ENDBRANCH   1  14
TORSDOF 5
ENDMDL
MODEL 7
REMARK VINA RESULT:      -7.4      4.706      8.157
REMARK  Name = 
REMARK  5 active torsions:
REMARK  status: ('A' for Active; 'I' for Inactive)
REMARK    1  A    between atoms: C_2  and  C_19
REMARK    2  A    between atoms: N_3  and  C_4
REMARK    3  A    between atoms: C_4  and  C_5
REMARK    4  A    between atoms: C_5  and  C_6
REMARK    5  A    between atoms: C_6  and  N_7
REMARK                            x       y       z     vdW  Elec       q    Type
REMARK                         _______ _______ _______ _____ _____    ______ ____
ROOT
ATOM      1  C   UNL     1       1.655   2.744  18.172  0.00  0.00    +0.000 C 
ENDROOT
BRANCH   1   2
ATOM      2  N   UNL     1       2.990   2.285  17.745  0.00  0.00    +0.000 NA
ATOM      3  C   UNL     1       3.610   3.170  16.736  0.00  0.00    +0.000 C 
ATOM      4  C   UNL     1       3.875   4.593  17.253  0.00  0.00    +0.000 C 
ATOM      5  N   UNL     1       4.798   4.512  18.374  0.00  0.00    +0.000 N 
ATOM      6  C   UNL     1       5.825   5.416  18.430  0.00  0.00    +0.000 A 
ATOM      7  N   UNL     1       5.779   6.467  17.589  0.00  0.00    +0.000 NA
ATOM      8  C   UNL     1       6.855   7.266  17.505  0.00  0.00    +0.000 A 
ATOM      9  C   UNL     1       7.994   7.060  18.229  0.00  0.00    +0.000 A 
ATOM     10  C   UNL     1       7.945   5.995  19.095  0.00  0.00    +0.000 A 
ATOM     11  N   UNL     1       6.877   5.179  19.225  0.00  0.00    +0.000 NA
ATOM     12  C   UNL     1       4.503   3.567  19.449  0.00  0.00    +0.000 C 
ATOM     13  C   UNL     1       3.936   2.218  18.900  0.00  0.00    +0.000 C 
ENDBRANCH   1   2
BRANCH   1  14
ATOM     14  C   UNL     1       1.082   2.058  19.429  0.00  0.00    +0.000 C 
BRANCH  14  15
ATOM     15  C   UNL     1       0.900   3.003  20.615  0.00  0.00    +0.000 C 
BRANCH  15  18
ATOM     16  O   UNL     1       2.595   5.047  21.567  0.00  0.00    +0.000 OA
ATOM     17  C   UNL     1       1.745   5.326  20.729  0.00  0.00    +0.000 C 
ATOM     18  N   UNL     1       0.874   4.399  20.194  0.00  0.00    +0.000 N 
ATOM     19  H   UNL     1       0.343   4.634  19.366  0.00  0.00    +0.000 HD
BRANCH  17  20
ATOM     20  C   UNL     1       1.645   6.719  20.220  0.00  0.00    +0.000 A 
ATOM     21  C   UNL     1       2.218   7.005  18.978  0.00  0.00    +0.000 A 
ATOM     22  C   UNL     1       2.166   8.306  18.519  0.00  0.00    +0.000 A 
ATOM     23  N   UNL     1       1.605   9.323  19.211  0.00  0.00    +0.000 NA
ATOM     24  C   UNL     1       1.072   9.023  20.414  0.00  0.00    +0.000 A 
ATOM     25  C   UNL     1       1.064   7.744  20.963  0.00  0.00    +0.000 A 
ENDBRANCH  17  20
ENDBRANCH  15  18
ENDBRANCH  14  15
ENDBRANCH   1  14
TORSDOF 5
ENDMDL
MODEL 8
REMARK VINA RESULT:      -7.3      1.467      1.784
REMARK  Name = 
REMARK  5 active torsions:
REMARK  status: ('A' for Active; 'I' for Inactive)
REMARK    1  A    between atoms: C_2  and  C_19
REMARK    2  A    between atoms: N_3  and  C_4
REMARK    3  A    between atoms: C_4  and  C_5
REMARK    4  A    between atoms: C_5  and  C_6
REMARK    5  A    between atoms: C_6  and  N_7
REMARK                            x       y       z     vdW  Elec       q    Type
REMARK                         _______ _______ _______ _____ _____    ______ ____
ROOT
ATOM      1  C   UNL     1       6.960   6.619  16.995  0.00  0.00    +0.000 C 
ENDROOT
BRANCH   1   2
ATOM      2  N   UNL     1       6.990   5.235  17.506  0.00  0.00    +0.000 NA
ATOM      3  C   UNL     1       6.610   5.136  18.931  0.00  0.00    +0.000 C 
ATOM      4  C   UNL     1       5.165   5.583  19.208  0.00  0.00    +0.000 C 
ATOM      5  N   UNL     1       4.264   4.716  18.465  0.00  0.00    +0.000 N 
ATOM      6  C   UNL     1       3.145   4.253  19.102  0.00  0.00    +0.000 A 
ATOM      7  N   UNL     1       2.818   4.815  20.283  0.00  0.00    +0.000 NA
ATOM      8  C   UNL     1       1.831   4.260  21.004  0.00  0.00    +0.000 A 
ATOM      9  C   UNL     1       1.146   3.150  20.599  0.00  0.00    +0.000 A 
ATOM     10  C   UNL     1       1.507   2.665  19.366  0.00  0.00    +0.000 A 
ATOM     11  N   UNL     1       2.480   3.204  18.600  0.00  0.00    +0.000 NA
ATOM     12  C   UNL     1       4.524   4.501  17.044  0.00  0.00    +0.000 C 
ATOM     13  C   UNL     1       6.052   4.355  16.747  0.00  0.00    +0.000 C 
ENDBRANCH   1   2
BRANCH   1  14
ATOM     14  C   UNL     1       7.997   7.581  17.611  0.00  0.00    +0.000 C 
BRANCH  14  15
ATOM     15  C   UNL     1       7.498   9.018  17.743  0.00  0.00    +0.000 C 
BRANCH  15  18
ATOM     16  O   UNL     1       8.811   9.953  20.057  0.00  0.00    +0.000 OA
ATOM     17  C   UNL     1       9.171  10.373  18.963  0.00  0.00    +0.000 C 
ATOM     18  N   UNL     1       8.600   9.973  17.772  0.00  0.00    +0.000 N 
ATOM     19  H   UNL     1       9.067  10.184  16.901  0.00  0.00    +0.000 HD
BRANCH  17  20
ATOM     20  C   UNL     1      10.299  11.337  18.881  0.00  0.00    +0.000 A 
ATOM     21  C   UNL     1      10.606  12.085  20.021  0.00  0.00    +0.000 A 
ATOM     22  C   UNL     1      11.625  13.013  19.937  0.00  0.00    +0.000 A 
ATOM     23  N   UNL     1      12.333  13.249  18.811  0.00  0.00    +0.000 NA
ATOM     24  C   UNL     1      12.008  12.523  17.721  0.00  0.00    +0.000 A 
ATOM     25  C   UNL     1      11.005  11.559  17.700  0.00  0.00    +0.000 A 
ENDBRANCH  17  20
ENDBRANCH  15  18
ENDBRANCH  14  15
ENDBRANCH   1  14
TORSDOF 5
ENDMDL
MODEL 9
REMARK VINA RESULT:      -7.3      5.703      7.313
REMARK  Name = 
REMARK  5 active torsions:
REMARK  status: ('A' for Active; 'I' for Inactive)
REMARK    1  A    between atoms: C_2  and  C_19
REMARK    2  A    between atoms: N_3  and  C_4
REMARK    3  A    between atoms: C_4  and  C_5
REMARK    4  A    between atoms: C_5  and  C_6
REMARK    5  A    between atoms: C_6  and  N_7
REMARK                            x       y       z     vdW  Elec       q    Type
REMARK                         _______ _______ _______ _____ _____    ______ ____
ROOT
ATOM      1  C   UNL     1       4.827   4.114  19.024  0.00  0.00    +0.000 C 
ENDROOT
BRANCH   1   2
ATOM      2  N   UNL     1       3.597   4.402  18.264  0.00  0.00    +0.000 NA
ATOM      3  C   UNL     1       2.393   4.474  19.118  0.00  0.00    +0.000 C 
ATOM      4  C   UNL     1       2.445   5.614  20.149  0.00  0.00    +0.000 C 
ATOM      5  N   UNL     1       2.539   6.877  19.435  0.00  0.00    +0.000 N 
ATOM      6  C   UNL     1       1.760   7.918  19.864  0.00  0.00    +0.000 A 
ATOM      7  N   UNL     1       1.144   7.791  21.055  0.00  0.00    +0.000 NA
ATOM      8  C   UNL     1       0.242   8.719  21.412  0.00  0.00    +0.000 A 
ATOM      9  C   UNL     1      -0.083   9.784  20.621  0.00  0.00    +0.000 A 
ATOM     10  C   UNL     1       0.621   9.868  19.445  0.00  0.00    +0.000 A 
ATOM     11  N   UNL     1       1.550   8.968  19.057  0.00  0.00    +0.000 NA
ATOM     12  C   UNL     1       3.555   7.012  18.394  0.00  0.00    +0.000 C 
ATOM     13  C   UNL     1       3.695   5.707  17.544  0.00  0.00    +0.000 C 
ENDBRANCH   1   2
BRANCH   1  14
ATOM     14  C   UNL     1       5.958   5.155  18.886  0.00  0.00    +0.000 C 
BRANCH  14  15
ATOM     15  C   UNL     1       7.224   4.603  18.235  0.00  0.00    +0.000 C 
BRANCH  15  18
ATOM     16  O   UNL     1       7.449   6.376  16.052  0.00  0.00    +0.000 OA
ATOM     17  C   UNL     1       7.135   5.211  15.838  0.00  0.00    +0.000 C 
ATOM     18  N   UNL     1       7.007   4.264  16.833  0.00  0.00    +0.000 N 
ATOM     19  H   UNL     1       6.954   3.285  16.586  0.00  0.00    +0.000 HD
BRANCH  17  20
ATOM     20  C   UNL     1       6.908   4.756  14.440  0.00  0.00    +0.000 A 
ATOM     21  C   UNL     1       5.856   3.868  14.204  0.00  0.00    +0.000 A 
ATOM     22  C   UNL     1       5.667   3.409  12.914  0.00  0.00    +0.000 A 
ATOM     23  N   UNL     1       6.451   3.761  11.872  0.00  0.00    +0.000 NA
ATOM     24  C   UNL     1       7.468   4.610  12.130  0.00  0.00    +0.000 A 
ATOM     25  C   UNL     1       7.740   5.135  13.390  0.00  0.00    +0.000 A 
ENDBRANCH  17  20
ENDBRANCH  15  18
ENDBRANCH  14  15
ENDBRANCH   1  14
TORSDOF 5
ENDMDL
