MODEL 1
REMARK VINA RESULT:      -7.8      0.000      0.000
REMARK  Name = 
REMARK  7 active torsions:
REMARK  status: ('A' for Active; 'I' for Inactive)
REMARK    1  A    between atoms: C_1  and  O_2
REMARK    2  A    between atoms: O_2  and  C_3
REMARK    3  A    between atoms: C_9  and  C_10
REMARK    4  A    between atoms: C_16  and  C_17
REMARK    5  A    between atoms: N_20  and  C_21
REMARK    6  A    between atoms: C_21  and  C_22
REMARK    7  A    between atoms: C_22  and  N_23
REMARK                            x       y       z     vdW  Elec       q    Type
REMARK                         _______ _______ _______ _____ _____    ______ ____
ROOT
ATOM      1  C   UNL     1       3.765   4.366  18.972  0.00  0.00    +0.000 A 
ATOM      2  C   UNL     1       3.412   3.146  19.578  0.00  0.00    +0.000 A 
ATOM      3  C   UNL     1       2.423   3.102  20.553  0.00  0.00    +0.000 A 
ATOM      4  N   UNL     1       1.750   4.164  21.036  0.00  0.00    +0.000 NA
ATOM      5  C   UNL     1       2.117   5.318  20.452  0.00  0.00    +0.000 A 
ATOM      6  N   UNL     1       1.592   6.532  20.789  0.00  0.00    +0.000 N 
ATOM      7  C   UNL     1       2.150   7.521  20.013  0.00  0.00    +0.000 A 
ATOM      8  C   UNL     1       3.034   6.900  19.151  0.00  0.00    +0.000 A 
ATOM      9  C   UNL     1       3.060   5.504  19.445  0.00  0.00    +0.000 A 
ATOM     10  H   UNL     1       0.894   6.658  21.509  0.00  0.00    +0.000 HD
ENDROOT
BRANCH   1  17
ATOM     11  C   UNL     1       6.161   4.767  18.160  0.00  0.00    +0.000 A 
ATOM     12  C   UNL     1       7.099   4.797  17.110  0.00  0.00    +0.000 A 
ATOM     13  C   UNL     1       6.701   4.560  15.796  0.00  0.00    +0.000 A 
ATOM     14  C   UNL     1       5.369   4.320  15.529  0.00  0.00    +0.000 A 
ATOM     15  F   UNL     1       4.980   4.079  14.270  0.00  0.00    +0.000 F 
ATOM     16  C   UNL     1       4.426   4.310  16.551  0.00  0.00    +0.000 A 
ATOM     17  C   UNL     1       4.793   4.484  17.901  0.00  0.00    +0.000 A 
BRANCH  11  19
ATOM     18  C   UNL     1       7.759   5.660  19.671  0.00  0.00    +0.000 C 
ATOM     19  O   UNL     1       6.549   4.936  19.469  0.00  0.00    +0.000 OA
ENDBRANCH  11  19
ENDBRANCH   1  17
BRANCH   7  20
ATOM     20  C   UNL     1       1.815   8.977  20.133  0.00  0.00    +0.000 C 
ATOM     21  C   UNL     1       1.031   9.283  21.401  0.00  0.00    +0.000 C 
ATOM     22  C   UNL     1      -0.410   9.153  20.952  0.00  0.00    +0.000 C 
ATOM     23  N   UNL     1      -0.451   9.675  19.573  0.00  0.00    +0.000 NA
ATOM     24  C   UNL     1       0.915   9.508  19.016  0.00  0.00    +0.000 C 
BRANCH  23  25
ATOM     25  C   UNL     1      -0.861  11.093  19.562  0.00  0.00    +0.000 C 
BRANCH  25  26
ATOM     26  C   UNL     1      -1.911  11.410  18.474  0.00  0.00    +0.000 C 
BRANCH  26  27
ATOM     27  N   UNL     1      -1.392  12.361  17.490  0.00  0.00    +0.000 NA
ATOM     28  H   UNL     1      -0.866  13.088  17.973  0.00  0.00    +0.000 HD
ATOM     29  H   UNL     1      -2.178  12.830  17.042  0.00  0.00    +0.000 HD
ENDBRANCH  26  27
ENDBRANCH  25  26
ENDBRANCH  23  25
ENDBRANCH   7  20
TORSDOF 6
ENDMDL
MODEL 2
REMARK VINA RESULT:      -7.8      1.086      1.181
REMARK  Name = 
REMARK  7 active torsions:
REMARK  status: ('A' for Active; 'I' for Inactive)
REMARK    1  A    between atoms: C_1  and  O_2
REMARK    2  A    between atoms: O_2  and  C_3
REMARK    3  A    between atoms: C_9  and  C_10
REMARK    4  A    between atoms: C_16  and  C_17
REMARK    5  A    between atoms: N_20  and  C_21
REMARK    6  A    between atoms: C_21  and  C_22
REMARK    7  A    between atoms: C_22  and  N_23
REMARK                            x       y       z     vdW  Elec       q    Type
REMARK                         _______ _______ _______ _____ _____    ______ ____
ROOT
ATOM      1  C   UNL     1       3.634   4.053  18.548  0.00  0.00    +0.000 A 
ATOM      2  C   UNL     1       3.164   2.772  18.894  0.00  0.00    +0.000 A 
ATOM      3  C   UNL     1       2.121   2.624  19.799  0.00  0.00    +0.000 A 
ATOM      4  N   UNL     1       1.494   3.626  20.446  0.00  0.00    +0.000 NA
ATOM      5  C   UNL     1       1.973   4.836  20.110  0.00  0.00    +0.000 A 
ATOM      6  N   UNL     1       1.512   6.002  20.649  0.00  0.00    +0.000 N 
ATOM      7  C   UNL     1       2.180   7.073  20.101  0.00  0.00    +0.000 A 
ATOM      8  C   UNL     1       3.068   6.558  19.176  0.00  0.00    +0.000 A 
ATOM      9  C   UNL     1       2.982   5.133  19.199  0.00  0.00    +0.000 A 
ATOM     10  H   UNL     1       0.784   6.045  21.349  0.00  0.00    +0.000 HD
ENDROOT
BRANCH   1  17
ATOM     11  C   UNL     1       6.059   4.613  17.942  0.00  0.00    +0.000 A 
ATOM     12  C   UNL     1       7.065   4.755  16.968  0.00  0.00    +0.000 A 
ATOM     13  C   UNL     1       6.772   4.592  15.615  0.00  0.00    +0.000 A 
ATOM     14  C   UNL     1       5.475   4.315  15.236  0.00  0.00    +0.000 A 
ATOM     15  F   UNL     1       5.187   4.144  13.939  0.00  0.00    +0.000 F 
ATOM     16  C   UNL     1       4.464   4.194  16.184  0.00  0.00    +0.000 A 
ATOM     17  C   UNL     1       4.728   4.289  17.566  0.00  0.00    +0.000 A 
BRANCH  11  19
ATOM     18  C   UNL     1       7.396   5.603  19.634  0.00  0.00    +0.000 C 
ATOM     19  O   UNL     1       6.345   4.706  19.284  0.00  0.00    +0.000 OA
ENDBRANCH  11  19
ENDBRANCH   1  17
BRANCH   7  20
ATOM     20  C   UNL     1       1.938   8.503  20.483  0.00  0.00    +0.000 C 
ATOM     21  C   UNL     1       1.225   8.627  21.821  0.00  0.00    +0.000 C 
ATOM     22  C   UNL     1      -0.238   8.652  21.427  0.00  0.00    +0.000 C 
ATOM     23  N   UNL     1      -0.301   9.405  20.160  0.00  0.00    +0.000 NA
ATOM     24  C   UNL     1       1.030   9.265  19.517  0.00  0.00    +0.000 C 
BRANCH  23  25
ATOM     25  C   UNL     1      -0.625  10.823  20.409  0.00  0.00    +0.000 C 
BRANCH  25  26
ATOM     26  C   UNL     1       0.516  11.783  20.008  0.00  0.00    +0.000 C 
BRANCH  26  27
ATOM     27  N   UNL     1       1.138  12.398  21.182  0.00  0.00    +0.000 NA
ATOM     28  H   UNL     1       0.426  12.898  21.714  0.00  0.00    +0.000 HD
ATOM     29  H   UNL     1       1.805  13.102  20.870  0.00  0.00    +0.000 HD
ENDBRANCH  26  27
ENDBRANCH  25  26
ENDBRANCH  23  25
ENDBRANCH   7  20
TORSDOF 6
ENDMDL
MODEL 3
REMARK VINA RESULT:      -7.3      1.355      1.588
REMARK  Name = 
REMARK  7 active torsions:
REMARK  status: ('A' for Active; 'I' for Inactive)
REMARK    1  A    between atoms: C_1  and  O_2
REMARK    2  A    between atoms: O_2  and  C_3
REMARK    3  A    between atoms: C_9  and  C_10
REMARK    4  A    between atoms: C_16  and  C_17
REMARK    5  A    between atoms: N_20  and  C_21
REMARK    6  A    between atoms: C_21  and  C_22
REMARK    7  A    between atoms: C_22  and  N_23
REMARK                            x       y       z     vdW  Elec       q    Type
REMARK                         _______ _______ _______ _____ _____    ______ ____
ROOT
ATOM      1  C   UNL     1       4.186   5.387  18.231  0.00  0.00    +0.000 A 
ATOM      2  C   UNL     1       4.072   4.415  19.242  0.00  0.00    +0.000 A 
ATOM      3  C   UNL     1       3.123   4.551  20.248  0.00  0.00    +0.000 A 
ATOM      4  N   UNL     1       2.275   5.587  20.392  0.00  0.00    +0.000 NA
ATOM      5  C   UNL     1       2.416   6.508  19.424  0.00  0.00    +0.000 A 
ATOM      6  N   UNL     1       1.682   7.658  19.367  0.00  0.00    +0.000 N 
ATOM      7  C   UNL     1       2.037   8.392  18.259  0.00  0.00    +0.000 A 
ATOM      8  C   UNL     1       3.006   7.666  17.593  0.00  0.00    +0.000 A 
ATOM      9  C   UNL     1       3.292   6.484  18.342  0.00  0.00    +0.000 A 
ATOM     10  H   UNL     1       0.985   7.910  20.053  0.00  0.00    +0.000 HD
ENDROOT
BRANCH   1  17
ATOM     11  C   UNL     1       6.475   5.821  17.167  0.00  0.00    +0.000 A 
ATOM     12  C   UNL     1       7.371   5.638  16.097  0.00  0.00    +0.000 A 
ATOM     13  C   UNL     1       6.979   4.946  14.954  0.00  0.00    +0.000 A 
ATOM     14  C   UNL     1       5.691   4.461  14.868  0.00  0.00    +0.000 A 
ATOM     15  F   UNL     1       5.310   3.783  13.778  0.00  0.00    +0.000 F 
ATOM     16  C   UNL     1       4.786   4.653  15.908  0.00  0.00    +0.000 A 
ATOM     17  C   UNL     1       5.158   5.293  17.107  0.00  0.00    +0.000 A 
BRANCH  11  19
ATOM     18  C   UNL     1       7.721   5.690  19.183  0.00  0.00    +0.000 C 
ATOM     19  O   UNL     1       6.867   6.446  18.328  0.00  0.00    +0.000 OA
ENDBRANCH  11  19
ENDBRANCH   1  17
BRANCH   7  20
ATOM     20  C   UNL     1       1.443   9.721  17.902  0.00  0.00    +0.000 C 
ATOM     21  C   UNL     1       1.861  10.816  18.873  0.00  0.00    +0.000 C 
ATOM     22  C   UNL     1       0.762  10.785  19.915  0.00  0.00    +0.000 C 
ATOM     23  N   UNL     1      -0.483  10.488  19.181  0.00  0.00    +0.000 NA
ATOM     24  C   UNL     1      -0.085   9.759  17.950  0.00  0.00    +0.000 C 
BRANCH  23  25
ATOM     25  C   UNL     1      -1.205  11.733  18.852  0.00  0.00    +0.000 C 
BRANCH  25  26
ATOM     26  C   UNL     1      -2.015  11.633  17.540  0.00  0.00    +0.000 C 
BRANCH  26  27
ATOM     27  N   UNL     1      -3.403  12.056  17.733  0.00  0.00    +0.000 NA
ATOM     28  H   UNL     1      -4.025  11.356  17.329  0.00  0.00    +0.000 HD
ATOM     29  H   UNL     1      -3.561  12.914  17.208  0.00  0.00    +0.000 HD
ENDBRANCH  26  27
ENDBRANCH  25  26
ENDBRANCH  23  25
ENDBRANCH   7  20
TORSDOF 6
ENDMDL
MODEL 4
REMARK VINA RESULT:      -7.2      1.299      1.624
REMARK  Name = 
REMARK  7 active torsions:
REMARK  status: ('A' for Active; 'I' for Inactive)
REMARK    1  A    between atoms: C_1  and  O_2
REMARK    2  A    between atoms: O_2  and  C_3
REMARK    3  A    between atoms: C_9  and  C_10
REMARK    4  A    between atoms: C_16  and  C_17
REMARK    5  A    between atoms: N_20  and  C_21
REMARK    6  A    between atoms: C_21  and  C_22
REMARK    7  A    between atoms: C_22  and  N_23
REMARK                            x       y       z     vdW  Elec       q    Type
REMARK                         _______ _______ _______ _____ _____    ______ ____
ROOT
ATOM      1  C   UNL     1       3.885   5.327  18.743  0.00  0.00    +0.000 A 
ATOM      2  C   UNL     1       3.610   4.448  19.808  0.00  0.00    +0.000 A 
ATOM      3  C   UNL     1       2.587   4.727  20.706  0.00  0.00    +0.000 A 
ATOM      4  N   UNL     1       1.806   5.825  20.691  0.00  0.00    +0.000 NA
ATOM      5  C   UNL     1       2.101   6.654  19.675  0.00  0.00    +0.000 A 
ATOM      6  N   UNL     1       1.462   7.841  19.464  0.00  0.00    +0.000 N 
ATOM      7  C   UNL     1       1.968   8.459  18.344  0.00  0.00    +0.000 A 
ATOM      8  C   UNL     1       2.937   7.620  17.830  0.00  0.00    +0.000 A 
ATOM      9  C   UNL     1       3.068   6.486  18.688  0.00  0.00    +0.000 A 
ATOM     10  H   UNL     1       0.725   8.192  20.060  0.00  0.00    +0.000 HD
ENDROOT
BRANCH   1  17
ATOM     11  C   UNL     1       6.333   5.072  18.033  0.00  0.00    +0.000 A 
ATOM     12  C   UNL     1       7.284   4.762  17.043  0.00  0.00    +0.000 A 
ATOM     13  C   UNL     1       6.883   4.468  15.741  0.00  0.00    +0.000 A 
ATOM     14  C   UNL     1       5.541   4.508  15.424  0.00  0.00    +0.000 A 
ATOM     15  F   UNL     1       5.146   4.214  14.179  0.00  0.00    +0.000 F 
ATOM     16  C   UNL     1       4.590   4.835  16.386  0.00  0.00    +0.000 A 
ATOM     17  C   UNL     1       4.946   5.079  17.728  0.00  0.00    +0.000 A 
BRANCH  11  19
ATOM     18  C   UNL     1       8.070   5.672  19.536  0.00  0.00    +0.000 C 
ATOM     19  O   UNL     1       6.708   5.302  19.336  0.00  0.00    +0.000 OA
ENDBRANCH  11  19
ENDBRANCH   1  17
BRANCH   7  20
ATOM     20  C   UNL     1       1.507   9.792  17.835  0.00  0.00    +0.000 C 
ATOM     21  C   UNL     1       2.071  10.945  18.652  0.00  0.00    +0.000 C 
ATOM     22  C   UNL     1       1.011  11.163  19.712  0.00  0.00    +0.000 C 
ATOM     23  N   UNL     1      -0.283  10.917  19.046  0.00  0.00    +0.000 NA
ATOM     24  C   UNL     1      -0.006  10.002  17.909  0.00  0.00    +0.000 C 
BRANCH  23  25
ATOM     25  C   UNL     1      -0.879  12.183  18.578  0.00  0.00    +0.000 C 
BRANCH  25  26
ATOM     26  C   UNL     1      -0.646  13.358  19.553  0.00  0.00    +0.000 C 
BRANCH  26  27
ATOM     27  N   UNL     1      -0.759  14.650  18.873  0.00  0.00    +0.000 NA
ATOM     28  H   UNL     1       0.162  14.935  18.544  0.00  0.00    +0.000 HD
ATOM     29  H   UNL     1      -1.049  15.352  19.551  0.00  0.00    +0.000 HD
ENDBRANCH  26  27
ENDBRANCH  25  26
ENDBRANCH  23  25
ENDBRANCH   7  20
TORSDOF 6
ENDMDL
MODEL 5
REMARK VINA RESULT:      -7.0      1.756      2.342
REMARK  Name = 
REMARK  7 active torsions:
REMARK  status: ('A' for Active; 'I' for Inactive)
REMARK    1  A    between atoms: C_1  and  O_2
REMARK    2  A    between atoms: O_2  and  C_3
REMARK    3  A    between atoms: C_9  and  C_10
REMARK    4  A    between atoms: C_16  and  C_17
REMARK    5  A    between atoms: N_20  and  C_21
REMARK    6  A    between atoms: C_21  and  C_22
REMARK    7  A    between atoms: C_22  and  N_23
REMARK                            x       y       z     vdW  Elec       q    Type
REMARK                         _______ _______ _______ _____ _____    ______ ____
ROOT
ATOM      1  C   UNL     1       3.617   5.404  19.021  0.00  0.00    +0.000 A 
ATOM      2  C   UNL     1       3.406   4.470  20.052  0.00  0.00    +0.000 A 
ATOM      3  C   UNL     1       2.449   4.704  21.031  0.00  0.00    +0.000 A 
ATOM      4  N   UNL     1       1.680   5.805  21.131  0.00  0.00    +0.000 NA
ATOM      5  C   UNL     1       1.914   6.689  20.145  0.00  0.00    +0.000 A 
ATOM      6  N   UNL     1       1.273   7.890  20.044  0.00  0.00    +0.000 N 
ATOM      7  C   UNL     1       1.709   8.566  18.927  0.00  0.00    +0.000 A 
ATOM      8  C   UNL     1       2.632   7.751  18.303  0.00  0.00    +0.000 A 
ATOM      9  C   UNL     1       2.809   6.570  19.085  0.00  0.00    +0.000 A 
ATOM     10  H   UNL     1       0.583   8.211  20.707  0.00  0.00    +0.000 HD
ENDROOT
BRANCH   1  17
ATOM     11  C   UNL     1       4.440   4.248  16.888  0.00  0.00    +0.000 A 
ATOM     12  C   UNL     1       5.374   4.157  15.839  0.00  0.00    +0.000 A 
ATOM     13  C   UNL     1       6.483   5.000  15.802  0.00  0.00    +0.000 A 
ATOM     14  C   UNL     1       6.672   5.910  16.820  0.00  0.00    +0.000 A 
ATOM     15  F   UNL     1       7.729   6.732  16.786  0.00  0.00    +0.000 F 
ATOM     16  C   UNL     1       5.771   5.996  17.877  0.00  0.00    +0.000 A 
ATOM     17  C   UNL     1       4.603   5.207  17.923  0.00  0.00    +0.000 A 
BRANCH  11  19
ATOM     18  C   UNL     1       3.455   2.168  17.471  0.00  0.00    +0.000 C 
ATOM     19  O   UNL     1       3.307   3.468  16.906  0.00  0.00    +0.000 OA
ENDBRANCH  11  19
ENDBRANCH   1  17
BRANCH   7  20
ATOM     20  C   UNL     1       1.227   9.928  18.526  0.00  0.00    +0.000 C 
ATOM     21  C   UNL     1       1.010  10.837  19.726  0.00  0.00    +0.000 C 
ATOM     22  C   UNL     1      -0.445  10.602  20.075  0.00  0.00    +0.000 C 
ATOM     23  N   UNL     1      -1.144  10.421  18.788  0.00  0.00    +0.000 NA
ATOM     24  C   UNL     1      -0.129   9.931  17.820  0.00  0.00    +0.000 C 
BRANCH  23  25
ATOM     25  C   UNL     1      -1.741  11.693  18.334  0.00  0.00    +0.000 C 
BRANCH  25  26
ATOM     26  C   UNL     1      -2.949  11.491  17.392  0.00  0.00    +0.000 C 
BRANCH  26  27
ATOM     27  N   UNL     1      -2.548  11.555  15.985  0.00  0.00    +0.000 NA
ATOM     28  H   UNL     1      -3.277  11.133  15.411  0.00  0.00    +0.000 HD
ATOM     29  H   UNL     1      -1.716  10.983  15.855  0.00  0.00    +0.000 HD
ENDBRANCH  26  27
ENDBRANCH  25  26
ENDBRANCH  23  25
ENDBRANCH   7  20
TORSDOF 6
ENDMDL
MODEL 6
REMARK VINA RESULT:      -6.8      1.955      2.632
REMARK  Name = 
REMARK  7 active torsions:
REMARK  status: ('A' for Active; 'I' for Inactive)
REMARK    1  A    between atoms: C_1  and  O_2
REMARK    2  A    between atoms: O_2  and  C_3
REMARK    3  A    between atoms: C_9  and  C_10
REMARK    4  A    between atoms: C_16  and  C_17
REMARK    5  A    between atoms: N_20  and  C_21
REMARK    6  A    between atoms: C_21  and  C_22
REMARK    7  A    between atoms: C_22  and  N_23
REMARK                            x       y       z     vdW  Elec       q    Type
REMARK                         _______ _______ _______ _____ _____    ______ ____
ROOT
ATOM      1  C   UNL     1       3.595   5.655  18.938  0.00  0.00    +0.000 A 
ATOM      2  C   UNL     1       3.359   4.822  20.048  0.00  0.00    +0.000 A 
ATOM      3  C   UNL     1       2.384   5.151  20.981  0.00  0.00    +0.000 A 
ATOM      4  N   UNL     1       1.619   6.260  20.960  0.00  0.00    +0.000 NA
ATOM      5  C   UNL     1       1.877   7.045  19.900  0.00  0.00    +0.000 A 
ATOM      6  N   UNL     1       1.245   8.234  19.674  0.00  0.00    +0.000 N 
ATOM      7  C   UNL     1       1.706   8.800  18.507  0.00  0.00    +0.000 A 
ATOM      8  C   UNL     1       2.638   7.926  17.981  0.00  0.00    +0.000 A 
ATOM      9  C   UNL     1       2.793   6.824  18.876  0.00  0.00    +0.000 A 
ATOM     10  H   UNL     1       0.543   8.619  20.289  0.00  0.00    +0.000 HD
ENDROOT
BRANCH   1  17
ATOM     11  C   UNL     1       4.437   4.323  16.918  0.00  0.00    +0.000 A 
ATOM     12  C   UNL     1       5.394   4.131  15.903  0.00  0.00    +0.000 A 
ATOM     13  C   UNL     1       6.527   4.939  15.834  0.00  0.00    +0.000 A 
ATOM     14  C   UNL     1       6.717   5.916  16.789  0.00  0.00    +0.000 A 
ATOM     15  F   UNL     1       7.797   6.705  16.723  0.00  0.00    +0.000 F 
ATOM     16  C   UNL     1       5.793   6.104  17.812  0.00  0.00    +0.000 A 
ATOM     17  C   UNL     1       4.603   5.352  17.884  0.00  0.00    +0.000 A 
BRANCH  11  19
ATOM     18  C   UNL     1       3.395   2.293  17.567  0.00  0.00    +0.000 C 
ATOM     19  O   UNL     1       3.282   3.577  16.961  0.00  0.00    +0.000 OA
ENDBRANCH  11  19
ENDBRANCH   1  17
BRANCH   7  20
ATOM     20  C   UNL     1       1.240  10.119  17.969  0.00  0.00    +0.000 C 
ATOM     21  C   UNL     1       1.834  11.293  18.734  0.00  0.00    +0.000 C 
ATOM     22  C   UNL     1       0.806  11.553  19.815  0.00  0.00    +0.000 C 
ATOM     23  N   UNL     1      -0.507  11.296  19.192  0.00  0.00    +0.000 NA
ATOM     24  C   UNL     1      -0.268  10.344  18.078  0.00  0.00    +0.000 C 
BRANCH  23  25
ATOM     25  C   UNL     1      -1.108  12.551  18.701  0.00  0.00    +0.000 C 
BRANCH  25  26
ATOM     26  C   UNL     1      -0.679  13.788  19.521  0.00  0.00    +0.000 C 
BRANCH  26  27
ATOM     27  N   UNL     1      -0.513  14.966  18.668  0.00  0.00    +0.000 NA
ATOM     28  H   UNL     1       0.332  14.857  18.108  0.00  0.00    +0.000 HD
ATOM     29  H   UNL     1      -0.359  15.780  19.260  0.00  0.00    +0.000 HD
ENDBRANCH  26  27
ENDBRANCH  25  26
ENDBRANCH  23  25
ENDBRANCH   7  20
TORSDOF 6
ENDMDL
MODEL 7
REMARK VINA RESULT:      -6.7      3.946      8.200
REMARK  Name = 
REMARK  7 active torsions:
REMARK  status: ('A' for Active; 'I' for Inactive)
REMARK    1  A    between atoms: C_1  and  O_2
REMARK    2  A    between atoms: O_2  and  C_3
REMARK    3  A    between atoms: C_9  and  C_10
REMARK    4  A    between atoms: C_16  and  C_17
REMARK    5  A    between atoms: N_20  and  C_21
REMARK    6  A    between atoms: C_21  and  C_22
REMARK    7  A    between atoms: C_22  and  N_23
REMARK                            x       y       z     vdW  Elec       q    Type
REMARK                         _______ _______ _______ _____ _____    ______ ____
ROOT
ATOM      1  C   UNL     1       0.306  10.434  20.693  0.00  0.00    +0.000 A 
ATOM      2  C   UNL     1      -0.216  10.463  22.000  0.00  0.00    +0.000 A 
ATOM      3  C   UNL     1       0.004   9.403  22.871  0.00  0.00    +0.000 A 
ATOM      4  N   UNL     1       0.670   8.270  22.576  0.00  0.00    +0.000 NA
ATOM      5  C   UNL     1       1.142   8.261  21.318  0.00  0.00    +0.000 A 
ATOM      6  N   UNL     1       1.831   7.212  20.781  0.00  0.00    +0.000 N 
ATOM      7  C   UNL     1       2.198   7.499  19.486  0.00  0.00    +0.000 A 
ATOM      8  C   UNL     1       1.742   8.776  19.217  0.00  0.00    +0.000 A 
ATOM      9  C   UNL     1       1.029   9.260  20.356  0.00  0.00    +0.000 A 
ATOM     10  H   UNL     1       2.030   6.358  21.284  0.00  0.00    +0.000 HD
ENDROOT
BRANCH   1  17
ATOM     11  C   UNL     1      -0.876  11.558  18.717  0.00  0.00    +0.000 A 
ATOM     12  C   UNL     1      -1.031  12.669  17.868  0.00  0.00    +0.000 A 
ATOM     13  C   UNL     1      -0.188  13.772  17.982  0.00  0.00    +0.000 A 
ATOM     14  C   UNL     1       0.820  13.755  18.922  0.00  0.00    +0.000 A 
ATOM     15  F   UNL     1       1.627  14.817  19.048  0.00  0.00    +0.000 F 
ATOM     16  C   UNL     1       1.002  12.655  19.755  0.00  0.00    +0.000 A 
ATOM     17  C   UNL     1       0.134  11.544  19.716  0.00  0.00    +0.000 A 
BRANCH  11  19
ATOM     18  C   UNL     1      -1.994   9.963  17.360  0.00  0.00    +0.000 C 
ATOM     19  O   UNL     1      -1.740  10.489  18.660  0.00  0.00    +0.000 OA
ENDBRANCH  11  19
ENDBRANCH   1  17
BRANCH   7  20
ATOM     20  C   UNL     1       2.950   6.558  18.594  0.00  0.00    +0.000 C 
ATOM     21  C   UNL     1       2.027   5.576  17.888  0.00  0.00    +0.000 C 
ATOM     22  C   UNL     1       1.993   4.396  18.836  0.00  0.00    +0.000 C 
ATOM     23  N   UNL     1       3.351   4.296  19.405  0.00  0.00    +0.000 NA
ATOM     24  C   UNL     1       3.942   5.656  19.329  0.00  0.00    +0.000 C 
BRANCH  23  25
ATOM     25  C   UNL     1       4.163   3.320  18.653  0.00  0.00    +0.000 C 
BRANCH  25  26
ATOM     26  C   UNL     1       3.336   2.130  18.119  0.00  0.00    +0.000 C 
BRANCH  26  27
ATOM     27  N   UNL     1       3.938   0.848  18.490  0.00  0.00    +0.000 NA
ATOM     28  H   UNL     1       4.016   0.797  19.505  0.00  0.00    +0.000 HD
ATOM     29  H   UNL     1       4.890   0.817  18.130  0.00  0.00    +0.000 HD
ENDBRANCH  26  27
ENDBRANCH  25  26
ENDBRANCH  23  25
ENDBRANCH   7  20
TORSDOF 6
ENDMDL
MODEL 8
REMARK VINA RESULT:      -6.6      3.839      7.885
REMARK  Name = 
REMARK  7 active torsions:
REMARK  status: ('A' for Active; 'I' for Inactive)
REMARK    1  A    between atoms: C_1  and  O_2
REMARK    2  A    between atoms: O_2  and  C_3
REMARK    3  A    between atoms: C_9  and  C_10
REMARK    4  A    between atoms: C_16  and  C_17
REMARK    5  A    between atoms: N_20  and  C_21
REMARK    6  A    between atoms: C_21  and  C_22
REMARK    7  A    between atoms: C_22  and  N_23
REMARK                            x       y       z     vdW  Elec       q    Type
REMARK                         _______ _______ _______ _____ _____    ______ ____
ROOT
ATOM      1  C   UNL     1      -0.494  10.222  20.443  0.00  0.00    +0.000 A 
ATOM      2  C   UNL     1      -0.861  10.723  21.706  0.00  0.00    +0.000 A 
ATOM      3  C   UNL     1      -0.237  10.260  22.857  0.00  0.00    +0.000 A 
ATOM      4  N   UNL     1       0.712   9.304  22.906  0.00  0.00    +0.000 NA
ATOM      5  C   UNL     1       1.031   8.831  21.689  0.00  0.00    +0.000 A 
ATOM      6  N   UNL     1       1.950   7.843  21.484  0.00  0.00    +0.000 N 
ATOM      7  C   UNL     1       2.075   7.584  20.138  0.00  0.00    +0.000 A 
ATOM      8  C   UNL     1       1.223   8.454  19.485  0.00  0.00    +0.000 A 
ATOM      9  C   UNL     1       0.517   9.226  20.457  0.00  0.00    +0.000 A 
ATOM     10  H   UNL     1       2.453   7.385  22.231  0.00  0.00    +0.000 HD
ENDROOT
BRANCH   1  17
ATOM     11  C   UNL     1      -0.792  11.944  18.569  0.00  0.00    +0.000 A 
ATOM     12  C   UNL     1      -1.344  12.301  17.325  0.00  0.00    +0.000 A 
ATOM     13  C   UNL     1      -2.211  11.437  16.660  0.00  0.00    +0.000 A 
ATOM     14  C   UNL     1      -2.547  10.235  17.246  0.00  0.00    +0.000 A 
ATOM     15  F   UNL     1      -3.370   9.393  16.608  0.00  0.00    +0.000 F 
ATOM     16  C   UNL     1      -2.028   9.877  18.487  0.00  0.00    +0.000 A 
ATOM     17  C   UNL     1      -1.099  10.691  19.166  0.00  0.00    +0.000 A 
BRANCH  11  19
ATOM     18  C   UNL     1       1.384  12.891  18.572  0.00  0.00    +0.000 C 
ATOM     19  O   UNL     1       0.116  12.756  19.208  0.00  0.00    +0.000 OA
ENDBRANCH  11  19
ENDBRANCH   1  17
BRANCH   7  20
ATOM     20  C   UNL     1       2.984   6.541  19.561  0.00  0.00    +0.000 C 
ATOM     21  C   UNL     1       2.715   6.300  18.083  0.00  0.00    +0.000 C 
ATOM     22  C   UNL     1       1.699   5.176  18.100  0.00  0.00    +0.000 C 
ATOM     23  N   UNL     1       2.082   4.303  19.227  0.00  0.00    +0.000 NA
ATOM     24  C   UNL     1       2.826   5.156  20.188  0.00  0.00    +0.000 C 
BRANCH  23  25
ATOM     25  C   UNL     1       2.914   3.178  18.758  0.00  0.00    +0.000 C 
BRANCH  25  26
ATOM     26  C   UNL     1       4.188   2.973  19.608  0.00  0.00    +0.000 C 
BRANCH  26  27
ATOM     27  N   UNL     1       5.397   3.290  18.846  0.00  0.00    +0.000 NA
ATOM     28  H   UNL     1       5.233   3.090  17.860  0.00  0.00    +0.000 HD
ATOM     29  H   UNL     1       6.145   2.665  19.142  0.00  0.00    +0.000 HD
ENDBRANCH  26  27
ENDBRANCH  25  26
ENDBRANCH  23  25
ENDBRANCH   7  20
TORSDOF 6
ENDMDL
MODEL 9
REMARK VINA RESULT:      -6.6      3.781      8.170
REMARK  Name = 
REMARK  7 active torsions:
REMARK  status: ('A' for Active; 'I' for Inactive)
REMARK    1  A    between atoms: C_1  and  O_2
REMARK    2  A    between atoms: O_2  and  C_3
REMARK    3  A    between atoms: C_9  and  C_10
REMARK    4  A    between atoms: C_16  and  C_17
REMARK    5  A    between atoms: N_20  and  C_21
REMARK    6  A    between atoms: C_21  and  C_22
REMARK    7  A    between atoms: C_22  and  N_23
REMARK                            x       y       z     vdW  Elec       q    Type
REMARK                         _______ _______ _______ _____ _____    ______ ____
ROOT
ATOM      1  C   UNL     1       0.547  10.511  20.583  0.00  0.00    +0.000 A 
ATOM      2  C   UNL     1       0.123  10.477  21.925  0.00  0.00    +0.000 A 
ATOM      3  C   UNL     1       0.358   9.356  22.711  0.00  0.00    +0.000 A 
ATOM      4  N   UNL     1       0.951   8.218  22.300  0.00  0.00    +0.000 NA
ATOM      5  C   UNL     1       1.330   8.271  21.011  0.00  0.00    +0.000 A 
ATOM      6  N   UNL     1       1.932   7.232  20.362  0.00  0.00    +0.000 N 
ATOM      7  C   UNL     1       2.217   7.587  19.063  0.00  0.00    +0.000 A 
ATOM      8  C   UNL     1       1.799   8.894  18.907  0.00  0.00    +0.000 A 
ATOM      9  C   UNL     1       1.192   9.333  20.122  0.00  0.00    +0.000 A 
ATOM     10  H   UNL     1       2.129   6.341  20.796  0.00  0.00    +0.000 HD
ENDROOT
BRANCH   1  17
ATOM     11  C   UNL     1      -0.756  11.831  18.816  0.00  0.00    +0.000 A 
ATOM     12  C   UNL     1      -0.918  12.999  18.048  0.00  0.00    +0.000 A 
ATOM     13  C   UNL     1       0.014  14.032  18.122  0.00  0.00    +0.000 A 
ATOM     14  C   UNL     1       1.116  13.888  18.940  0.00  0.00    +0.000 A 
ATOM     15  F   UNL     1       2.010  14.881  19.027  0.00  0.00    +0.000 F 
ATOM     16  C   UNL     1       1.303  12.730  19.688  0.00  0.00    +0.000 A 
ATOM     17  C   UNL     1       0.354  11.687  19.691  0.00  0.00    +0.000 A 
BRANCH  11  19
ATOM     18  C   UNL     1      -1.752  10.041  17.617  0.00  0.00    +0.000 C 
ATOM     19  O   UNL     1      -1.700  10.830  18.802  0.00  0.00    +0.000 OA
ENDBRANCH  11  19
ENDBRANCH   1  17
BRANCH   7  20
ATOM     20  C   UNL     1       2.860   6.675  18.062  0.00  0.00    +0.000 C 
ATOM     21  C   UNL     1       2.159   5.327  17.979  0.00  0.00    +0.000 C 
ATOM     22  C   UNL     1       2.913   4.487  18.989  0.00  0.00    +0.000 C 
ATOM     23  N   UNL     1       4.322   4.916  18.898  0.00  0.00    +0.000 NA
ATOM     24  C   UNL     1       4.309   6.310  18.387  0.00  0.00    +0.000 C 
BRANCH  23  25
ATOM     25  C   UNL     1       5.083   4.026  17.999  0.00  0.00    +0.000 C 
BRANCH  25  26
ATOM     26  C   UNL     1       6.290   4.725  17.336  0.00  0.00    +0.000 C 
BRANCH  26  27
ATOM     27  N   UNL     1       7.553   4.306  17.944  0.00  0.00    +0.000 NA
ATOM     28  H   UNL     1       7.376   3.986  18.896  0.00  0.00    +0.000 HD
ATOM     29  H   UNL     1       8.163   5.118  18.026  0.00  0.00    +0.000 HD
ENDBRANCH  26  27
ENDBRANCH  25  26
ENDBRANCH  23  25
ENDBRANCH   7  20
TORSDOF 6
ENDMDL
