MODEL 1
REMARK VINA RESULT:      -7.0      0.000      0.000
REMARK  Name = 
REMARK  11 active torsions:
REMARK  status: ('A' for Active; 'I' for Inactive)
REMARK    1  A    between atoms: C_1  and  C_2
REMARK    2  A    between atoms: C_5  and  C_6
REMARK    3  A    between atoms: C_7  and  C_8
REMARK    4  A    between atoms: C_8  and  C_9
REMARK    5  A    between atoms: C_9  and  C_10
REMARK    6  A    between atoms: C_9  and  N_11
REMARK    7  A    between atoms: N_14  and  C_15
REMARK    8  A    between atoms: C_15  and  C_16
REMARK    9  A    between atoms: C_16  and  C_17
REMARK   10  A    between atoms: C_17  and  O_18
REMARK   11  A    between atoms: O_18  and  C_19
REMARK                            x       y       z     vdW  Elec       q    Type
REMARK                         _______ _______ _______ _____ _____    ______ ____
ROOT
ATOM      1  N   UNL     1       2.368   6.751  19.589  0.00  0.00    +0.000 N 
ATOM      2  C   UNL     1       1.970   7.989  20.012  0.00  0.00    +0.000 C 
ATOM      3  O   UNL     1       1.818   8.944  19.266  0.00  0.00    +0.000 OA
ATOM      4  N   UNL     1       1.721   8.019  21.355  0.00  0.00    +0.000 N 
ATOM      5  H   UNL     1       2.477   6.028  20.283  0.00  0.00    +0.000 HD
ATOM      6  H   UNL     1       1.946   7.206  21.905  0.00  0.00    +0.000 HD
ENDROOT
BRANCH   1   7
ATOM      7  C   UNL     1       2.506   6.352  18.186  0.00  0.00    +0.000 C 
ATOM      8  C   UNL     1       3.785   6.935  17.573  0.00  0.00    +0.000 C 
BRANCH   7   9
ATOM      9  C   UNL     1       2.465   4.835  17.935  0.00  0.00    +0.000 C 
BRANCH   9  16
ATOM     10  C   UNL     1       5.613   4.197  18.313  0.00  0.00    +0.000 C 
ATOM     11  C   UNL     1       4.476   3.624  19.071  0.00  0.00    +0.000 A 
ATOM     12  N   UNL     1       4.698   2.696  20.006  0.00  0.00    +0.000 NA
ATOM     13  O   UNL     1       3.474   2.452  20.587  0.00  0.00    +0.000 OA
ATOM     14  C   UNL     1       2.523   3.229  20.001  0.00  0.00    +0.000 A 
ATOM     15  C   UNL     1       1.187   3.126  20.615  0.00  0.00    +0.000 C 
ATOM     16  C   UNL     1       3.091   3.951  18.969  0.00  0.00    +0.000 A 
ENDBRANCH   9  16
ENDBRANCH   7   9
ENDBRANCH   1   7
BRANCH   4  17
ATOM     17  C   UNL     1       1.199   9.192  22.031  0.00  0.00    +0.000 C 
BRANCH  17  18
ATOM     18  C   UNL     1      -0.322   9.329  21.928  0.00  0.00    +0.000 C 
BRANCH  18  19
ATOM     19  C   UNL     1      -0.748  10.772  21.659  0.00  0.00    +0.000 C 
BRANCH  19  20
ATOM     20  O   UNL     1      -0.369  11.158  20.333  0.00  0.00    +0.000 OA
BRANCH  20  21
ATOM     21  C   UNL     1      -1.358  11.105  19.384  0.00  0.00    +0.000 A 
ATOM     22  C   UNL     1      -2.510  11.902  19.366  0.00  0.00    +0.000 A 
ATOM     23  C   UNL     1      -3.452  11.752  18.344  0.00  0.00    +0.000 A 
ATOM     24  C   UNL     1      -3.241  10.813  17.344  0.00  0.00    +0.000 A 
ATOM     25  F   UNL     1      -4.149  10.675  16.366  0.00  0.00    +0.000 F 
ATOM     26  C   UNL     1      -2.105  10.017  17.342  0.00  0.00    +0.000 A 
ATOM     27  C   UNL     1      -1.164  10.161  18.372  0.00  0.00    +0.000 A 
ENDBRANCH  20  21
ENDBRANCH  19  20
ENDBRANCH  18  19
ENDBRANCH  17  18
ENDBRANCH   4  17
TORSDOF 8
ENDMDL
MODEL 2
REMARK VINA RESULT:      -6.9      3.276      4.686
REMARK  Name = 
REMARK  11 active torsions:
REMARK  status: ('A' for Active; 'I' for Inactive)
REMARK    1  A    between atoms: C_1  and  C_2
REMARK    2  A    between atoms: C_5  and  C_6
REMARK    3  A    between atoms: C_7  and  C_8
REMARK    4  A    between atoms: C_8  and  C_9
REMARK    5  A    between atoms: C_9  and  C_10
REMARK    6  A    between atoms: C_9  and  N_11
REMARK    7  A    between atoms: N_14  and  C_15
REMARK    8  A    between atoms: C_15  and  C_16
REMARK    9  A    between atoms: C_16  and  C_17
REMARK   10  A    between atoms: C_17  and  O_18
REMARK   11  A    between atoms: O_18  and  C_19
REMARK                            x       y       z     vdW  Elec       q    Type
REMARK                         _______ _______ _______ _____ _____    ______ ____
ROOT
ATOM      1  N   UNL     1       3.461   4.821  17.549  0.00  0.00    +0.000 N 
ATOM      2  C   UNL     1       3.249   5.802  18.479  0.00  0.00    +0.000 C 
ATOM      3  O   UNL     1       3.654   5.745  19.628  0.00  0.00    +0.000 OA
ATOM      4  N   UNL     1       2.571   6.867  17.957  0.00  0.00    +0.000 N 
ATOM      5  H   UNL     1       3.076   4.953  16.627  0.00  0.00    +0.000 HD
ATOM      6  H   UNL     1       2.208   6.794  17.020  0.00  0.00    +0.000 HD
ENDROOT
BRANCH   1   7
ATOM      7  C   UNL     1       4.331   3.658  17.746  0.00  0.00    +0.000 C 
ATOM      8  C   UNL     1       3.536   2.459  18.275  0.00  0.00    +0.000 C 
BRANCH   7   9
ATOM      9  C   UNL     1       5.134   3.231  16.505  0.00  0.00    +0.000 C 
BRANCH   9  16
ATOM     10  C   UNL     1       7.071   5.186  18.203  0.00  0.00    +0.000 C 
ATOM     11  C   UNL     1       6.924   5.113  16.730  0.00  0.00    +0.000 A 
ATOM     12  N   UNL     1       7.610   5.953  15.949  0.00  0.00    +0.000 NA
ATOM     13  O   UNL     1       7.340   5.563  14.656  0.00  0.00    +0.000 OA
ATOM     14  C   UNL     1       6.496   4.497  14.663  0.00  0.00    +0.000 A 
ATOM     15  C   UNL     1       6.219   3.929  13.331  0.00  0.00    +0.000 C 
ATOM     16  C   UNL     1       6.133   4.205  15.964  0.00  0.00    +0.000 A 
ENDBRANCH   9  16
ENDBRANCH   7   9
ENDBRANCH   1   7
BRANCH   4  17
ATOM     17  C   UNL     1       2.301   8.074  18.714  0.00  0.00    +0.000 C 
BRANCH  17  18
ATOM     18  C   UNL     1       1.904   9.267  17.840  0.00  0.00    +0.000 C 
BRANCH  18  19
ATOM     19  C   UNL     1       0.648   9.963  18.362  0.00  0.00    +0.000 C 
BRANCH  19  20
ATOM     20  O   UNL     1       1.006  10.997  19.287  0.00  0.00    +0.000 OA
BRANCH  20  21
ATOM     21  C   UNL     1       0.171  11.156  20.364  0.00  0.00    +0.000 A 
ATOM     22  C   UNL     1      -0.752  12.196  20.529  0.00  0.00    +0.000 A 
ATOM     23  C   UNL     1      -1.548  12.253  21.677  0.00  0.00    +0.000 A 
ATOM     24  C   UNL     1      -1.424  11.272  22.652  0.00  0.00    +0.000 A 
ATOM     25  F   UNL     1      -2.191  11.333  23.750  0.00  0.00    +0.000 F 
ATOM     26  C   UNL     1      -0.517  10.232  22.505  0.00  0.00    +0.000 A 
ATOM     27  C   UNL     1       0.287  10.180  21.357  0.00  0.00    +0.000 A 
ENDBRANCH  20  21
ENDBRANCH  19  20
ENDBRANCH  18  19
ENDBRANCH  17  18
ENDBRANCH   4  17
TORSDOF 8
ENDMDL
MODEL 3
REMARK VINA RESULT:      -6.9      6.742      8.831
REMARK  Name = 
REMARK  11 active torsions:
REMARK  status: ('A' for Active; 'I' for Inactive)
REMARK    1  A    between atoms: C_1  and  C_2
REMARK    2  A    between atoms: C_5  and  C_6
REMARK    3  A    between atoms: C_7  and  C_8
REMARK    4  A    between atoms: C_8  and  C_9
REMARK    5  A    between atoms: C_9  and  C_10
REMARK    6  A    between atoms: C_9  and  N_11
REMARK    7  A    between atoms: N_14  and  C_15
REMARK    8  A    between atoms: C_15  and  C_16
REMARK    9  A    between atoms: C_16  and  C_17
REMARK   10  A    between atoms: C_17  and  O_18
REMARK   11  A    between atoms: O_18  and  C_19
REMARK                            x       y       z     vdW  Elec       q    Type
REMARK                         _______ _______ _______ _____ _____    ______ ____
ROOT
ATOM      1  N   UNL     1       6.695   5.984  16.533  0.00  0.00    +0.000 N 
ATOM      2  C   UNL     1       6.590   7.249  17.044  0.00  0.00    +0.000 C 
ATOM      3  O   UNL     1       5.531   7.765  17.363  0.00  0.00    +0.000 OA
ATOM      4  N   UNL     1       7.809   7.846  17.195  0.00  0.00    +0.000 N 
ATOM      5  H   UNL     1       7.613   5.649  16.288  0.00  0.00    +0.000 HD
ATOM      6  H   UNL     1       8.624   7.376  16.833  0.00  0.00    +0.000 HD
ENDROOT
BRANCH   1   7
ATOM      7  C   UNL     1       5.592   5.022  16.453  0.00  0.00    +0.000 C 
ATOM      8  C   UNL     1       5.989   3.801  15.615  0.00  0.00    +0.000 C 
BRANCH   7   9
ATOM      9  C   UNL     1       5.039   4.553  17.810  0.00  0.00    +0.000 C 
BRANCH   9  16
ATOM     10  C   UNL     1       3.508   1.709  17.959  0.00  0.00    +0.000 C 
ATOM     11  C   UNL     1       2.904   3.060  17.896  0.00  0.00    +0.000 A 
ATOM     12  N   UNL     1       1.575   3.195  17.848  0.00  0.00    +0.000 NA
ATOM     13  O   UNL     1       1.336   4.549  17.904  0.00  0.00    +0.000 OA
ATOM     14  C   UNL     1       2.515   5.222  17.982  0.00  0.00    +0.000 A 
ATOM     15  C   UNL     1       2.376   6.680  18.151  0.00  0.00    +0.000 C 
ATOM     16  C   UNL     1       3.563   4.325  17.907  0.00  0.00    +0.000 A 
ENDBRANCH   9  16
ENDBRANCH   7   9
ENDBRANCH   1   7
BRANCH   4  17
ATOM     17  C   UNL     1       7.975   9.153  17.801  0.00  0.00    +0.000 C 
BRANCH  17  18
ATOM     18  C   UNL     1       8.883   9.143  19.033  0.00  0.00    +0.000 C 
BRANCH  18  19
ATOM     19  C   UNL     1       9.309  10.554  19.440  0.00  0.00    +0.000 C 
BRANCH  19  20
ATOM     20  O   UNL     1      10.495  10.933  18.732  0.00  0.00    +0.000 OA
BRANCH  20  21
ATOM     21  C   UNL     1      10.529  12.221  18.262  0.00  0.00    +0.000 A 
ATOM     22  C   UNL     1       9.605  13.226  18.579  0.00  0.00    +0.000 A 
ATOM     23  C   UNL     1       9.744  14.506  18.032  0.00  0.00    +0.000 A 
ATOM     24  C   UNL     1      10.803  14.779  17.176  0.00  0.00    +0.000 A 
ATOM     25  F   UNL     1      10.930  16.008  16.655  0.00  0.00    +0.000 F 
ATOM     26  C   UNL     1      11.729  13.798  16.853  0.00  0.00    +0.000 A 
ATOM     27  C   UNL     1      11.585  12.513  17.396  0.00  0.00    +0.000 A 
ENDBRANCH  20  21
ENDBRANCH  19  20
ENDBRANCH  18  19
ENDBRANCH  17  18
ENDBRANCH   4  17
TORSDOF 8
ENDMDL
MODEL 4
REMARK VINA RESULT:      -6.9      2.921      3.861
REMARK  Name = 
REMARK  11 active torsions:
REMARK  status: ('A' for Active; 'I' for Inactive)
REMARK    1  A    between atoms: C_1  and  C_2
REMARK    2  A    between atoms: C_5  and  C_6
REMARK    3  A    between atoms: C_7  and  C_8
REMARK    4  A    between atoms: C_8  and  C_9
REMARK    5  A    between atoms: C_9  and  C_10
REMARK    6  A    between atoms: C_9  and  N_11
REMARK    7  A    between atoms: N_14  and  C_15
REMARK    8  A    between atoms: C_15  and  C_16
REMARK    9  A    between atoms: C_16  and  C_17
REMARK   10  A    between atoms: C_17  and  O_18
REMARK   11  A    between atoms: O_18  and  C_19
REMARK                            x       y       z     vdW  Elec       q    Type
REMARK                         _______ _______ _______ _____ _____    ______ ____
ROOT
ATOM      1  N   UNL     1       3.125   4.901  17.851  0.00  0.00    +0.000 N 
ATOM      2  C   UNL     1       3.102   5.738  18.933  0.00  0.00    +0.000 C 
ATOM      3  O   UNL     1       3.935   5.717  19.824  0.00  0.00    +0.000 OA
ATOM      4  N   UNL     1       2.065   6.626  18.874  0.00  0.00    +0.000 N 
ATOM      5  H   UNL     1       2.385   4.987  17.172  0.00  0.00    +0.000 HD
ATOM      6  H   UNL     1       1.382   6.521  18.141  0.00  0.00    +0.000 HD
ENDROOT
BRANCH   1   7
ATOM      7  C   UNL     1       4.224   3.988  17.526  0.00  0.00    +0.000 C 
ATOM      8  C   UNL     1       3.920   2.567  18.016  0.00  0.00    +0.000 C 
BRANCH   7   9
ATOM      9  C   UNL     1       4.612   3.943  16.038  0.00  0.00    +0.000 C 
BRANCH   9  16
ATOM     10  C   UNL     1       6.205   3.711  13.232  0.00  0.00    +0.000 C 
ATOM     11  C   UNL     1       6.559   4.538  14.410  0.00  0.00    +0.000 A 
ATOM     12  N   UNL     1       7.680   5.266  14.399  0.00  0.00    +0.000 NA
ATOM     13  O   UNL     1       7.666   5.987  15.572  0.00  0.00    +0.000 OA
ATOM     14  C   UNL     1       6.545   5.690  16.282  0.00  0.00    +0.000 A 
ATOM     15  C   UNL     1       6.373   6.484  17.512  0.00  0.00    +0.000 C 
ATOM     16  C   UNL     1       5.828   4.710  15.622  0.00  0.00    +0.000 A 
ENDBRANCH   9  16
ENDBRANCH   7   9
ENDBRANCH   1   7
BRANCH   4  17
ATOM     17  C   UNL     1       1.874   7.678  19.854  0.00  0.00    +0.000 C 
BRANCH  17  18
ATOM     18  C   UNL     1       1.833   9.081  19.243  0.00  0.00    +0.000 C 
BRANCH  18  19
ATOM     19  C   UNL     1       0.511   9.791  19.534  0.00  0.00    +0.000 C 
BRANCH  19  20
ATOM     20  O   UNL     1       0.117  10.579  18.404  0.00  0.00    +0.000 OA
BRANCH  20  21
ATOM     21  C   UNL     1      -1.234  10.728  18.217  0.00  0.00    +0.000 A 
ATOM     22  C   UNL     1      -2.057  11.621  18.915  0.00  0.00    +0.000 A 
ATOM     23  C   UNL     1      -3.426  11.679  18.635  0.00  0.00    +0.000 A 
ATOM     24  C   UNL     1      -3.967  10.851  17.660  0.00  0.00    +0.000 A 
ATOM     25  F   UNL     1      -5.281  10.913  17.398  0.00  0.00    +0.000 F 
ATOM     26  C   UNL     1      -3.167   9.963  16.956  0.00  0.00    +0.000 A 
ATOM     27  C   UNL     1      -1.796   9.899  17.243  0.00  0.00    +0.000 A 
ENDBRANCH  20  21
ENDBRANCH  19  20
ENDBRANCH  18  19
ENDBRANCH  17  18
ENDBRANCH   4  17
TORSDOF 8
ENDMDL
MODEL 5
REMARK VINA RESULT:      -6.9      5.886      8.486
REMARK  Name = 
REMARK  11 active torsions:
REMARK  status: ('A' for Active; 'I' for Inactive)
REMARK    1  A    between atoms: C_1  and  C_2
REMARK    2  A    between atoms: C_5  and  C_6
REMARK    3  A    between atoms: C_7  and  C_8
REMARK    4  A    between atoms: C_8  and  C_9
REMARK    5  A    between atoms: C_9  and  C_10
REMARK    6  A    between atoms: C_9  and  N_11
REMARK    7  A    between atoms: N_14  and  C_15
REMARK    8  A    between atoms: C_15  and  C_16
REMARK    9  A    between atoms: C_16  and  C_17
REMARK   10  A    between atoms: C_17  and  O_18
REMARK   11  A    between atoms: O_18  and  C_19
REMARK                            x       y       z     vdW  Elec       q    Type
REMARK                         _______ _______ _______ _____ _____    ______ ____
ROOT
ATOM      1  N   UNL     1       5.259   4.034  17.654  0.00  0.00    +0.000 N 
ATOM      2  C   UNL     1       5.877   4.975  18.430  0.00  0.00    +0.000 C 
ATOM      3  O   UNL     1       5.542   5.236  19.574  0.00  0.00    +0.000 OA
ATOM      4  N   UNL     1       6.937   5.554  17.792  0.00  0.00    +0.000 N 
ATOM      5  H   UNL     1       5.601   3.898  16.715  0.00  0.00    +0.000 HD
ATOM      6  H   UNL     1       7.094   5.333  16.821  0.00  0.00    +0.000 HD
ENDROOT
BRANCH   1   7
ATOM      7  C   UNL     1       4.232   3.104  18.129  0.00  0.00    +0.000 C 
ATOM      8  C   UNL     1       4.483   2.706  19.588  0.00  0.00    +0.000 C 
BRANCH   7   9
ATOM      9  C   UNL     1       2.784   3.602  17.977  0.00  0.00    +0.000 C 
BRANCH   9  16
ATOM     10  C   UNL     1       2.917   6.832  17.876  0.00  0.00    +0.000 C 
ATOM     11  C   UNL     1       2.413   5.980  18.979  0.00  0.00    +0.000 A 
ATOM     12  N   UNL     1       1.988   6.543  20.114  0.00  0.00    +0.000 NA
ATOM     13  O   UNL     1       1.495   5.510  20.880  0.00  0.00    +0.000 OA
ATOM     14  C   UNL     1       1.627   4.335  20.207  0.00  0.00    +0.000 A 
ATOM     15  C   UNL     1       1.036   3.171  20.892  0.00  0.00    +0.000 C 
ATOM     16  C   UNL     1       2.277   4.561  19.009  0.00  0.00    +0.000 A 
ENDBRANCH   9  16
ENDBRANCH   7   9
ENDBRANCH   1   7
BRANCH   4  17
ATOM     17  C   UNL     1       7.812   6.516  18.434  0.00  0.00    +0.000 C 
BRANCH  17  18
ATOM     18  C   UNL     1       7.901   7.851  17.691  0.00  0.00    +0.000 C 
BRANCH  18  19
ATOM     19  C   UNL     1       8.499   8.953  18.565  0.00  0.00    +0.000 C 
BRANCH  19  20
ATOM     20  O   UNL     1       8.902  10.062  17.753  0.00  0.00    +0.000 OA
BRANCH  20  21
ATOM     21  C   UNL     1       9.495  11.107  18.414  0.00  0.00    +0.000 A 
ATOM     22  C   UNL     1       9.806  12.352  17.852  0.00  0.00    +0.000 A 
ATOM     23  C   UNL     1      10.417  13.341  18.630  0.00  0.00    +0.000 A 
ATOM     24  C   UNL     1      10.711  13.087  19.963  0.00  0.00    +0.000 A 
ATOM     25  F   UNL     1      11.296  14.040  20.702  0.00  0.00    +0.000 F 
ATOM     26  C   UNL     1      10.408  11.861  20.538  0.00  0.00    +0.000 A 
ATOM     27  C   UNL     1       9.803  10.867  19.756  0.00  0.00    +0.000 A 
ENDBRANCH  20  21
ENDBRANCH  19  20
ENDBRANCH  18  19
ENDBRANCH  17  18
ENDBRANCH   4  17
TORSDOF 8
ENDMDL
MODEL 6
REMARK VINA RESULT:      -6.9      2.935      8.102
REMARK  Name = 
REMARK  11 active torsions:
REMARK  status: ('A' for Active; 'I' for Inactive)
REMARK    1  A    between atoms: C_1  and  C_2
REMARK    2  A    between atoms: C_5  and  C_6
REMARK    3  A    between atoms: C_7  and  C_8
REMARK    4  A    between atoms: C_8  and  C_9
REMARK    5  A    between atoms: C_9  and  C_10
REMARK    6  A    between atoms: C_9  and  N_11
REMARK    7  A    between atoms: N_14  and  C_15
REMARK    8  A    between atoms: C_15  and  C_16
REMARK    9  A    between atoms: C_16  and  C_17
REMARK   10  A    between atoms: C_17  and  O_18
REMARK   11  A    between atoms: O_18  and  C_19
REMARK                            x       y       z     vdW  Elec       q    Type
REMARK                         _______ _______ _______ _____ _____    ______ ____
ROOT
ATOM      1  N   UNL     1       2.121   7.717  19.519  0.00  0.00    +0.000 N 
ATOM      2  C   UNL     1       2.611   7.804  18.245  0.00  0.00    +0.000 C 
ATOM      3  O   UNL     1       2.124   8.511  17.378  0.00  0.00    +0.000 OA
ATOM      4  N   UNL     1       3.733   7.044  18.073  0.00  0.00    +0.000 N 
ATOM      5  H   UNL     1       2.586   7.095  20.162  0.00  0.00    +0.000 HD
ATOM      6  H   UNL     1       4.020   6.433  18.820  0.00  0.00    +0.000 HD
ENDROOT
BRANCH   1   7
ATOM      7  C   UNL     1       1.061   8.569  20.066  0.00  0.00    +0.000 C 
ATOM      8  C   UNL     1       1.133   8.622  21.596  0.00  0.00    +0.000 C 
BRANCH   7   9
ATOM      9  C   UNL     1       1.025  10.001  19.505  0.00  0.00    +0.000 C 
BRANCH   9  16
ATOM     10  C   UNL     1      -1.411   9.902  17.381  0.00  0.00    +0.000 C 
ATOM     11  C   UNL     1      -1.306  10.738  18.600  0.00  0.00    +0.000 A 
ATOM     12  N   UNL     1      -2.275  11.609  18.897  0.00  0.00    +0.000 NA
ATOM     13  O   UNL     1      -1.936  12.141  20.121  0.00  0.00    +0.000 OA
ATOM     14  C   UNL     1      -0.768  11.593  20.553  0.00  0.00    +0.000 A 
ATOM     15  C   UNL     1      -0.361  12.014  21.906  0.00  0.00    +0.000 C 
ATOM     16  C   UNL     1      -0.275  10.738  19.586  0.00  0.00    +0.000 A 
ENDBRANCH   9  16
ENDBRANCH   7   9
ENDBRANCH   1   7
BRANCH   4  17
ATOM     17  C   UNL     1       4.495   7.036  16.838  0.00  0.00    +0.000 C 
BRANCH  17  18
ATOM     18  C   UNL     1       4.927   5.635  16.397  0.00  0.00    +0.000 C 
BRANCH  18  19
ATOM     19  C   UNL     1       4.712   4.598  17.499  0.00  0.00    +0.000 C 
BRANCH  19  20
ATOM     20  O   UNL     1       3.428   3.980  17.349  0.00  0.00    +0.000 OA
BRANCH  20  21
ATOM     21  C   UNL     1       2.774   3.663  18.512  0.00  0.00    +0.000 A 
ATOM     22  C   UNL     1       1.417   3.896  18.770  0.00  0.00    +0.000 A 
ATOM     23  C   UNL     1       0.863   3.530  20.000  0.00  0.00    +0.000 A 
ATOM     24  C   UNL     1       1.661   2.931  20.965  0.00  0.00    +0.000 A 
ATOM     25  F   UNL     1       1.122   2.582  22.143  0.00  0.00    +0.000 F 
ATOM     26  C   UNL     1       3.006   2.689  20.727  0.00  0.00    +0.000 A 
ATOM     27  C   UNL     1       3.563   3.063  19.496  0.00  0.00    +0.000 A 
ENDBRANCH  20  21
ENDBRANCH  19  20
ENDBRANCH  18  19
ENDBRANCH  17  18
ENDBRANCH   4  17
TORSDOF 8
ENDMDL
MODEL 7
REMARK VINA RESULT:      -6.9      5.603      8.447
REMARK  Name = 
REMARK  11 active torsions:
REMARK  status: ('A' for Active; 'I' for Inactive)
REMARK    1  A    between atoms: C_1  and  C_2
REMARK    2  A    between atoms: C_5  and  C_6
REMARK    3  A    between atoms: C_7  and  C_8
REMARK    4  A    between atoms: C_8  and  C_9
REMARK    5  A    between atoms: C_9  and  C_10
REMARK    6  A    between atoms: C_9  and  N_11
REMARK    7  A    between atoms: N_14  and  C_15
REMARK    8  A    between atoms: C_15  and  C_16
REMARK    9  A    between atoms: C_16  and  C_17
REMARK   10  A    between atoms: C_17  and  O_18
REMARK   11  A    between atoms: O_18  and  C_19
REMARK                            x       y       z     vdW  Elec       q    Type
REMARK                         _______ _______ _______ _____ _____    ______ ____
ROOT
ATOM      1  N   UNL     1       5.692   3.803  19.365  0.00  0.00    +0.000 N 
ATOM      2  C   UNL     1       5.972   4.416  18.174  0.00  0.00    +0.000 C 
ATOM      3  O   UNL     1       5.381   4.176  17.134  0.00  0.00    +0.000 OA
ATOM      4  N   UNL     1       6.957   5.355  18.297  0.00  0.00    +0.000 N 
ATOM      5  H   UNL     1       6.244   4.060  20.169  0.00  0.00    +0.000 HD
ATOM      6  H   UNL     1       7.441   5.432  19.177  0.00  0.00    +0.000 HD
ENDROOT
BRANCH   1   7
ATOM      7  C   UNL     1       4.554   2.910  19.597  0.00  0.00    +0.000 C 
ATOM      8  C   UNL     1       4.919   1.802  20.592  0.00  0.00    +0.000 C 
BRANCH   7   9
ATOM      9  C   UNL     1       3.264   3.609  20.062  0.00  0.00    +0.000 C 
BRANCH   9  16
ATOM     10  C   UNL     1       0.739   2.116  18.700  0.00  0.00    +0.000 C 
ATOM     11  C   UNL     1       1.295   3.447  18.361  0.00  0.00    +0.000 A 
ATOM     12  N   UNL     1       0.769   4.153  17.355  0.00  0.00    +0.000 NA
ATOM     13  O   UNL     1       1.425   5.363  17.366  0.00  0.00    +0.000 OA
ATOM     14  C   UNL     1       2.342   5.380  18.371  0.00  0.00    +0.000 A 
ATOM     15  C   UNL     1       3.035   6.670  18.542  0.00  0.00    +0.000 C 
ATOM     16  C   UNL     1       2.358   4.151  19.001  0.00  0.00    +0.000 A 
ENDBRANCH   9  16
ENDBRANCH   7   9
ENDBRANCH   1   7
BRANCH   4  17
ATOM     17  C   UNL     1       7.372   6.207  17.199  0.00  0.00    +0.000 C 
BRANCH  17  18
ATOM     18  C   UNL     1       7.055   7.687  17.421  0.00  0.00    +0.000 C 
BRANCH  18  19
ATOM     19  C   UNL     1       8.192   8.413  18.139  0.00  0.00    +0.000 C 
BRANCH  19  20
ATOM     20  O   UNL     1       8.347   9.734  17.606  0.00  0.00    +0.000 OA
BRANCH  20  21
ATOM     21  C   UNL     1       8.971  10.643  18.422  0.00  0.00    +0.000 A 
ATOM     22  C   UNL     1       9.508  10.365  19.685  0.00  0.00    +0.000 A 
ATOM     23  C   UNL     1      10.120  11.381  20.427  0.00  0.00    +0.000 A 
ATOM     24  C   UNL     1      10.196  12.666  19.906  0.00  0.00    +0.000 A 
ATOM     25  F   UNL     1      10.784  13.634  20.624  0.00  0.00    +0.000 F 
ATOM     26  C   UNL     1       9.672  12.959  18.656  0.00  0.00    +0.000 A 
ATOM     27  C   UNL     1       9.052  11.942  17.916  0.00  0.00    +0.000 A 
ENDBRANCH  20  21
ENDBRANCH  19  20
ENDBRANCH  18  19
ENDBRANCH  17  18
ENDBRANCH   4  17
TORSDOF 8
ENDMDL
MODEL 8
REMARK VINA RESULT:      -6.9      2.849      3.871
REMARK  Name = 
REMARK  11 active torsions:
REMARK  status: ('A' for Active; 'I' for Inactive)
REMARK    1  A    between atoms: C_1  and  C_2
REMARK    2  A    between atoms: C_5  and  C_6
REMARK    3  A    between atoms: C_7  and  C_8
REMARK    4  A    between atoms: C_8  and  C_9
REMARK    5  A    between atoms: C_9  and  C_10
REMARK    6  A    between atoms: C_9  and  N_11
REMARK    7  A    between atoms: N_14  and  C_15
REMARK    8  A    between atoms: C_15  and  C_16
REMARK    9  A    between atoms: C_16  and  C_17
REMARK   10  A    between atoms: C_17  and  O_18
REMARK   11  A    between atoms: O_18  and  C_19
REMARK                            x       y       z     vdW  Elec       q    Type
REMARK                         _______ _______ _______ _____ _____    ______ ____
ROOT
ATOM      1  N   UNL     1       3.419   5.240  18.320  0.00  0.00    +0.000 N 
ATOM      2  C   UNL     1       3.451   6.557  17.949  0.00  0.00    +0.000 C 
ATOM      3  O   UNL     1       4.457   7.126  17.558  0.00  0.00    +0.000 OA
ATOM      4  N   UNL     1       2.220   7.143  18.027  0.00  0.00    +0.000 N 
ATOM      5  H   UNL     1       2.542   4.862  18.641  0.00  0.00    +0.000 HD
ATOM      6  H   UNL     1       1.462   6.619  18.434  0.00  0.00    +0.000 HD
ENDROOT
BRANCH   1   7
ATOM      7  C   UNL     1       4.527   4.297  18.146  0.00  0.00    +0.000 C 
ATOM      8  C   UNL     1       4.418   3.132  19.137  0.00  0.00    +0.000 C 
BRANCH   7   9
ATOM      9  C   UNL     1       4.688   3.741  16.720  0.00  0.00    +0.000 C 
BRANCH   9  16
ATOM     10  C   UNL     1       7.430   5.128  17.727  0.00  0.00    +0.000 C 
ATOM     11  C   UNL     1       6.932   5.010  16.337  0.00  0.00    +0.000 A 
ATOM     12  N   UNL     1       7.625   5.557  15.333  0.00  0.00    +0.000 NA
ATOM     13  O   UNL     1       6.966   5.187  14.181  0.00  0.00    +0.000 OA
ATOM     14  C   UNL     1       5.884   4.425  14.495  0.00  0.00    +0.000 A 
ATOM     15  C   UNL     1       5.160   3.884  13.330  0.00  0.00    +0.000 C 
ATOM     16  C   UNL     1       5.766   4.336  15.869  0.00  0.00    +0.000 A 
ENDBRANCH   9  16
ENDBRANCH   7   9
ENDBRANCH   1   7
BRANCH   4  17
ATOM     17  C   UNL     1       1.971   8.508  17.602  0.00  0.00    +0.000 C 
BRANCH  17  18
ATOM     18  C   UNL     1       1.930   9.509  18.759  0.00  0.00    +0.000 C 
BRANCH  18  19
ATOM     19  C   UNL     1       0.502   9.770  19.238  0.00  0.00    +0.000 C 
BRANCH  19  20
ATOM     20  O   UNL     1      -0.002  10.974  18.650  0.00  0.00    +0.000 OA
BRANCH  20  21
ATOM     21  C   UNL     1      -1.344  10.989  18.366  0.00  0.00    +0.000 A 
ATOM     22  C   UNL     1      -2.289  11.843  18.950  0.00  0.00    +0.000 A 
ATOM     23  C   UNL     1      -3.635  11.760  18.580  0.00  0.00    +0.000 A 
ATOM     24  C   UNL     1      -4.032  10.830  17.628  0.00  0.00    +0.000 A 
ATOM     25  F   UNL     1      -5.325  10.757  17.278  0.00  0.00    +0.000 F 
ATOM     26  C   UNL     1      -3.111   9.979  17.036  0.00  0.00    +0.000 A 
ATOM     27  C   UNL     1      -1.763  10.057  17.414  0.00  0.00    +0.000 A 
ENDBRANCH  20  21
ENDBRANCH  19  20
ENDBRANCH  18  19
ENDBRANCH  17  18
ENDBRANCH   4  17
TORSDOF 8
ENDMDL
MODEL 9
REMARK VINA RESULT:      -6.8      2.419      3.431
REMARK  Name = 
REMARK  11 active torsions:
REMARK  status: ('A' for Active; 'I' for Inactive)
REMARK    1  A    between atoms: C_1  and  C_2
REMARK    2  A    between atoms: C_5  and  C_6
REMARK    3  A    between atoms: C_7  and  C_8
REMARK    4  A    between atoms: C_8  and  C_9
REMARK    5  A    between atoms: C_9  and  C_10
REMARK    6  A    between atoms: C_9  and  N_11
REMARK    7  A    between atoms: N_14  and  C_15
REMARK    8  A    between atoms: C_15  and  C_16
REMARK    9  A    between atoms: C_16  and  C_17
REMARK   10  A    between atoms: C_17  and  O_18
REMARK   11  A    between atoms: O_18  and  C_19
REMARK                            x       y       z     vdW  Elec       q    Type
REMARK                         _______ _______ _______ _____ _____    ______ ____
ROOT
ATOM      1  N   UNL     1       3.040   7.351  18.141  0.00  0.00    +0.000 N 
ATOM      2  C   UNL     1       2.304   7.528  19.280  0.00  0.00    +0.000 C 
ATOM      3  O   UNL     1       2.301   6.742  20.214  0.00  0.00    +0.000 OA
ATOM      4  N   UNL     1       1.609   8.704  19.267  0.00  0.00    +0.000 N 
ATOM      5  H   UNL     1       2.967   8.051  17.419  0.00  0.00    +0.000 HD
ATOM      6  H   UNL     1       1.610   9.254  18.423  0.00  0.00    +0.000 HD
ENDROOT
BRANCH   1   7
ATOM      7  C   UNL     1       4.041   6.299  17.949  0.00  0.00    +0.000 C 
ATOM      8  C   UNL     1       3.377   4.971  17.567  0.00  0.00    +0.000 C 
BRANCH   7   9
ATOM      9  C   UNL     1       5.145   6.630  16.929  0.00  0.00    +0.000 C 
BRANCH   9  16
ATOM     10  C   UNL     1       6.040   4.772  14.438  0.00  0.00    +0.000 C 
ATOM     11  C   UNL     1       6.655   4.840  15.784  0.00  0.00    +0.000 A 
ATOM     12  N   UNL     1       7.677   4.036  16.091  0.00  0.00    +0.000 NA
ATOM     13  O   UNL     1       8.082   4.412  17.352  0.00  0.00    +0.000 OA
ATOM     14  C   UNL     1       7.304   5.435  17.799  0.00  0.00    +0.000 A 
ATOM     15  C   UNL     1       7.714   5.990  19.102  0.00  0.00    +0.000 C 
ATOM     16  C   UNL     1       6.321   5.707  16.866  0.00  0.00    +0.000 A 
ENDBRANCH   9  16
ENDBRANCH   7   9
ENDBRANCH   1   7
BRANCH   4  17
ATOM     17  C   UNL     1       0.825   9.167  20.396  0.00  0.00    +0.000 C 
BRANCH  17  18
ATOM     18  C   UNL     1      -0.437   9.933  19.990  0.00  0.00    +0.000 C 
BRANCH  18  19
ATOM     19  C   UNL     1      -0.217  10.765  18.727  0.00  0.00    +0.000 C 
BRANCH  19  20
ATOM     20  O   UNL     1      -1.052  11.928  18.752  0.00  0.00    +0.000 OA
BRANCH  20  21
ATOM     21  C   UNL     1      -2.354  11.742  18.361  0.00  0.00    +0.000 A 
ATOM     22  C   UNL     1      -2.765  11.176  17.148  0.00  0.00    +0.000 A 
ATOM     23  C   UNL     1      -4.127  11.042  16.861  0.00  0.00    +0.000 A 
ATOM     24  C   UNL     1      -5.072  11.470  17.784  0.00  0.00    +0.000 A 
ATOM     25  F   UNL     1      -6.376  11.338  17.501  0.00  0.00    +0.000 F 
ATOM     26  C   UNL     1      -4.685  12.030  18.992  0.00  0.00    +0.000 A 
ATOM     27  C   UNL     1      -3.319  12.171  19.276  0.00  0.00    +0.000 A 
ENDBRANCH  20  21
ENDBRANCH  19  20
ENDBRANCH  18  19
ENDBRANCH  17  18
ENDBRANCH   4  17
TORSDOF 8
ENDMDL
