MODEL 1
REMARK VINA RESULT:      -6.3      0.000      0.000
REMARK  Name = 
REMARK  8 active torsions:
REMARK  status: ('A' for Active; 'I' for Inactive)
REMARK    1  A    between atoms: C_1  and  O_2
REMARK    2  A    between atoms: O_2  and  C_3
REMARK    3  A    between atoms: C_8  and  C_9
REMARK    4  A    between atoms: C_9  and  N_10
REMARK    5  A    between atoms: N_10  and  C_11
REMARK    6  A    between atoms: C_11  and  C_12
REMARK    7  A    between atoms: C_12  and  O_13
REMARK    8  A    between atoms: C_12  and  C_14
REMARK                            x       y       z     vdW  Elec       q    Type
REMARK                         _______ _______ _______ _____ _____    ______ ____
ROOT
ATOM      1  N   UNL     1       8.591   8.725  18.643  0.00  0.00    +0.000 NA
ATOM      2  H   UNL     1       9.580   8.478  18.581  0.00  0.00    +0.000 HD
ENDROOT
BRANCH   1   3
ATOM      3  C   UNL     1       8.480  10.146  18.277  0.00  0.00    +0.000 C 
BRANCH   3   9
ATOM      4  C   UNL     1       9.945  11.246  20.070  0.00  0.00    +0.000 A 
ATOM      5  C   UNL     1      11.134  11.897  20.424  0.00  0.00    +0.000 A 
ATOM      6  C   UNL     1      12.038  12.306  19.443  0.00  0.00    +0.000 A 
ATOM      7  C   UNL     1      11.768  12.059  18.102  0.00  0.00    +0.000 A 
ATOM      8  C   UNL     1      10.603  11.380  17.743  0.00  0.00    +0.000 A 
ATOM      9  C   UNL     1       9.686  10.950  18.718  0.00  0.00    +0.000 A 
BRANCH   4  11
ATOM     10  C   UNL     1       8.668  11.779  21.984  0.00  0.00    +0.000 C 
ATOM     11  O   UNL     1       9.035  10.811  21.002  0.00  0.00    +0.000 OA
ENDBRANCH   4  11
ENDBRANCH   3   9
ENDBRANCH   1   3
BRANCH   1  12
ATOM     12  C   UNL     1       7.817   7.859  17.730  0.00  0.00    +0.000 C 
BRANCH  12  13
ATOM     13  C   UNL     1       7.674   6.384  18.185  0.00  0.00    +0.000 C 
BRANCH  13  14
ATOM     14  C   UNL     1       6.240   5.922  18.211  0.00  0.00    +0.000 A 
ATOM     15  C   UNL     1       5.531   5.276  19.209  0.00  0.00    +0.000 A 
ATOM     16  C   UNL     1       4.210   4.966  18.804  0.00  0.00    +0.000 A 
ATOM     17 BR   UNL     1       3.009   4.049  19.931  0.00  0.00    +0.000 Br
ATOM     18  C   UNL     1       3.918   5.384  17.531  0.00  0.00    +0.000 A 
ATOM     19  S   UNL     1       5.258   6.167  16.815  0.00  0.00    +0.000 S 
ENDBRANCH  13  14
BRANCH  13  20
ATOM     20  O   UNL     1       8.209   6.218  19.502  0.00  0.00    +0.000 OA
ATOM     21  H   UNL     1       7.465   6.259  20.122  0.00  0.00    +0.000 HD
ENDBRANCH  13  20
ENDBRANCH  12  13
ENDBRANCH   1  12
TORSDOF 7
ENDMDL
MODEL 2
REMARK VINA RESULT:      -6.3      5.367      7.216
REMARK  Name = 
REMARK  8 active torsions:
REMARK  status: ('A' for Active; 'I' for Inactive)
REMARK    1  A    between atoms: C_1  and  O_2
REMARK    2  A    between atoms: O_2  and  C_3
REMARK    3  A    between atoms: C_8  and  C_9
REMARK    4  A    between atoms: C_9  and  N_10
REMARK    5  A    between atoms: N_10  and  C_11
REMARK    6  A    between atoms: C_11  and  C_12
REMARK    7  A    between atoms: C_12  and  O_13
REMARK    8  A    between atoms: C_12  and  C_14
REMARK                            x       y       z     vdW  Elec       q    Type
REMARK                         _______ _______ _______ _____ _____    ______ ____
ROOT
ATOM      1  N   UNL     1       3.773   2.041  18.303  0.00  0.00    +0.000 NA
ATOM      2  H   UNL     1       3.536   2.388  17.372  0.00  0.00    +0.000 HD
ENDROOT
BRANCH   1   3
ATOM      3  C   UNL     1       4.730   2.995  18.886  0.00  0.00    +0.000 C 
BRANCH   3   9
ATOM      4  C   UNL     1       5.918   5.184  18.280  0.00  0.00    +0.000 A 
ATOM      5  C   UNL     1       6.358   6.087  17.305  0.00  0.00    +0.000 A 
ATOM      6  C   UNL     1       5.986   5.927  15.970  0.00  0.00    +0.000 A 
ATOM      7  C   UNL     1       5.181   4.858  15.596  0.00  0.00    +0.000 A 
ATOM      8  C   UNL     1       4.766   3.933  16.555  0.00  0.00    +0.000 A 
ATOM      9  C   UNL     1       5.140   4.072  17.903  0.00  0.00    +0.000 A 
BRANCH   4  11
ATOM     10  C   UNL     1       7.667   5.473  19.841  0.00  0.00    +0.000 C 
ATOM     11  O   UNL     1       6.272   5.293  19.603  0.00  0.00    +0.000 OA
ENDBRANCH   4  11
ENDBRANCH   3   9
ENDBRANCH   1   3
BRANCH   1  12
ATOM     12  C   UNL     1       2.540   1.936  19.110  0.00  0.00    +0.000 C 
BRANCH  12  13
ATOM     13  C   UNL     1       1.394   2.893  18.689  0.00  0.00    +0.000 C 
BRANCH  13  14
ATOM     14  C   UNL     1       1.719   4.340  18.955  0.00  0.00    +0.000 A 
ATOM     15  C   UNL     1       1.959   5.375  18.069  0.00  0.00    +0.000 A 
ATOM     16  C   UNL     1       2.287   6.579  18.739  0.00  0.00    +0.000 A 
ATOM     17 BR   UNL     1       2.706   8.161  17.803  0.00  0.00    +0.000 Br
ATOM     18  C   UNL     1       2.281   6.462  20.105  0.00  0.00    +0.000 A 
ATOM     19  S   UNL     1       1.866   4.875  20.587  0.00  0.00    +0.000 S 
ENDBRANCH  13  14
BRANCH  13  20
ATOM     20  O   UNL     1       0.197   2.576  19.406  0.00  0.00    +0.000 OA
ATOM     21  H   UNL     1       0.461   2.296  20.296  0.00  0.00    +0.000 HD
ENDBRANCH  13  20
ENDBRANCH  12  13
ENDBRANCH   1  12
TORSDOF 7
ENDMDL
MODEL 3
REMARK VINA RESULT:      -6.2      6.073      7.320
REMARK  Name = 
REMARK  8 active torsions:
REMARK  status: ('A' for Active; 'I' for Inactive)
REMARK    1  A    between atoms: C_1  and  O_2
REMARK    2  A    between atoms: O_2  and  C_3
REMARK    3  A    between atoms: C_8  and  C_9
REMARK    4  A    between atoms: C_9  and  N_10
REMARK    5  A    between atoms: N_10  and  C_11
REMARK    6  A    between atoms: C_11  and  C_12
REMARK    7  A    between atoms: C_12  and  O_13
REMARK    8  A    between atoms: C_12  and  C_14
REMARK                            x       y       z     vdW  Elec       q    Type
REMARK                         _______ _______ _______ _____ _____    ______ ____
ROOT
ATOM      1  N   UNL     1       2.143   4.535  19.127  0.00  0.00    +0.000 NA
ATOM      2  H   UNL     1       1.436   4.122  19.739  0.00  0.00    +0.000 HD
ENDROOT
BRANCH   1   3
ATOM      3  C   UNL     1       2.834   5.572  19.910  0.00  0.00    +0.000 C 
BRANCH   3   9
ATOM      4  C   UNL     1       2.509   7.573  18.341  0.00  0.00    +0.000 A 
ATOM      5  C   UNL     1       1.919   8.816  18.078  0.00  0.00    +0.000 A 
ATOM      6  C   UNL     1       1.196   9.482  19.067  0.00  0.00    +0.000 A 
ATOM      7  C   UNL     1       1.047   8.909  20.325  0.00  0.00    +0.000 A 
ATOM      8  C   UNL     1       1.601   7.656  20.585  0.00  0.00    +0.000 A 
ATOM      9  C   UNL     1       2.324   6.964  19.597  0.00  0.00    +0.000 A 
BRANCH   4  11
ATOM     10  C   UNL     1       4.520   7.381  17.118  0.00  0.00    +0.000 C 
ATOM     11  O   UNL     1       3.215   6.874  17.393  0.00  0.00    +0.000 OA
ENDBRANCH   4  11
ENDBRANCH   3   9
ENDBRANCH   1   3
BRANCH   1  12
ATOM     12  C   UNL     1       3.070   3.477  18.675  0.00  0.00    +0.000 C 
BRANCH  12  13
ATOM     13  C   UNL     1       4.571   3.757  18.947  0.00  0.00    +0.000 C 
BRANCH  13  14
ATOM     14  C   UNL     1       5.348   4.025  17.685  0.00  0.00    +0.000 A 
ATOM     15  C   UNL     1       4.996   3.820  16.362  0.00  0.00    +0.000 A 
ATOM     16  C   UNL     1       6.049   4.155  15.476  0.00  0.00    +0.000 A 
ATOM     17 BR   UNL     1       5.888   3.946  13.609  0.00  0.00    +0.000 Br
ATOM     18  C   UNL     1       7.170   4.621  16.113  0.00  0.00    +0.000 A 
ATOM     19  S   UNL     1       6.947   4.659  17.807  0.00  0.00    +0.000 S 
ENDBRANCH  13  14
BRANCH  13  20
ATOM     20  O   UNL     1       5.172   2.634  19.599  0.00  0.00    +0.000 OA
ATOM     21  H   UNL     1       5.192   2.830  20.549  0.00  0.00    +0.000 HD
ENDBRANCH  13  20
ENDBRANCH  12  13
ENDBRANCH   1  12
TORSDOF 7
ENDMDL
MODEL 4
REMARK VINA RESULT:      -6.2      4.837      8.212
REMARK  Name = 
REMARK  8 active torsions:
REMARK  status: ('A' for Active; 'I' for Inactive)
REMARK    1  A    between atoms: C_1  and  O_2
REMARK    2  A    between atoms: O_2  and  C_3
REMARK    3  A    between atoms: C_8  and  C_9
REMARK    4  A    between atoms: C_9  and  N_10
REMARK    5  A    between atoms: N_10  and  C_11
REMARK    6  A    between atoms: C_11  and  C_12
REMARK    7  A    between atoms: C_12  and  O_13
REMARK    8  A    between atoms: C_12  and  C_14
REMARK                            x       y       z     vdW  Elec       q    Type
REMARK                         _______ _______ _______ _____ _____    ______ ____
ROOT
ATOM      1  N   UNL     1       4.185   4.355  16.827  0.00  0.00    +0.000 NA
ATOM      2  H   UNL     1       3.630   4.779  16.082  0.00  0.00    +0.000 HD
ENDROOT
BRANCH   1   3
ATOM      3  C   UNL     1       3.378   3.262  17.393  0.00  0.00    +0.000 C 
BRANCH   3   9
ATOM      4  C   UNL     1       2.355   4.750  19.212  0.00  0.00    +0.000 A 
ATOM      5  C   UNL     1       1.886   4.902  20.523  0.00  0.00    +0.000 A 
ATOM      6  C   UNL     1       2.059   3.885  21.462  0.00  0.00    +0.000 A 
ATOM      7  C   UNL     1       2.693   2.703  21.097  0.00  0.00    +0.000 A 
ATOM      8  C   UNL     1       3.132   2.528  19.784  0.00  0.00    +0.000 A 
ATOM      9  C   UNL     1       2.956   3.538  18.822  0.00  0.00    +0.000 A 
BRANCH   4  11
ATOM     10  C   UNL     1       2.570   7.034  18.651  0.00  0.00    +0.000 C 
ATOM     11  O   UNL     1       2.192   5.718  18.251  0.00  0.00    +0.000 OA
ENDBRANCH   4  11
ENDBRANCH   3   9
ENDBRANCH   1   3
BRANCH   1  12
ATOM     12  C   UNL     1       5.458   3.864  16.263  0.00  0.00    +0.000 C 
BRANCH  12  13
ATOM     13  C   UNL     1       6.402   4.964  15.710  0.00  0.00    +0.000 C 
BRANCH  13  14
ATOM     14  C   UNL     1       7.009   5.809  16.799  0.00  0.00    +0.000 A 
ATOM     15  C   UNL     1       7.311   7.159  16.813  0.00  0.00    +0.000 A 
ATOM     16  C   UNL     1       7.931   7.550  18.026  0.00  0.00    +0.000 A 
ATOM     17 BR   UNL     1       8.498   9.322  18.332  0.00  0.00    +0.000 Br
ATOM     18  C   UNL     1       8.079   6.520  18.918  0.00  0.00    +0.000 A 
ATOM     19  S   UNL     1       7.457   5.059  18.285  0.00  0.00    +0.000 S 
ENDBRANCH  13  14
BRANCH  13  20
ATOM     20  O   UNL     1       5.682   5.835  14.831  0.00  0.00    +0.000 OA
ATOM     21  H   UNL     1       5.868   5.547  13.925  0.00  0.00    +0.000 HD
ENDBRANCH  13  20
ENDBRANCH  12  13
ENDBRANCH   1  12
TORSDOF 7
ENDMDL
MODEL 5
REMARK VINA RESULT:      -6.2      5.780      7.687
REMARK  Name = 
REMARK  8 active torsions:
REMARK  status: ('A' for Active; 'I' for Inactive)
REMARK    1  A    between atoms: C_1  and  O_2
REMARK    2  A    between atoms: O_2  and  C_3
REMARK    3  A    between atoms: C_8  and  C_9
REMARK    4  A    between atoms: C_9  and  N_10
REMARK    5  A    between atoms: N_10  and  C_11
REMARK    6  A    between atoms: C_11  and  C_12
REMARK    7  A    between atoms: C_12  and  O_13
REMARK    8  A    between atoms: C_12  and  C_14
REMARK                            x       y       z     vdW  Elec       q    Type
REMARK                         _______ _______ _______ _____ _____    ______ ____
ROOT
ATOM      1  N   UNL     1       5.566   3.520  18.876  0.00  0.00    +0.000 NA
ATOM      2  H   UNL     1       5.436   3.210  19.841  0.00  0.00    +0.000 HD
ENDROOT
BRANCH   1   3
ATOM      3  C   UNL     1       4.228   3.604  18.269  0.00  0.00    +0.000 C 
BRANCH   3   9
ATOM      4  C   UNL     1       2.752   4.313  20.242  0.00  0.00    +0.000 A 
ATOM      5  C   UNL     1       2.022   5.307  20.906  0.00  0.00    +0.000 A 
ATOM      6  C   UNL     1       1.815   6.552  20.312  0.00  0.00    +0.000 A 
ATOM      7  C   UNL     1       2.343   6.819  19.054  0.00  0.00    +0.000 A 
ATOM      8  C   UNL     1       3.101   5.847  18.400  0.00  0.00    +0.000 A 
ATOM      9  C   UNL     1       3.330   4.591  18.988  0.00  0.00    +0.000 A 
BRANCH   4  11
ATOM     10  C   UNL     1       1.917   2.537  21.555  0.00  0.00    +0.000 C 
ATOM     11  O   UNL     1       2.995   3.079  20.795  0.00  0.00    +0.000 OA
ENDBRANCH   4  11
ENDBRANCH   3   9
ENDBRANCH   1   3
BRANCH   1  12
ATOM     12  C   UNL     1       6.252   4.828  18.877  0.00  0.00    +0.000 C 
BRANCH  12  13
ATOM     13  C   UNL     1       7.285   5.031  17.738  0.00  0.00    +0.000 C 
BRANCH  13  14
ATOM     14  C   UNL     1       6.655   4.985  16.370  0.00  0.00    +0.000 A 
ATOM     15  C   UNL     1       6.831   4.077  15.340  0.00  0.00    +0.000 A 
ATOM     16  C   UNL     1       6.086   4.433  14.189  0.00  0.00    +0.000 A 
ATOM     17 BR   UNL     1       6.148   3.412  12.605  0.00  0.00    +0.000 Br
ATOM     18  C   UNL     1       5.350   5.578  14.348  0.00  0.00    +0.000 A 
ATOM     19  S   UNL     1       5.556   6.232  15.915  0.00  0.00    +0.000 S 
ENDBRANCH  13  14
BRANCH  13  20
ATOM     20  O   UNL     1       8.287   4.010  17.792  0.00  0.00    +0.000 OA
ATOM     21  H   UNL     1       7.828   3.157  17.774  0.00  0.00    +0.000 HD
ENDBRANCH  13  20
ENDBRANCH  12  13
ENDBRANCH   1  12
TORSDOF 7
ENDMDL
MODEL 6
REMARK VINA RESULT:      -6.1      6.272      8.615
REMARK  Name = 
REMARK  8 active torsions:
REMARK  status: ('A' for Active; 'I' for Inactive)
REMARK    1  A    between atoms: C_1  and  O_2
REMARK    2  A    between atoms: O_2  and  C_3
REMARK    3  A    between atoms: C_8  and  C_9
REMARK    4  A    between atoms: C_9  and  N_10
REMARK    5  A    between atoms: N_10  and  C_11
REMARK    6  A    between atoms: C_11  and  C_12
REMARK    7  A    between atoms: C_12  and  O_13
REMARK    8  A    between atoms: C_12  and  C_14
REMARK                            x       y       z     vdW  Elec       q    Type
REMARK                         _______ _______ _______ _____ _____    ______ ____
ROOT
ATOM      1  N   UNL     1       5.026   4.891  17.490  0.00  0.00    +0.000 NA
ATOM      2  H   UNL     1       4.630   5.481  18.224  0.00  0.00    +0.000 HD
ENDROOT
BRANCH   1   3
ATOM      3  C   UNL     1       3.938   4.035  16.992  0.00  0.00    +0.000 C 
BRANCH   3   9
ATOM      4  C   UNL     1       2.271   4.699  18.823  0.00  0.00    +0.000 A 
ATOM      5  C   UNL     1       1.266   4.336  19.728  0.00  0.00    +0.000 A 
ATOM      6  C   UNL     1       0.944   2.994  19.930  0.00  0.00    +0.000 A 
ATOM      7  C   UNL     1       1.617   2.003  19.224  0.00  0.00    +0.000 A 
ATOM      8  C   UNL     1       2.596   2.357  18.296  0.00  0.00    +0.000 A 
ATOM      9  C   UNL     1       2.925   3.705  18.070  0.00  0.00    +0.000 A 
BRANCH   4  11
ATOM     10  C   UNL     1       2.368   6.904  19.663  0.00  0.00    +0.000 C 
ATOM     11  O   UNL     1       2.610   6.008  18.580  0.00  0.00    +0.000 OA
ENDBRANCH   4  11
ENDBRANCH   3   9
ENDBRANCH   1   3
BRANCH   1  12
ATOM     12  C   UNL     1       5.580   5.752  16.425  0.00  0.00    +0.000 C 
BRANCH  12  13
ATOM     13  C   UNL     1       6.951   5.299  15.857  0.00  0.00    +0.000 C 
BRANCH  13  14
ATOM     14  C   UNL     1       6.851   4.782  14.445  0.00  0.00    +0.000 A 
ATOM     15  C   UNL     1       5.998   3.839  13.901  0.00  0.00    +0.000 A 
ATOM     16  C   UNL     1       6.277   3.599  12.533  0.00  0.00    +0.000 A 
ATOM     17 BR   UNL     1       5.309   2.335  11.523  0.00  0.00    +0.000 Br
ATOM     18  C   UNL     1       7.310   4.358  12.047  0.00  0.00    +0.000 A 
ATOM     19  S   UNL     1       7.950   5.380  13.259  0.00  0.00    +0.000 S 
ENDBRANCH  13  14
BRANCH  13  20
ATOM     20  O   UNL     1       7.499   4.253  16.666  0.00  0.00    +0.000 OA
ATOM     21  H   UNL     1       7.229   3.411  16.269  0.00  0.00    +0.000 HD
ENDBRANCH  13  20
ENDBRANCH  12  13
ENDBRANCH   1  12
TORSDOF 7
ENDMDL
MODEL 7
REMARK VINA RESULT:      -6.1      6.368      8.530
REMARK  Name = 
REMARK  8 active torsions:
REMARK  status: ('A' for Active; 'I' for Inactive)
REMARK    1  A    between atoms: C_1  and  O_2
REMARK    2  A    between atoms: O_2  and  C_3
REMARK    3  A    between atoms: C_8  and  C_9
REMARK    4  A    between atoms: C_9  and  N_10
REMARK    5  A    between atoms: N_10  and  C_11
REMARK    6  A    between atoms: C_11  and  C_12
REMARK    7  A    between atoms: C_12  and  O_13
REMARK    8  A    between atoms: C_12  and  C_14
REMARK                            x       y       z     vdW  Elec       q    Type
REMARK                         _______ _______ _______ _____ _____    ______ ____
ROOT
ATOM      1  N   UNL     1       5.128   3.875  17.421  0.00  0.00    +0.000 NA
ATOM      2  H   UNL     1       4.917   2.911  17.157  0.00  0.00    +0.000 HD
ENDROOT
BRANCH   1   3
ATOM      3  C   UNL     1       5.085   3.937  18.890  0.00  0.00    +0.000 C 
BRANCH   3   9
ATOM      4  C   UNL     1       2.584   4.499  18.937  0.00  0.00    +0.000 A 
ATOM      5  C   UNL     1       1.293   4.219  19.401  0.00  0.00    +0.000 A 
ATOM      6  C   UNL     1       1.089   3.258  20.392  0.00  0.00    +0.000 A 
ATOM      7  C   UNL     1       2.171   2.563  20.920  0.00  0.00    +0.000 A 
ATOM      8  C   UNL     1       3.456   2.811  20.439  0.00  0.00    +0.000 A 
ATOM      9  C   UNL     1       3.680   3.767  19.433  0.00  0.00    +0.000 A 
BRANCH   4  11
ATOM     10  C   UNL     1       2.724   6.786  18.362  0.00  0.00    +0.000 C 
ATOM     11  O   UNL     1       2.831   5.424  17.951  0.00  0.00    +0.000 OA
ENDBRANCH   4  11
ENDBRANCH   3   9
ENDBRANCH   1   3
BRANCH   1  12
ATOM     12  C   UNL     1       6.459   4.241  16.894  0.00  0.00    +0.000 C 
BRANCH  12  13
ATOM     13  C   UNL     1       6.454   5.335  15.794  0.00  0.00    +0.000 C 
BRANCH  13  14
ATOM     14  C   UNL     1       6.552   4.760  14.405  0.00  0.00    +0.000 A 
ATOM     15  C   UNL     1       5.796   3.775  13.794  0.00  0.00    +0.000 A 
ATOM     16  C   UNL     1       6.258   3.488  12.486  0.00  0.00    +0.000 A 
ATOM     17 BR   UNL     1       5.456   2.162  11.412  0.00  0.00    +0.000 Br
ATOM     18  C   UNL     1       7.331   4.252  12.108  0.00  0.00    +0.000 A 
ATOM     19  S   UNL     1       7.786   5.336  13.349  0.00  0.00    +0.000 S 
ENDBRANCH  13  14
BRANCH  13  20
ATOM     20  O   UNL     1       7.560   6.225  15.977  0.00  0.00    +0.000 OA
ATOM     21  H   UNL     1       7.469   6.618  16.859  0.00  0.00    +0.000 HD
ENDBRANCH  13  20
ENDBRANCH  12  13
ENDBRANCH   1  12
TORSDOF 7
ENDMDL
MODEL 8
REMARK VINA RESULT:      -6.1      6.252      8.367
REMARK  Name = 
REMARK  8 active torsions:
REMARK  status: ('A' for Active; 'I' for Inactive)
REMARK    1  A    between atoms: C_1  and  O_2
REMARK    2  A    between atoms: O_2  and  C_3
REMARK    3  A    between atoms: C_8  and  C_9
REMARK    4  A    between atoms: C_9  and  N_10
REMARK    5  A    between atoms: N_10  and  C_11
REMARK    6  A    between atoms: C_11  and  C_12
REMARK    7  A    between atoms: C_12  and  O_13
REMARK    8  A    between atoms: C_12  and  C_14
REMARK                            x       y       z     vdW  Elec       q    Type
REMARK                         _______ _______ _______ _____ _____    ______ ____
ROOT
ATOM      1  N   UNL     1       5.733   4.282  18.124  0.00  0.00    +0.000 NA
ATOM      2  H   UNL     1       6.738   4.232  18.296  0.00  0.00    +0.000 HD
ENDROOT
BRANCH   1   3
ATOM      3  C   UNL     1       5.153   5.100  19.202  0.00  0.00    +0.000 C 
BRANCH   3   9
ATOM      4  C   UNL     1       3.664   3.183  20.027  0.00  0.00    +0.000 A 
ATOM      5  C   UNL     1       2.457   2.750  20.589  0.00  0.00    +0.000 A 
ATOM      6  C   UNL     1       1.402   3.643  20.779  0.00  0.00    +0.000 A 
ATOM      7  C   UNL     1       1.547   4.977  20.419  0.00  0.00    +0.000 A 
ATOM      8  C   UNL     1       2.758   5.425  19.890  0.00  0.00    +0.000 A 
ATOM      9  C   UNL     1       3.836   4.542  19.702  0.00  0.00    +0.000 A 
BRANCH   4  11
ATOM     10  C   UNL     1       4.989   1.439  20.910  0.00  0.00    +0.000 C 
ATOM     11  O   UNL     1       4.735   2.343  19.837  0.00  0.00    +0.000 OA
ENDBRANCH   4  11
ENDBRANCH   3   9
ENDBRANCH   1   3
BRANCH   1  12
ATOM     12  C   UNL     1       5.499   4.880  16.793  0.00  0.00    +0.000 C 
BRANCH  12  13
ATOM     13  C   UNL     1       6.777   5.149  15.957  0.00  0.00    +0.000 C 
BRANCH  13  14
ATOM     14  C   UNL     1       6.633   4.713  14.522  0.00  0.00    +0.000 A 
ATOM     15  C   UNL     1       5.619   4.001  13.906  0.00  0.00    +0.000 A 
ATOM     16  C   UNL     1       5.903   3.750  12.541  0.00  0.00    +0.000 A 
ATOM     17 BR   UNL     1       4.729   2.766  11.441  0.00  0.00    +0.000 Br
ATOM     18  C   UNL     1       7.099   4.276  12.128  0.00  0.00    +0.000 A 
ATOM     19  S   UNL     1       7.891   5.090  13.406  0.00  0.00    +0.000 S 
ENDBRANCH  13  14
BRANCH  13  20
ATOM     20  O   UNL     1       7.890   4.444  16.517  0.00  0.00    +0.000 OA
ATOM     21  H   UNL     1       7.541   3.648  16.946  0.00  0.00    +0.000 HD
ENDBRANCH  13  20
ENDBRANCH  12  13
ENDBRANCH   1  12
TORSDOF 7
ENDMDL
MODEL 9
REMARK VINA RESULT:      -6.0      1.982      2.125
REMARK  Name = 
REMARK  8 active torsions:
REMARK  status: ('A' for Active; 'I' for Inactive)
REMARK    1  A    between atoms: C_1  and  O_2
REMARK    2  A    between atoms: O_2  and  C_3
REMARK    3  A    between atoms: C_8  and  C_9
REMARK    4  A    between atoms: C_9  and  N_10
REMARK    5  A    between atoms: N_10  and  C_11
REMARK    6  A    between atoms: C_11  and  C_12
REMARK    7  A    between atoms: C_12  and  O_13
REMARK    8  A    between atoms: C_12  and  C_14
REMARK                            x       y       z     vdW  Elec       q    Type
REMARK                         _______ _______ _______ _____ _____    ______ ____
ROOT
ATOM      1  N   UNL     1       8.580   8.583  18.821  0.00  0.00    +0.000 NA
ATOM      2  H   UNL     1       9.571   8.341  18.757  0.00  0.00    +0.000 HD
ENDROOT
BRANCH   1   3
ATOM      3  C   UNL     1       8.456   9.994  18.423  0.00  0.00    +0.000 C 
BRANCH   3   9
ATOM      4  C   UNL     1       9.921  11.211  20.139  0.00  0.00    +0.000 A 
ATOM      5  C   UNL     1      11.116  11.870  20.453  0.00  0.00    +0.000 A 
ATOM      6  C   UNL     1      12.038  12.183  19.454  0.00  0.00    +0.000 A 
ATOM      7  C   UNL     1      11.778  11.833  18.134  0.00  0.00    +0.000 A 
ATOM      8  C   UNL     1      10.606  11.146  17.816  0.00  0.00    +0.000 A 
ATOM      9  C   UNL     1       9.671  10.812  18.812  0.00  0.00    +0.000 A 
BRANCH   4  11
ATOM     10  C   UNL     1       8.669  11.904  22.018  0.00  0.00    +0.000 C 
ATOM     11  O   UNL     1       8.993  10.868  21.092  0.00  0.00    +0.000 OA
ENDBRANCH   4  11
ENDBRANCH   3   9
ENDBRANCH   1   3
BRANCH   1  12
ATOM     12  C   UNL     1       7.805   7.691  17.935  0.00  0.00    +0.000 C 
BRANCH  12  13
ATOM     13  C   UNL     1       7.825   6.191  18.330  0.00  0.00    +0.000 C 
BRANCH  13  14
ATOM     14  C   UNL     1       6.983   5.340  17.415  0.00  0.00    +0.000 A 
ATOM     15  C   UNL     1       7.073   5.147  16.047  0.00  0.00    +0.000 A 
ATOM     16  C   UNL     1       6.042   4.304  15.563  0.00  0.00    +0.000 A 
ATOM     17 BR   UNL     1       5.873   3.884  13.733  0.00  0.00    +0.000 Br
ATOM     18  C   UNL     1       5.199   3.855  16.546  0.00  0.00    +0.000 A 
ATOM     19  S   UNL     1       5.661   4.456  18.079  0.00  0.00    +0.000 S 
ENDBRANCH  13  14
BRANCH  13  20
ATOM     20  O   UNL     1       7.326   6.024  19.662  0.00  0.00    +0.000 OA
ATOM     21  H   UNL     1       7.844   6.607  20.237  0.00  0.00    +0.000 HD
ENDBRANCH  13  20
ENDBRANCH  12  13
ENDBRANCH   1  12
TORSDOF 7
ENDMDL
