MODEL 1
REMARK VINA RESULT:      -8.2      0.000      0.000
REMARK  Name = 
REMARK  4 active torsions:
REMARK  status: ('A' for Active; 'I' for Inactive)
REMARK    1  A    between atoms: C_1  and  C_2
REMARK    2  A    between atoms: C_6  and  C_7
REMARK    3  A    between atoms: C_7  and  O_8
REMARK    4  A    between atoms: O_8  and  C_9
REMARK                            x       y       z     vdW  Elec       q    Type
REMARK                         _______ _______ _______ _____ _____    ______ ____
ROOT
ATOM      1  C   UNL     1       5.185   5.933  17.668  0.00  0.00    +0.000 A 
ATOM      2  N   UNL     1       5.902   5.894  18.810  0.00  0.00    +0.000 NA
ATOM      3  C   UNL     1       7.172   5.447  18.756  0.00  0.00    +0.000 A 
ATOM      4  N   UNL     1       7.877   5.430  19.947  0.00  0.00    +0.000 N 
ATOM      5  N   UNL     1       7.814   4.986  17.683  0.00  0.00    +0.000 NA
ATOM      6  C   UNL     1       7.089   5.041  16.555  0.00  0.00    +0.000 A 
ATOM      7  N   UNL     1       7.500   4.647  15.309  0.00  0.00    +0.000 NA
ATOM      8  C   UNL     1       6.478   4.891  14.518  0.00  0.00    +0.000 A 
ATOM      9  N   UNL     1       5.416   5.409  15.207  0.00  0.00    +0.000 N 
ATOM     10  C   UNL     1       5.793   5.510  16.515  0.00  0.00    +0.000 A 
ATOM     11  H   UNL     1       7.247   5.363  20.735  0.00  0.00    +0.000 HD
ATOM     12  H   UNL     1       8.628   4.759  19.891  0.00  0.00    +0.000 HD
ATOM     13  H   UNL     1       4.517   5.672  14.827  0.00  0.00    +0.000 HD
ENDROOT
BRANCH   1  14
ATOM     14  O   UNL     1       3.875   6.359  17.641  0.00  0.00    +0.000 OA
BRANCH  14  15
ATOM     15  C   UNL     1       3.262   6.354  18.930  0.00  0.00    +0.000 C 
BRANCH  15  21
ATOM     16  C   UNL     1       1.444   2.642  21.831  0.00  0.00    +0.000 C 
ATOM     17  C   UNL     1       1.571   3.280  20.477  0.00  0.00    +0.000 A 
ATOM     18  C   UNL     1       0.967   2.713  19.352  0.00  0.00    +0.000 A 
ATOM     19  C   UNL     1       1.101   3.319  18.103  0.00  0.00    +0.000 A 
ATOM     20  C   UNL     1       1.843   4.494  17.967  0.00  0.00    +0.000 A 
ATOM     21  C   UNL     1       2.465   5.076  19.078  0.00  0.00    +0.000 A 
ATOM     22  C   UNL     1       2.315   4.463  20.333  0.00  0.00    +0.000 A 
ENDBRANCH  15  21
ENDBRANCH  14  15
ENDBRANCH   1  14
TORSDOF 3
ENDMDL
MODEL 2
REMARK VINA RESULT:      -8.2      1.381      3.055
REMARK  Name = 
REMARK  4 active torsions:
REMARK  status: ('A' for Active; 'I' for Inactive)
REMARK    1  A    between atoms: C_1  and  C_2
REMARK    2  A    between atoms: C_6  and  C_7
REMARK    3  A    between atoms: C_7  and  O_8
REMARK    4  A    between atoms: O_8  and  C_9
REMARK                            x       y       z     vdW  Elec       q    Type
REMARK                         _______ _______ _______ _____ _____    ______ ____
ROOT
ATOM      1  C   UNL     1       5.462   3.977  16.778  0.00  0.00    +0.000 A 
ATOM      2  N   UNL     1       5.788   4.163  15.483  0.00  0.00    +0.000 NA
ATOM      3  C   UNL     1       6.803   5.000  15.189  0.00  0.00    +0.000 A 
ATOM      4  N   UNL     1       7.112   5.158  13.849  0.00  0.00    +0.000 N 
ATOM      5  N   UNL     1       7.520   5.722  16.050  0.00  0.00    +0.000 NA
ATOM      6  C   UNL     1       7.188   5.517  17.334  0.00  0.00    +0.000 A 
ATOM      7  N   UNL     1       7.767   6.112  18.424  0.00  0.00    +0.000 NA
ATOM      8  C   UNL     1       7.137   5.608  19.463  0.00  0.00    +0.000 A 
ATOM      9  N   UNL     1       6.163   4.726  19.087  0.00  0.00    +0.000 N 
ATOM     10  C   UNL     1       6.183   4.657  17.725  0.00  0.00    +0.000 A 
ATOM     11  H   UNL     1       6.306   4.960  13.270  0.00  0.00    +0.000 HD
ATOM     12  H   UNL     1       7.583   6.039  13.708  0.00  0.00    +0.000 HD
ATOM     13  H   UNL     1       5.540   4.214  19.698  0.00  0.00    +0.000 HD
ENDROOT
BRANCH   1  14
ATOM     14  O   UNL     1       4.427   3.153  17.161  0.00  0.00    +0.000 OA
BRANCH  14  15
ATOM     15  C   UNL     1       3.144   3.759  16.999  0.00  0.00    +0.000 C 
BRANCH  15  21
ATOM     16  C   UNL     1       1.408   2.703  21.621  0.00  0.00    +0.000 C 
ATOM     17  C   UNL     1       1.824   3.720  20.598  0.00  0.00    +0.000 A 
ATOM     18  C   UNL     1       1.769   5.088  20.877  0.00  0.00    +0.000 A 
ATOM     19  C   UNL     1       2.157   6.018  19.912  0.00  0.00    +0.000 A 
ATOM     20  C   UNL     1       2.599   5.588  18.659  0.00  0.00    +0.000 A 
ATOM     21  C   UNL     1       2.656   4.222  18.354  0.00  0.00    +0.000 A 
ATOM     22  C   UNL     1       2.272   3.295  19.336  0.00  0.00    +0.000 A 
ENDBRANCH  15  21
ENDBRANCH  14  15
ENDBRANCH   1  14
TORSDOF 3
ENDMDL
MODEL 3
REMARK VINA RESULT:      -8.0      1.315      1.789
REMARK  Name = 
REMARK  4 active torsions:
REMARK  status: ('A' for Active; 'I' for Inactive)
REMARK    1  A    between atoms: C_1  and  C_2
REMARK    2  A    between atoms: C_6  and  C_7
REMARK    3  A    between atoms: C_7  and  O_8
REMARK    4  A    between atoms: O_8  and  C_9
REMARK                            x       y       z     vdW  Elec       q    Type
REMARK                         _______ _______ _______ _____ _____    ______ ____
ROOT
ATOM      1  C   UNL     1       5.386   3.863  17.298  0.00  0.00    +0.000 A 
ATOM      2  N   UNL     1       5.931   4.288  18.456  0.00  0.00    +0.000 NA
ATOM      3  C   UNL     1       7.027   5.071  18.401  0.00  0.00    +0.000 A 
ATOM      4  N   UNL     1       7.551   5.493  19.611  0.00  0.00    +0.000 N 
ATOM      5  N   UNL     1       7.683   5.454  17.307  0.00  0.00    +0.000 NA
ATOM      6  C   UNL     1       7.122   5.030  16.164  0.00  0.00    +0.000 A 
ATOM      7  N   UNL     1       7.575   5.286  14.897  0.00  0.00    +0.000 NA
ATOM      8  C   UNL     1       6.716   4.688  14.100  0.00  0.00    +0.000 A 
ATOM      9  N   UNL     1       5.737   4.040  14.802  0.00  0.00    +0.000 N 
ATOM     10  C   UNL     1       5.985   4.250  16.127  0.00  0.00    +0.000 A 
ATOM     11  H   UNL     1       7.305   4.850  20.352  0.00  0.00    +0.000 HD
ATOM     12  H   UNL     1       8.527   5.726  19.499  0.00  0.00    +0.000 HD
ATOM     13  H   UNL     1       4.969   3.505  14.419  0.00  0.00    +0.000 HD
ENDROOT
BRANCH   1  14
ATOM     14  O   UNL     1       4.277   3.045  17.268  0.00  0.00    +0.000 OA
BRANCH  14  15
ATOM     15  C   UNL     1       3.059   3.768  17.088  0.00  0.00    +0.000 C 
BRANCH  15  21
ATOM     16  C   UNL     1       1.372   2.713  21.729  0.00  0.00    +0.000 C 
ATOM     17  C   UNL     1       1.762   3.731  20.697  0.00  0.00    +0.000 A 
ATOM     18  C   UNL     1       1.683   5.100  20.966  0.00  0.00    +0.000 A 
ATOM     19  C   UNL     1       2.048   6.029  19.991  0.00  0.00    +0.000 A 
ATOM     20  C   UNL     1       2.490   5.598  18.739  0.00  0.00    +0.000 A 
ATOM     21  C   UNL     1       2.571   4.232  18.443  0.00  0.00    +0.000 A 
ATOM     22  C   UNL     1       2.211   3.305  19.435  0.00  0.00    +0.000 A 
ENDBRANCH  15  21
ENDBRANCH  14  15
ENDBRANCH   1  14
TORSDOF 3
ENDMDL
MODEL 4
REMARK VINA RESULT:      -8.0      1.454      3.153
REMARK  Name = 
REMARK  4 active torsions:
REMARK  status: ('A' for Active; 'I' for Inactive)
REMARK    1  A    between atoms: C_1  and  C_2
REMARK    2  A    between atoms: C_6  and  C_7
REMARK    3  A    between atoms: C_7  and  O_8
REMARK    4  A    between atoms: O_8  and  C_9
REMARK                            x       y       z     vdW  Elec       q    Type
REMARK                         _______ _______ _______ _____ _____    ______ ____
ROOT
ATOM      1  C   UNL     1       5.497   3.985  16.720  0.00  0.00    +0.000 A 
ATOM      2  N   UNL     1       5.841   4.186  15.431  0.00  0.00    +0.000 NA
ATOM      3  C   UNL     1       6.852   5.036  15.161  0.00  0.00    +0.000 A 
ATOM      4  N   UNL     1       7.180   5.209  13.828  0.00  0.00    +0.000 N 
ATOM      5  N   UNL     1       7.547   5.757  16.040  0.00  0.00    +0.000 NA
ATOM      6  C   UNL     1       7.197   5.537  17.316  0.00  0.00    +0.000 A 
ATOM      7  N   UNL     1       7.752   6.129  18.421  0.00  0.00    +0.000 NA
ATOM      8  C   UNL     1       7.111   5.609  19.445  0.00  0.00    +0.000 A 
ATOM      9  N   UNL     1       6.152   4.720  19.046  0.00  0.00    +0.000 N 
ATOM     10  C   UNL     1       6.195   4.664  17.684  0.00  0.00    +0.000 A 
ATOM     11  H   UNL     1       6.386   5.007  13.235  0.00  0.00    +0.000 HD
ATOM     12  H   UNL     1       7.645   6.096  13.702  0.00  0.00    +0.000 HD
ATOM     13  H   UNL     1       5.526   4.196  19.642  0.00  0.00    +0.000 HD
ENDROOT
BRANCH   1  14
ATOM     14  O   UNL     1       4.464   3.146  17.078  0.00  0.00    +0.000 OA
BRANCH  14  15
ATOM     15  C   UNL     1       3.177   3.713  16.834  0.00  0.00    +0.000 C 
BRANCH  15  21
ATOM     16  C   UNL     1       1.702   6.586  20.715  0.00  0.00    +0.000 C 
ATOM     17  C   UNL     1       1.730   5.248  20.036  0.00  0.00    +0.000 A 
ATOM     18  C   UNL     1       1.102   4.136  20.604  0.00  0.00    +0.000 A 
ATOM     19  C   UNL     1       1.142   2.901  19.958  0.00  0.00    +0.000 A 
ATOM     20  C   UNL     1       1.814   2.764  18.742  0.00  0.00    +0.000 A 
ATOM     21  C   UNL     1       2.457   3.861  18.156  0.00  0.00    +0.000 A 
ATOM     22  C   UNL     1       2.402   5.103  18.810  0.00  0.00    +0.000 A 
ENDBRANCH  15  21
ENDBRANCH  14  15
ENDBRANCH   1  14
TORSDOF 3
ENDMDL
MODEL 5
REMARK VINA RESULT:      -7.9      1.401      1.973
REMARK  Name = 
REMARK  4 active torsions:
REMARK  status: ('A' for Active; 'I' for Inactive)
REMARK    1  A    between atoms: C_1  and  C_2
REMARK    2  A    between atoms: C_6  and  C_7
REMARK    3  A    between atoms: C_7  and  O_8
REMARK    4  A    between atoms: O_8  and  C_9
REMARK                            x       y       z     vdW  Elec       q    Type
REMARK                         _______ _______ _______ _____ _____    ______ ____
ROOT
ATOM      1  C   UNL     1       5.406   3.832  17.286  0.00  0.00    +0.000 A 
ATOM      2  N   UNL     1       5.910   4.269  18.459  0.00  0.00    +0.000 NA
ATOM      3  C   UNL     1       6.980   5.088  18.433  0.00  0.00    +0.000 A 
ATOM      4  N   UNL     1       7.463   5.521  19.656  0.00  0.00    +0.000 N 
ATOM      5  N   UNL     1       7.648   5.500  17.355  0.00  0.00    +0.000 NA
ATOM      6  C   UNL     1       7.127   5.063  16.199  0.00  0.00    +0.000 A 
ATOM      7  N   UNL     1       7.600   5.341  14.943  0.00  0.00    +0.000 NA
ATOM      8  C   UNL     1       6.779   4.718  14.123  0.00  0.00    +0.000 A 
ATOM      9  N   UNL     1       5.808   4.035  14.801  0.00  0.00    +0.000 N 
ATOM     10  C   UNL     1       6.018   4.246  16.132  0.00  0.00    +0.000 A 
ATOM     11  H   UNL     1       7.221   4.866  20.388  0.00  0.00    +0.000 HD
ATOM     12  H   UNL     1       8.432   5.787  19.567  0.00  0.00    +0.000 HD
ATOM     13  H   UNL     1       5.067   3.476  14.398  0.00  0.00    +0.000 HD
ENDROOT
BRANCH   1  14
ATOM     14  O   UNL     1       4.326   2.979  17.227  0.00  0.00    +0.000 OA
BRANCH  14  15
ATOM     15  C   UNL     1       3.098   3.653  16.954  0.00  0.00    +0.000 C 
BRANCH  15  21
ATOM     16  C   UNL     1       1.659   6.637  20.765  0.00  0.00    +0.000 C 
ATOM     17  C   UNL     1       1.646   5.289  20.103  0.00  0.00    +0.000 A 
ATOM     18  C   UNL     1       0.960   4.213  20.671  0.00  0.00    +0.000 A 
ATOM     19  C   UNL     1       0.963   2.968  20.041  0.00  0.00    +0.000 A 
ATOM     20  C   UNL     1       1.655   2.788  18.843  0.00  0.00    +0.000 A 
ATOM     21  C   UNL     1       2.356   3.849  18.258  0.00  0.00    +0.000 A 
ATOM     22  C   UNL     1       2.338   5.101  18.895  0.00  0.00    +0.000 A 
ENDBRANCH  15  21
ENDBRANCH  14  15
ENDBRANCH   1  14
TORSDOF 3
ENDMDL
MODEL 6
REMARK VINA RESULT:      -7.8      1.603      2.833
REMARK  Name = 
REMARK  4 active torsions:
REMARK  status: ('A' for Active; 'I' for Inactive)
REMARK    1  A    between atoms: C_1  and  C_2
REMARK    2  A    between atoms: C_6  and  C_7
REMARK    3  A    between atoms: C_7  and  O_8
REMARK    4  A    between atoms: O_8  and  C_9
REMARK                            x       y       z     vdW  Elec       q    Type
REMARK                         _______ _______ _______ _____ _____    ______ ____
ROOT
ATOM      1  C   UNL     1       5.394   4.069  17.883  0.00  0.00    +0.000 A 
ATOM      2  N   UNL     1       6.092   4.516  18.947  0.00  0.00    +0.000 NA
ATOM      3  C   UNL     1       7.218   5.223  18.725  0.00  0.00    +0.000 A 
ATOM      4  N   UNL     1       7.901   5.672  19.841  0.00  0.00    +0.000 N 
ATOM      5  N   UNL     1       7.765   5.507  17.543  0.00  0.00    +0.000 NA
ATOM      6  C   UNL     1       7.052   5.062  16.497  0.00  0.00    +0.000 A 
ATOM      7  N   UNL     1       7.371   5.223  15.174  0.00  0.00    +0.000 NA
ATOM      8  C   UNL     1       6.392   4.642  14.514  0.00  0.00    +0.000 A 
ATOM      9  N   UNL     1       5.465   4.095  15.358  0.00  0.00    +0.000 N 
ATOM     10  C   UNL     1       5.875   4.356  16.633  0.00  0.00    +0.000 A 
ATOM     11  H   UNL     1       7.705   5.085  20.641  0.00  0.00    +0.000 HD
ATOM     12  H   UNL     1       8.870   5.836  19.608  0.00  0.00    +0.000 HD
ATOM     13  H   UNL     1       4.628   3.592  15.095  0.00  0.00    +0.000 HD
ENDROOT
BRANCH   1  14
ATOM     14  O   UNL     1       4.243   3.324  18.025  0.00  0.00    +0.000 OA
BRANCH  14  15
ATOM     15  C   UNL     1       3.096   3.961  17.461  0.00  0.00    +0.000 C 
BRANCH  15  21
ATOM     16  C   UNL     1       2.314   8.908  18.101  0.00  0.00    +0.000 C 
ATOM     17  C   UNL     1       2.314   7.516  18.665  0.00  0.00    +0.000 A 
ATOM     18  C   UNL     1       1.961   7.276  19.995  0.00  0.00    +0.000 A 
ATOM     19  C   UNL     1       1.971   5.976  20.500  0.00  0.00    +0.000 A 
ATOM     20  C   UNL     1       2.340   4.906  19.682  0.00  0.00    +0.000 A 
ATOM     21  C   UNL     1       2.705   5.123  18.348  0.00  0.00    +0.000 A 
ATOM     22  C   UNL     1       2.682   6.435  17.847  0.00  0.00    +0.000 A 
ENDBRANCH  15  21
ENDBRANCH  14  15
ENDBRANCH   1  14
TORSDOF 3
ENDMDL
MODEL 7
REMARK VINA RESULT:      -7.7      0.551      1.476
REMARK  Name = 
REMARK  4 active torsions:
REMARK  status: ('A' for Active; 'I' for Inactive)
REMARK    1  A    between atoms: C_1  and  C_2
REMARK    2  A    between atoms: C_6  and  C_7
REMARK    3  A    between atoms: C_7  and  O_8
REMARK    4  A    between atoms: O_8  and  C_9
REMARK                            x       y       z     vdW  Elec       q    Type
REMARK                         _______ _______ _______ _____ _____    ______ ____
ROOT
ATOM      1  C   UNL     1       5.037   5.628  17.594  0.00  0.00    +0.000 A 
ATOM      2  N   UNL     1       5.742   5.678  18.743  0.00  0.00    +0.000 NA
ATOM      3  C   UNL     1       7.066   5.427  18.695  0.00  0.00    +0.000 A 
ATOM      4  N   UNL     1       7.756   5.496  19.893  0.00  0.00    +0.000 N 
ATOM      5  N   UNL     1       7.778   5.085  17.622  0.00  0.00    +0.000 NA
ATOM      6  C   UNL     1       7.061   5.050  16.488  0.00  0.00    +0.000 A 
ATOM      7  N   UNL     1       7.537   4.743  15.240  0.00  0.00    +0.000 NA
ATOM      8  C   UNL     1       6.495   4.844  14.443  0.00  0.00    +0.000 A 
ATOM      9  N   UNL     1       5.362   5.185  15.129  0.00  0.00    +0.000 N 
ATOM     10  C   UNL     1       5.709   5.320  16.441  0.00  0.00    +0.000 A 
ATOM     11  H   UNL     1       7.136   5.323  20.673  0.00  0.00    +0.000 HD
ATOM     12  H   UNL     1       8.600   4.946  19.834  0.00  0.00    +0.000 HD
ATOM     13  H   UNL     1       4.437   5.317  14.743  0.00  0.00    +0.000 HD
ENDROOT
BRANCH   1  14
ATOM     14  O   UNL     1       3.678   5.854  17.561  0.00  0.00    +0.000 OA
BRANCH  14  15
ATOM     15  C   UNL     1       3.156   6.295  18.814  0.00  0.00    +0.000 C 
BRANCH  15  21
ATOM     16  C   UNL     1       0.502   2.006  18.584  0.00  0.00    +0.000 C 
ATOM     17  C   UNL     1       1.228   3.033  19.403  0.00  0.00    +0.000 A 
ATOM     18  C   UNL     1       1.313   2.920  20.794  0.00  0.00    +0.000 A 
ATOM     19  C   UNL     1       1.990   3.888  21.536  0.00  0.00    +0.000 A 
ATOM     20  C   UNL     1       2.583   4.978  20.897  0.00  0.00    +0.000 A 
ATOM     21  C   UNL     1       2.505   5.117  19.506  0.00  0.00    +0.000 A 
ATOM     22  C   UNL     1       1.830   4.132  18.767  0.00  0.00    +0.000 A 
ENDBRANCH  15  21
ENDBRANCH  14  15
ENDBRANCH   1  14
TORSDOF 3
ENDMDL
MODEL 8
REMARK VINA RESULT:      -7.7      1.295      1.327
REMARK  Name = 
REMARK  4 active torsions:
REMARK  status: ('A' for Active; 'I' for Inactive)
REMARK    1  A    between atoms: C_1  and  C_2
REMARK    2  A    between atoms: C_6  and  C_7
REMARK    3  A    between atoms: C_7  and  O_8
REMARK    4  A    between atoms: O_8  and  C_9
REMARK                            x       y       z     vdW  Elec       q    Type
REMARK                         _______ _______ _______ _____ _____    ______ ____
ROOT
ATOM      1  C   UNL     1       4.952   6.515  17.205  0.00  0.00    +0.000 A 
ATOM      2  N   UNL     1       5.762   7.505  17.634  0.00  0.00    +0.000 NA
ATOM      3  C   UNL     1       7.057   7.482  17.262  0.00  0.00    +0.000 A 
ATOM      4  N   UNL     1       7.853   8.520  17.715  0.00  0.00    +0.000 N 
ATOM      5  N   UNL     1       7.664   6.547  16.531  0.00  0.00    +0.000 NA
ATOM      6  C   UNL     1       6.842   5.576  16.107  0.00  0.00    +0.000 A 
ATOM      7  N   UNL     1       7.192   4.501  15.332  0.00  0.00    +0.000 NA
ATOM      8  C   UNL     1       6.075   3.828  15.157  0.00  0.00    +0.000 A 
ATOM      9  N   UNL     1       5.022   4.415  15.802  0.00  0.00    +0.000 N 
ATOM     10  C   UNL     1       5.498   5.536  16.416  0.00  0.00    +0.000 A 
ATOM     11  H   UNL     1       7.477   8.914  18.567  0.00  0.00    +0.000 HD
ATOM     12  H   UNL     1       8.821   8.232  17.720  0.00  0.00    +0.000 HD
ATOM     13  H   UNL     1       4.066   4.087  15.824  0.00  0.00    +0.000 HD
ENDROOT
BRANCH   1  14
ATOM     14  O   UNL     1       3.621   6.455  17.556  0.00  0.00    +0.000 OA
BRANCH  14  15
ATOM     15  C   UNL     1       3.423   6.217  18.950  0.00  0.00    +0.000 C 
BRANCH  15  21
ATOM     16  C   UNL     1       1.471   2.586  21.865  0.00  0.00    +0.000 C 
ATOM     17  C   UNL     1       1.596   3.232  20.515  0.00  0.00    +0.000 A 
ATOM     18  C   UNL     1       0.924   2.717  19.404  0.00  0.00    +0.000 A 
ATOM     19  C   UNL     1       1.056   3.330  18.158  0.00  0.00    +0.000 A 
ATOM     20  C   UNL     1       1.865   4.459  18.011  0.00  0.00    +0.000 A 
ATOM     21  C   UNL     1       2.554   4.988  19.109  0.00  0.00    +0.000 A 
ATOM     22  C   UNL     1       2.406   4.369  20.361  0.00  0.00    +0.000 A 
ENDBRANCH  15  21
ENDBRANCH  14  15
ENDBRANCH   1  14
TORSDOF 3
ENDMDL
MODEL 9
REMARK VINA RESULT:      -7.6      1.743      3.772
REMARK  Name = 
REMARK  4 active torsions:
REMARK  status: ('A' for Active; 'I' for Inactive)
REMARK    1  A    between atoms: C_1  and  C_2
REMARK    2  A    between atoms: C_6  and  C_7
REMARK    3  A    between atoms: C_7  and  O_8
REMARK    4  A    between atoms: O_8  and  C_9
REMARK                            x       y       z     vdW  Elec       q    Type
REMARK                         _______ _______ _______ _____ _____    ______ ____
ROOT
ATOM      1  C   UNL     1       5.429   4.070  16.848  0.00  0.00    +0.000 A 
ATOM      2  N   UNL     1       5.502   3.549  15.606  0.00  0.00    +0.000 NA
ATOM      3  C   UNL     1       6.349   4.113  14.721  0.00  0.00    +0.000 A 
ATOM      4  N   UNL     1       6.400   3.545  13.460  0.00  0.00    +0.000 N 
ATOM      5  N   UNL     1       7.118   5.182  14.919  0.00  0.00    +0.000 NA
ATOM      6  C   UNL     1       7.039   5.681  16.163  0.00  0.00    +0.000 A 
ATOM      7  N   UNL     1       7.728   6.763  16.645  0.00  0.00    +0.000 NA
ATOM      8  C   UNL     1       7.349   6.877  17.900  0.00  0.00    +0.000 A 
ATOM      9  N   UNL     1       6.430   5.924  18.241  0.00  0.00    +0.000 N 
ATOM     10  C   UNL     1       6.222   5.149  17.138  0.00  0.00    +0.000 A 
ATOM     11  H   UNL     1       5.534   3.067  13.247  0.00  0.00    +0.000 HD
ATOM     12  H   UNL     1       6.737   4.223  12.793  0.00  0.00    +0.000 HD
ATOM     13  H   UNL     1       5.986   5.806  19.142  0.00  0.00    +0.000 HD
ENDROOT
BRANCH   1  14
ATOM     14  O   UNL     1       4.576   3.564  17.804  0.00  0.00    +0.000 OA
BRANCH  14  15
ATOM     15  C   UNL     1       3.204   3.851  17.534  0.00  0.00    +0.000 C 
BRANCH  15  21
ATOM     16  C   UNL     1       2.310   8.802  17.960  0.00  0.00    +0.000 C 
ATOM     17  C   UNL     1       2.342   7.436  18.583  0.00  0.00    +0.000 A 
ATOM     18  C   UNL     1       1.993   7.245  19.923  0.00  0.00    +0.000 A 
ATOM     19  C   UNL     1       2.033   5.969  20.484  0.00  0.00    +0.000 A 
ATOM     20  C   UNL     1       2.426   4.874  19.712  0.00  0.00    +0.000 A 
ATOM     21  C   UNL     1       2.787   5.041  18.370  0.00  0.00    +0.000 A 
ATOM     22  C   UNL     1       2.734   6.329  17.813  0.00  0.00    +0.000 A 
ENDBRANCH  15  21
ENDBRANCH  14  15
ENDBRANCH   1  14
TORSDOF 3
ENDMDL
