MODEL 1
REMARK VINA RESULT:      -7.0      0.000      0.000
REMARK  Name = 
REMARK  11 active torsions:
REMARK  status: ('A' for Active; 'I' for Inactive)
REMARK    1  A    between atoms: C_1  and  C_2
REMARK    2  A    between atoms: C_2  and  O_3
REMARK    3  A    between atoms: O_3  and  C_4
REMARK    4  A    between atoms: C_4  and  C_6
REMARK    5  A    between atoms: C_6  and  C_7
REMARK    6  A    between atoms: C_7  and  C_8
REMARK    7  A    between atoms: C_8  and  C_9
REMARK    8  A    between atoms: C_9  and  C_10
REMARK    9  A    between atoms: C_19  and  C_21
REMARK   10  A    between atoms: C_21  and  S_22
REMARK   11  A    between atoms: S_22  and  C_23
REMARK                            x       y       z     vdW  Elec       q    Type
REMARK                         _______ _______ _______ _____ _____    ______ ____
ROOT
ATOM      1  C   UNL     1       6.156   4.753  16.666  0.00  0.00    +0.000 C 
ATOM      2  C   UNL     1       5.217   5.966  16.401  0.00  0.00    +0.000 C 
ATOM      3  C   UNL     1       4.453   6.420  17.652  0.00  0.00    +0.000 C 
ATOM      4  N   UNL     1       3.742   5.295  18.245  0.00  0.00    +0.000 N 
ATOM      5  C   UNL     1       2.354   5.289  18.267  0.00  0.00    +0.000 C 
ATOM      6  O   UNL     1       1.696   6.222  17.786  0.00  0.00    +0.000 OA
ATOM      7  C   UNL     1       4.609   4.196  18.653  0.00  0.00    +0.000 C 
ATOM      8  C   UNL     1       5.357   3.654  17.430  0.00  0.00    +0.000 C 
ENDROOT
BRANCH   1   9
ATOM      9  C   UNL     1       7.345   5.199  17.533  0.00  0.00    +0.000 C 
ATOM     10  O   UNL     1       7.838   4.523  18.426  0.00  0.00    +0.000 OA
BRANCH   9  11
ATOM     11  O   UNL     1       7.760   6.455  17.214  0.00  0.00    +0.000 OA
BRANCH  11  13
ATOM     12  C   UNL     1       8.177   8.762  17.915  0.00  0.00    +0.000 C 
ATOM     13  C   UNL     1       8.043   7.312  18.332  0.00  0.00    +0.000 C 
ENDBRANCH  11  13
ENDBRANCH   9  11
ENDBRANCH   1   9
BRANCH   1  14
ATOM     14  C   UNL     1       6.707   4.200  15.312  0.00  0.00    +0.000 C 
BRANCH  14  15
ATOM     15  C   UNL     1       6.451   5.150  14.127  0.00  0.00    +0.000 C 
BRANCH  15  16
ATOM     16  C   UNL     1       7.255   4.827  12.863  0.00  0.00    +0.000 C 
BRANCH  16  17
ATOM     17  C   UNL     1       6.705   3.577  12.203  0.00  0.00    +0.000 A 
ATOM     18  C   UNL     1       7.563   2.596  11.687  0.00  0.00    +0.000 A 
ATOM     19  C   UNL     1       7.046   1.466  11.037  0.00  0.00    +0.000 A 
ATOM     20  C   UNL     1       5.667   1.312  10.894  0.00  0.00    +0.000 A 
ATOM     21  C   UNL     1       4.807   2.288  11.397  0.00  0.00    +0.000 A 
ATOM     22  C   UNL     1       5.324   3.409  12.042  0.00  0.00    +0.000 A 
ENDBRANCH  16  17
ENDBRANCH  15  16
ENDBRANCH  14  15
ENDBRANCH   1  14
BRANCH   5  23
ATOM     23  C   UNL     1       1.615   4.122  18.909  0.00  0.00    +0.000 C 
BRANCH  23  24
ATOM     24  S   UNL     1       1.427   4.357  20.706  0.00  0.00    +0.000 S 
ATOM     25  C   UNL     1       1.586   2.636  21.256  0.00  0.00    +0.000 C 
ENDBRANCH  23  24
ENDBRANCH   5  23
TORSDOF 9
ENDMDL
MODEL 2
REMARK VINA RESULT:      -6.9      3.034      7.043
REMARK  Name = 
REMARK  11 active torsions:
REMARK  status: ('A' for Active; 'I' for Inactive)
REMARK    1  A    between atoms: C_1  and  C_2
REMARK    2  A    between atoms: C_2  and  O_3
REMARK    3  A    between atoms: O_3  and  C_4
REMARK    4  A    between atoms: C_4  and  C_6
REMARK    5  A    between atoms: C_6  and  C_7
REMARK    6  A    between atoms: C_7  and  C_8
REMARK    7  A    between atoms: C_8  and  C_9
REMARK    8  A    between atoms: C_9  and  C_10
REMARK    9  A    between atoms: C_19  and  C_21
REMARK   10  A    between atoms: C_21  and  S_22
REMARK   11  A    between atoms: S_22  and  C_23
REMARK                            x       y       z     vdW  Elec       q    Type
REMARK                         _______ _______ _______ _____ _____    ______ ____
ROOT
ATOM      1  C   UNL     1       4.967   6.138  17.370  0.00  0.00    +0.000 C 
ATOM      2  C   UNL     1       5.334   5.769  18.838  0.00  0.00    +0.000 C 
ATOM      3  C   UNL     1       5.785   4.311  18.997  0.00  0.00    +0.000 C 
ATOM      4  N   UNL     1       4.786   3.410  18.439  0.00  0.00    +0.000 N 
ATOM      5  C   UNL     1       4.093   2.543  19.273  0.00  0.00    +0.000 C 
ATOM      6  O   UNL     1       4.301   2.518  20.494  0.00  0.00    +0.000 OA
ATOM      7  C   UNL     1       4.527   3.621  17.020  0.00  0.00    +0.000 C 
ATOM      8  C   UNL     1       4.010   5.048  16.801  0.00  0.00    +0.000 C 
ENDROOT
BRANCH   1   9
ATOM      9  C   UNL     1       6.243   6.179  16.513  0.00  0.00    +0.000 C 
ATOM     10  O   UNL     1       7.341   6.526  16.928  0.00  0.00    +0.000 OA
BRANCH   9  11
ATOM     11  O   UNL     1       5.997   5.822  15.223  0.00  0.00    +0.000 OA
BRANCH  11  13
ATOM     12  C   UNL     1       6.224   3.938  13.678  0.00  0.00    +0.000 C 
ATOM     13  C   UNL     1       6.908   4.861  14.667  0.00  0.00    +0.000 C 
ENDBRANCH  11  13
ENDBRANCH   9  11
ENDBRANCH   1   9
BRANCH   1  14
ATOM     14  C   UNL     1       4.292   7.547  17.327  0.00  0.00    +0.000 C 
BRANCH  14  15
ATOM     15  C   UNL     1       2.838   7.532  17.833  0.00  0.00    +0.000 C 
BRANCH  15  16
ATOM     16  C   UNL     1       2.148   8.900  17.837  0.00  0.00    +0.000 C 
BRANCH  16  17
ATOM     17  C   UNL     1       1.390   9.095  19.136  0.00  0.00    +0.000 A 
ATOM     18  C   UNL     1       1.609   8.251  20.234  0.00  0.00    +0.000 A 
ATOM     19  C   UNL     1       0.870   8.411  21.415  0.00  0.00    +0.000 A 
ATOM     20  C   UNL     1      -0.096   9.413  21.506  0.00  0.00    +0.000 A 
ATOM     21  C   UNL     1      -0.325  10.251  20.415  0.00  0.00    +0.000 A 
ATOM     22  C   UNL     1       0.410  10.090  19.243  0.00  0.00    +0.000 A 
ENDBRANCH  16  17
ENDBRANCH  15  16
ENDBRANCH  14  15
ENDBRANCH   1  14
BRANCH   5  23
ATOM     23  C   UNL     1       3.066   1.585  18.681  0.00  0.00    +0.000 C 
BRANCH  23  24
ATOM     24  S   UNL     1       1.386   1.957  19.278  0.00  0.00    +0.000 S 
ATOM     25  C   UNL     1       1.359   3.752  19.012  0.00  0.00    +0.000 C 
ENDBRANCH  23  24
ENDBRANCH   5  23
TORSDOF 9
ENDMDL
MODEL 3
REMARK VINA RESULT:      -6.9      2.365      7.049
REMARK  Name = 
REMARK  11 active torsions:
REMARK  status: ('A' for Active; 'I' for Inactive)
REMARK    1  A    between atoms: C_1  and  C_2
REMARK    2  A    between atoms: C_2  and  O_3
REMARK    3  A    between atoms: O_3  and  C_4
REMARK    4  A    between atoms: C_4  and  C_6
REMARK    5  A    between atoms: C_6  and  C_7
REMARK    6  A    between atoms: C_7  and  C_8
REMARK    7  A    between atoms: C_8  and  C_9
REMARK    8  A    between atoms: C_9  and  C_10
REMARK    9  A    between atoms: C_19  and  C_21
REMARK   10  A    between atoms: C_21  and  S_22
REMARK   11  A    between atoms: S_22  and  C_23
REMARK                            x       y       z     vdW  Elec       q    Type
REMARK                         _______ _______ _______ _____ _____    ______ ____
ROOT
ATOM      1  C   UNL     1       6.874   6.176  17.915  0.00  0.00    +0.000 C 
ATOM      2  C   UNL     1       6.542   5.347  19.190  0.00  0.00    +0.000 C 
ATOM      3  C   UNL     1       5.298   4.464  19.027  0.00  0.00    +0.000 C 
ATOM      4  N   UNL     1       4.165   5.265  18.583  0.00  0.00    +0.000 N 
ATOM      5  C   UNL     1       3.067   5.430  19.416  0.00  0.00    +0.000 C 
ATOM      6  O   UNL     1       3.025   4.912  20.541  0.00  0.00    +0.000 OA
ATOM      7  C   UNL     1       4.380   5.936  17.307  0.00  0.00    +0.000 C 
ATOM      8  C   UNL     1       5.577   6.886  17.424  0.00  0.00    +0.000 C 
ENDROOT
BRANCH   1   9
ATOM      9  C   UNL     1       7.381   5.238  16.806  0.00  0.00    +0.000 C 
ATOM     10  O   UNL     1       8.051   4.234  17.007  0.00  0.00    +0.000 OA
BRANCH   9  11
ATOM     11  O   UNL     1       7.028   5.682  15.569  0.00  0.00    +0.000 OA
BRANCH  11  13
ATOM     12  C   UNL     1       5.730   4.260  14.059  0.00  0.00    +0.000 C 
ATOM     13  C   UNL     1       7.103   4.704  14.520  0.00  0.00    +0.000 C 
ENDBRANCH  11  13
ENDBRANCH   9  11
ENDBRANCH   1   9
BRANCH   1  14
ATOM     14  C   UNL     1       7.993   7.220  18.234  0.00  0.00    +0.000 C 
BRANCH  14  15
ATOM     15  C   UNL     1       7.591   8.661  17.869  0.00  0.00    +0.000 C 
BRANCH  15  16
ATOM     16  C   UNL     1       8.745   9.543  17.383  0.00  0.00    +0.000 C 
BRANCH  16  17
ATOM     17  C   UNL     1       9.020  10.641  18.393  0.00  0.00    +0.000 A 
ATOM     18  C   UNL     1       9.380  10.334  19.713  0.00  0.00    +0.000 A 
ATOM     19  C   UNL     1       9.587  11.355  20.652  0.00  0.00    +0.000 A 
ATOM     20  C   UNL     1       9.432  12.690  20.278  0.00  0.00    +0.000 A 
ATOM     21  C   UNL     1       9.066  13.003  18.969  0.00  0.00    +0.000 A 
ATOM     22  C   UNL     1       8.860  11.986  18.039  0.00  0.00    +0.000 A 
ENDBRANCH  16  17
ENDBRANCH  15  16
ENDBRANCH  14  15
ENDBRANCH   1  14
BRANCH   5  23
ATOM     23  C   UNL     1       1.874   6.249  18.938  0.00  0.00    +0.000 C 
BRANCH  23  24
ATOM     24  S   UNL     1       2.002   7.987  19.469  0.00  0.00    +0.000 S 
ATOM     25  C   UNL     1       2.076   8.796  17.846  0.00  0.00    +0.000 C 
ENDBRANCH  23  24
ENDBRANCH   5  23
TORSDOF 9
ENDMDL
MODEL 4
REMARK VINA RESULT:      -6.8      2.195      6.665
REMARK  Name = 
REMARK  11 active torsions:
REMARK  status: ('A' for Active; 'I' for Inactive)
REMARK    1  A    between atoms: C_1  and  C_2
REMARK    2  A    between atoms: C_2  and  O_3
REMARK    3  A    between atoms: O_3  and  C_4
REMARK    4  A    between atoms: C_4  and  C_6
REMARK    5  A    between atoms: C_6  and  C_7
REMARK    6  A    between atoms: C_7  and  C_8
REMARK    7  A    between atoms: C_8  and  C_9
REMARK    8  A    between atoms: C_9  and  C_10
REMARK    9  A    between atoms: C_19  and  C_21
REMARK   10  A    between atoms: C_21  and  S_22
REMARK   11  A    between atoms: S_22  and  C_23
REMARK                            x       y       z     vdW  Elec       q    Type
REMARK                         _______ _______ _______ _____ _____    ______ ____
ROOT
ATOM      1  C   UNL     1       6.032   6.365  17.477  0.00  0.00    +0.000 C 
ATOM      2  C   UNL     1       6.101   5.810  18.930  0.00  0.00    +0.000 C 
ATOM      3  C   UNL     1       5.458   4.424  19.075  0.00  0.00    +0.000 C 
ATOM      4  N   UNL     1       4.096   4.443  18.559  0.00  0.00    +0.000 N 
ATOM      5  C   UNL     1       3.027   4.246  19.422  0.00  0.00    +0.000 C 
ATOM      6  O   UNL     1       3.201   4.058  20.635  0.00  0.00    +0.000 OA
ATOM      7  C   UNL     1       4.002   4.808  17.151  0.00  0.00    +0.000 C 
ATOM      8  C   UNL     1       4.574   6.216  16.949  0.00  0.00    +0.000 C 
ENDROOT
BRANCH   1   9
ATOM      9  C   UNL     1       6.976   5.559  16.570  0.00  0.00    +0.000 C 
ATOM     10  O   UNL     1       7.823   4.776  16.979  0.00  0.00    +0.000 OA
BRANCH   9  11
ATOM     11  O   UNL     1       6.785   5.850  15.255  0.00  0.00    +0.000 OA
BRANCH  11  13
ATOM     12  C   UNL     1       5.770   4.015  13.994  0.00  0.00    +0.000 C 
ATOM     13  C   UNL     1       7.036   4.771  14.342  0.00  0.00    +0.000 C 
ENDBRANCH  11  13
ENDBRANCH   9  11
ENDBRANCH   1   9
BRANCH   1  14
ATOM     14  C   UNL     1       6.481   7.862  17.457  0.00  0.00    +0.000 C 
BRANCH  14  15
ATOM     15  C   UNL     1       8.012   8.030  17.456  0.00  0.00    +0.000 C 
BRANCH  15  16
ATOM     16  C   UNL     1       8.617   8.373  18.821  0.00  0.00    +0.000 C 
BRANCH  16  17
ATOM     17  C   UNL     1       8.948   9.852  18.885  0.00  0.00    +0.000 A 
ATOM     18  C   UNL     1       9.429  10.435  20.066  0.00  0.00    +0.000 A 
ATOM     19  C   UNL     1       9.688  11.811  20.129  0.00  0.00    +0.000 A 
ATOM     20  C   UNL     1       9.463  12.617  19.013  0.00  0.00    +0.000 A 
ATOM     21  C   UNL     1       8.976  12.047  17.837  0.00  0.00    +0.000 A 
ATOM     22  C   UNL     1       8.719  10.679  17.778  0.00  0.00    +0.000 A 
ENDBRANCH  16  17
ENDBRANCH  15  16
ENDBRANCH  14  15
ENDBRANCH   1  14
BRANCH   5  23
ATOM     23  C   UNL     1       1.605   4.243  18.874  0.00  0.00    +0.000 C 
BRANCH  23  24
ATOM     24  S   UNL     1       0.917   2.558  18.811  0.00  0.00    +0.000 S 
ATOM     25  C   UNL     1       2.380   1.655  18.229  0.00  0.00    +0.000 C 
ENDBRANCH  23  24
ENDBRANCH   5  23
TORSDOF 9
ENDMDL
MODEL 5
REMARK VINA RESULT:      -6.7      3.868      8.536
REMARK  Name = 
REMARK  11 active torsions:
REMARK  status: ('A' for Active; 'I' for Inactive)
REMARK    1  A    between atoms: C_1  and  C_2
REMARK    2  A    between atoms: C_2  and  O_3
REMARK    3  A    between atoms: O_3  and  C_4
REMARK    4  A    between atoms: C_4  and  C_6
REMARK    5  A    between atoms: C_6  and  C_7
REMARK    6  A    between atoms: C_7  and  C_8
REMARK    7  A    between atoms: C_8  and  C_9
REMARK    8  A    between atoms: C_9  and  C_10
REMARK    9  A    between atoms: C_19  and  C_21
REMARK   10  A    between atoms: C_21  and  S_22
REMARK   11  A    between atoms: S_22  and  C_23
REMARK                            x       y       z     vdW  Elec       q    Type
REMARK                         _______ _______ _______ _____ _____    ______ ____
ROOT
ATOM      1  C   UNL     1       3.604   4.810  18.533  0.00  0.00    +0.000 C 
ATOM      2  C   UNL     1       4.161   4.824  17.079  0.00  0.00    +0.000 C 
ATOM      3  C   UNL     1       5.658   4.491  17.005  0.00  0.00    +0.000 C 
ATOM      4  N   UNL     1       6.414   5.366  17.891  0.00  0.00    +0.000 N 
ATOM      5  C   UNL     1       7.316   6.277  17.358  0.00  0.00    +0.000 C 
ATOM      6  O   UNL     1       7.493   6.371  16.135  0.00  0.00    +0.000 OA
ATOM      7  C   UNL     1       6.026   5.267  19.293  0.00  0.00    +0.000 C 
ATOM      8  C   UNL     1       4.549   5.650  19.443  0.00  0.00    +0.000 C 
ENDROOT
BRANCH   1   9
ATOM      9  C   UNL     1       3.562   3.365  19.056  0.00  0.00    +0.000 C 
ATOM     10  O   UNL     1       3.439   2.377  18.344  0.00  0.00    +0.000 OA
BRANCH   9  11
ATOM     11  O   UNL     1       3.637   3.317  20.414  0.00  0.00    +0.000 OA
BRANCH  11  13
ATOM     12  C   UNL     1       1.285   3.139  21.066  0.00  0.00    +0.000 C 
ATOM     13  C   UNL     1       2.654   2.490  21.056  0.00  0.00    +0.000 C 
ENDBRANCH  11  13
ENDBRANCH   9  11
ENDBRANCH   1   9
BRANCH   1  14
ATOM     14  C   UNL     1       2.153   5.390  18.552  0.00  0.00    +0.000 C 
BRANCH  14  15
ATOM     15  C   UNL     1       2.084   6.814  19.134  0.00  0.00    +0.000 C 
BRANCH  15  16
ATOM     16  C   UNL     1       1.513   6.897  20.554  0.00  0.00    +0.000 C 
BRANCH  16  17
ATOM     17  C   UNL     1       1.043   8.310  20.843  0.00  0.00    +0.000 A 
ATOM     18  C   UNL     1       0.579   8.672  22.116  0.00  0.00    +0.000 A 
ATOM     19  C   UNL     1       0.104   9.968  22.360  0.00  0.00    +0.000 A 
ATOM     20  C   UNL     1       0.084  10.911  21.333  0.00  0.00    +0.000 A 
ATOM     21  C   UNL     1       0.535  10.557  20.061  0.00  0.00    +0.000 A 
ATOM     22  C   UNL     1       1.006   9.268  19.821  0.00  0.00    +0.000 A 
ENDBRANCH  16  17
ENDBRANCH  15  16
ENDBRANCH  14  15
ENDBRANCH   1  14
BRANCH   5  23
ATOM     23  C   UNL     1       8.121   7.174  18.290  0.00  0.00    +0.000 C 
BRANCH  23  24
ATOM     24  S   UNL     1       8.026   8.921  17.782  0.00  0.00    +0.000 S 
ATOM     25  C   UNL     1       9.082   9.665  19.057  0.00  0.00    +0.000 C 
ENDBRANCH  23  24
ENDBRANCH   5  23
TORSDOF 9
ENDMDL
MODEL 6
REMARK VINA RESULT:      -6.7      3.666      7.146
REMARK  Name = 
REMARK  11 active torsions:
REMARK  status: ('A' for Active; 'I' for Inactive)
REMARK    1  A    between atoms: C_1  and  C_2
REMARK    2  A    between atoms: C_2  and  O_3
REMARK    3  A    between atoms: O_3  and  C_4
REMARK    4  A    between atoms: C_4  and  C_6
REMARK    5  A    between atoms: C_6  and  C_7
REMARK    6  A    between atoms: C_7  and  C_8
REMARK    7  A    between atoms: C_8  and  C_9
REMARK    8  A    between atoms: C_9  and  C_10
REMARK    9  A    between atoms: C_19  and  C_21
REMARK   10  A    between atoms: C_21  and  S_22
REMARK   11  A    between atoms: S_22  and  C_23
REMARK                            x       y       z     vdW  Elec       q    Type
REMARK                         _______ _______ _______ _____ _____    ______ ____
ROOT
ATOM      1  C   UNL     1       4.417   6.191  17.617  0.00  0.00    +0.000 C 
ATOM      2  C   UNL     1       5.237   5.693  18.843  0.00  0.00    +0.000 C 
ATOM      3  C   UNL     1       5.642   4.216  18.736  0.00  0.00    +0.000 C 
ATOM      4  N   UNL     1       4.470   3.388  18.488  0.00  0.00    +0.000 N 
ATOM      5  C   UNL     1       4.056   2.471  19.444  0.00  0.00    +0.000 C 
ATOM      6  O   UNL     1       4.660   2.339  20.517  0.00  0.00    +0.000 OA
ATOM      7  C   UNL     1       3.759   3.723  17.259  0.00  0.00    +0.000 C 
ATOM      8  C   UNL     1       3.271   5.174  17.330  0.00  0.00    +0.000 C 
ENDROOT
BRANCH   1   9
ATOM      9  C   UNL     1       5.331   6.274  16.383  0.00  0.00    +0.000 C 
ATOM     10  O   UNL     1       5.326   5.464  15.466  0.00  0.00    +0.000 OA
BRANCH   9  11
ATOM     11  O   UNL     1       6.177   7.337  16.452  0.00  0.00    +0.000 OA
BRANCH  11  13
ATOM     12  C   UNL     1       7.989   8.175  17.867  0.00  0.00    +0.000 C 
ATOM     13  C   UNL     1       7.480   7.053  16.985  0.00  0.00    +0.000 C 
ENDBRANCH  11  13
ENDBRANCH   9  11
ENDBRANCH   1   9
BRANCH   1  14
ATOM     14  C   UNL     1       3.839   7.614  17.905  0.00  0.00    +0.000 C 
BRANCH  14  15
ATOM     15  C   UNL     1       2.304   7.624  18.028  0.00  0.00    +0.000 C 
BRANCH  15  16
ATOM     16  C   UNL     1       1.676   9.021  18.083  0.00  0.00    +0.000 C 
BRANCH  16  17
ATOM     17  C   UNL     1       1.079   9.269  19.455  0.00  0.00    +0.000 A 
ATOM     18  C   UNL     1       1.430   8.468  20.551  0.00  0.00    +0.000 A 
ATOM     19  C   UNL     1       0.838   8.676  21.805  0.00  0.00    +0.000 A 
ATOM     20  C   UNL     1      -0.113   9.683  21.971  0.00  0.00    +0.000 A 
ATOM     21  C   UNL     1      -0.474  10.478  20.884  0.00  0.00    +0.000 A 
ATOM     22  C   UNL     1       0.115  10.268  19.639  0.00  0.00    +0.000 A 
ENDBRANCH  16  17
ENDBRANCH  15  16
ENDBRANCH  14  15
ENDBRANCH   1  14
BRANCH   5  23
ATOM     23  C   UNL     1       2.843   1.590  19.169  0.00  0.00    +0.000 C 
BRANCH  23  24
ATOM     24  S   UNL     1       1.285   2.497  19.435  0.00  0.00    +0.000 S 
ATOM     25  C   UNL     1       1.372   2.729  21.232  0.00  0.00    +0.000 C 
ENDBRANCH  23  24
ENDBRANCH   5  23
TORSDOF 9
ENDMDL
MODEL 7
REMARK VINA RESULT:      -6.7      2.633      7.005
REMARK  Name = 
REMARK  11 active torsions:
REMARK  status: ('A' for Active; 'I' for Inactive)
REMARK    1  A    between atoms: C_1  and  C_2
REMARK    2  A    between atoms: C_2  and  O_3
REMARK    3  A    between atoms: O_3  and  C_4
REMARK    4  A    between atoms: C_4  and  C_6
REMARK    5  A    between atoms: C_6  and  C_7
REMARK    6  A    between atoms: C_7  and  C_8
REMARK    7  A    between atoms: C_8  and  C_9
REMARK    8  A    between atoms: C_9  and  C_10
REMARK    9  A    between atoms: C_19  and  C_21
REMARK   10  A    between atoms: C_21  and  S_22
REMARK   11  A    between atoms: S_22  and  C_23
REMARK                            x       y       z     vdW  Elec       q    Type
REMARK                         _______ _______ _______ _____ _____    ______ ____
ROOT
ATOM      1  C   UNL     1       6.973   6.358  17.847  0.00  0.00    +0.000 C 
ATOM      2  C   UNL     1       6.152   5.676  18.980  0.00  0.00    +0.000 C 
ATOM      3  C   UNL     1       4.805   5.122  18.496  0.00  0.00    +0.000 C 
ATOM      4  N   UNL     1       4.044   6.163  17.818  0.00  0.00    +0.000 N 
ATOM      5  C   UNL     1       2.854   6.619  18.368  0.00  0.00    +0.000 C 
ATOM      6  O   UNL     1       2.418   6.162  19.434  0.00  0.00    +0.000 OA
ATOM      7  C   UNL     1       4.717   6.721  16.652  0.00  0.00    +0.000 C 
ATOM      8  C   UNL     1       6.047   7.350  17.081  0.00  0.00    +0.000 C 
ENDROOT
BRANCH   1   9
ATOM      9  C   UNL     1       7.484   5.291  16.864  0.00  0.00    +0.000 C 
ATOM     10  O   UNL     1       8.000   4.234  17.202  0.00  0.00    +0.000 OA
BRANCH   9  11
ATOM     11  O   UNL     1       7.329   5.682  15.570  0.00  0.00    +0.000 OA
BRANCH  11  13
ATOM     12  C   UNL     1       7.364   4.954  13.234  0.00  0.00    +0.000 C 
ATOM     13  C   UNL     1       6.943   4.644  14.656  0.00  0.00    +0.000 C 
ENDBRANCH  11  13
ENDBRANCH   9  11
ENDBRANCH   1   9
BRANCH   1  14
ATOM     14  C   UNL     1       8.204   7.104  18.456  0.00  0.00    +0.000 C 
BRANCH  14  15
ATOM     15  C   UNL     1       8.231   8.603  18.105  0.00  0.00    +0.000 C 
BRANCH  15  16
ATOM     16  C   UNL     1       8.920   9.491  19.146  0.00  0.00    +0.000 C 
BRANCH  16  17
ATOM     17  C   UNL     1       9.350  10.800  18.510  0.00  0.00    +0.000 A 
ATOM     18  C   UNL     1       8.405  11.686  17.973  0.00  0.00    +0.000 A 
ATOM     19  C   UNL     1       8.816  12.871  17.346  0.00  0.00    +0.000 A 
ATOM     20  C   UNL     1      10.173  13.177  17.247  0.00  0.00    +0.000 A 
ATOM     21  C   UNL     1      11.119  12.296  17.771  0.00  0.00    +0.000 A 
ATOM     22  C   UNL     1      10.708  11.119  18.393  0.00  0.00    +0.000 A 
ENDBRANCH  16  17
ENDBRANCH  15  16
ENDBRANCH  14  15
ENDBRANCH   1  14
BRANCH   5  23
ATOM     23  C   UNL     1       2.050   7.691  17.644  0.00  0.00    +0.000 C 
BRANCH  23  24
ATOM     24  S   UNL     1       2.355   9.344  18.347  0.00  0.00    +0.000 S 
ATOM     25  C   UNL     1       0.963   9.442  19.506  0.00  0.00    +0.000 C 
ENDBRANCH  23  24
ENDBRANCH   5  23
TORSDOF 9
ENDMDL
MODEL 8
REMARK VINA RESULT:      -6.6      3.164      7.132
REMARK  Name = 
REMARK  11 active torsions:
REMARK  status: ('A' for Active; 'I' for Inactive)
REMARK    1  A    between atoms: C_1  and  C_2
REMARK    2  A    between atoms: C_2  and  O_3
REMARK    3  A    between atoms: O_3  and  C_4
REMARK    4  A    between atoms: C_4  and  C_6
REMARK    5  A    between atoms: C_6  and  C_7
REMARK    6  A    between atoms: C_7  and  C_8
REMARK    7  A    between atoms: C_8  and  C_9
REMARK    8  A    between atoms: C_9  and  C_10
REMARK    9  A    between atoms: C_19  and  C_21
REMARK   10  A    between atoms: C_21  and  S_22
REMARK   11  A    between atoms: S_22  and  C_23
REMARK                            x       y       z     vdW  Elec       q    Type
REMARK                         _______ _______ _______ _____ _____    ______ ____
ROOT
ATOM      1  C   UNL     1       4.752   5.829  17.443  0.00  0.00    +0.000 C 
ATOM      2  C   UNL     1       5.100   5.548  18.934  0.00  0.00    +0.000 C 
ATOM      3  C   UNL     1       5.441   4.077  19.205  0.00  0.00    +0.000 C 
ATOM      4  N   UNL     1       4.373   3.213  18.719  0.00  0.00    +0.000 N 
ATOM      5  C   UNL     1       3.622   2.468  19.619  0.00  0.00    +0.000 C 
ATOM      6  O   UNL     1       3.836   2.522  20.838  0.00  0.00    +0.000 OA
ATOM      7  C   UNL     1       4.121   3.334  17.288  0.00  0.00    +0.000 C 
ATOM      8  C   UNL     1       3.712   4.774  16.960  0.00  0.00    +0.000 C 
ENDROOT
BRANCH   1   9
ATOM      9  C   UNL     1       6.022   5.707  16.584  0.00  0.00    +0.000 C 
ATOM     10  O   UNL     1       6.924   6.534  16.566  0.00  0.00    +0.000 OA
BRANCH   9  11
ATOM     11  O   UNL     1       6.005   4.586  15.813  0.00  0.00    +0.000 OA
BRANCH  11  13
ATOM     12  C   UNL     1       6.124   3.818  13.493  0.00  0.00    +0.000 C 
ATOM     13  C   UNL     1       6.738   4.675  14.581  0.00  0.00    +0.000 C 
ENDBRANCH  11  13
ENDBRANCH   9  11
ENDBRANCH   1   9
BRANCH   1  14
ATOM     14  C   UNL     1       4.186   7.278  17.291  0.00  0.00    +0.000 C 
BRANCH  14  15
ATOM     15  C   UNL     1       2.869   7.491  18.061  0.00  0.00    +0.000 C 
BRANCH  15  16
ATOM     16  C   UNL     1       2.246   8.881  17.891  0.00  0.00    +0.000 C 
BRANCH  16  17
ATOM     17  C   UNL     1       1.339   9.190  19.066  0.00  0.00    +0.000 A 
ATOM     18  C   UNL     1       0.424  10.252  19.012  0.00  0.00    +0.000 A 
ATOM     19  C   UNL     1      -0.378  10.559  20.121  0.00  0.00    +0.000 A 
ATOM     20  C   UNL     1      -0.268   9.811  21.293  0.00  0.00    +0.000 A 
ATOM     21  C   UNL     1       0.646   8.759  21.357  0.00  0.00    +0.000 A 
ATOM     22  C   UNL     1       1.442   8.457  20.255  0.00  0.00    +0.000 A 
ENDBRANCH  16  17
ENDBRANCH  15  16
ENDBRANCH  14  15
ENDBRANCH   1  14
BRANCH   5  23
ATOM     23  C   UNL     1       2.522   1.549  19.104  0.00  0.00    +0.000 C 
BRANCH  23  24
ATOM     24  S   UNL     1       0.986   2.468  18.768  0.00  0.00    +0.000 S 
ATOM     25  C   UNL     1       0.972   3.571  20.209  0.00  0.00    +0.000 C 
ENDBRANCH  23  24
ENDBRANCH   5  23
TORSDOF 9
ENDMDL
MODEL 9
REMARK VINA RESULT:      -6.6      3.811      8.175
REMARK  Name = 
REMARK  11 active torsions:
REMARK  status: ('A' for Active; 'I' for Inactive)
REMARK    1  A    between atoms: C_1  and  C_2
REMARK    2  A    between atoms: C_2  and  O_3
REMARK    3  A    between atoms: O_3  and  C_4
REMARK    4  A    between atoms: C_4  and  C_6
REMARK    5  A    between atoms: C_6  and  C_7
REMARK    6  A    between atoms: C_7  and  C_8
REMARK    7  A    between atoms: C_8  and  C_9
REMARK    8  A    between atoms: C_9  and  C_10
REMARK    9  A    between atoms: C_19  and  C_21
REMARK   10  A    between atoms: C_21  and  S_22
REMARK   11  A    between atoms: S_22  and  C_23
REMARK                            x       y       z     vdW  Elec       q    Type
REMARK                         _______ _______ _______ _____ _____    ______ ____
ROOT
ATOM      1  C   UNL     1       3.673   4.771  18.304  0.00  0.00    +0.000 C 
ATOM      2  C   UNL     1       4.328   4.804  16.892  0.00  0.00    +0.000 C 
ATOM      3  C   UNL     1       5.835   4.515  16.921  0.00  0.00    +0.000 C 
ATOM      4  N   UNL     1       6.503   5.410  17.856  0.00  0.00    +0.000 N 
ATOM      5  C   UNL     1       7.412   6.348  17.386  0.00  0.00    +0.000 C 
ATOM      6  O   UNL     1       7.670   6.449  16.178  0.00  0.00    +0.000 OA
ATOM      7  C   UNL     1       6.023   5.297  19.228  0.00  0.00    +0.000 C 
ATOM      8  C   UNL     1       4.529   5.637  19.277  0.00  0.00    +0.000 C 
ENDROOT
BRANCH   1   9
ATOM      9  C   UNL     1       3.637   3.324  18.824  0.00  0.00    +0.000 C 
ATOM     10  O   UNL     1       4.507   2.822  19.523  0.00  0.00    +0.000 OA
BRANCH   9  11
ATOM     11  O   UNL     1       2.540   2.655  18.378  0.00  0.00    +0.000 OA
BRANCH  11  13
ATOM     12  C   UNL     1       1.274   2.823  20.465  0.00  0.00    +0.000 C 
ATOM     13  C   UNL     1       1.819   1.919  19.379  0.00  0.00    +0.000 C 
ENDBRANCH  11  13
ENDBRANCH   9  11
ENDBRANCH   1   9
BRANCH   1  14
ATOM     14  C   UNL     1       2.208   5.308  18.224  0.00  0.00    +0.000 C 
BRANCH  14  15
ATOM     15  C   UNL     1       1.986   6.573  19.074  0.00  0.00    +0.000 C 
BRANCH  15  16
ATOM     16  C   UNL     1       2.115   7.891  18.304  0.00  0.00    +0.000 C 
BRANCH  16  17
ATOM     17  C   UNL     1       1.222   8.947  18.928  0.00  0.00    +0.000 A 
ATOM     18  C   UNL     1       0.593   9.920  18.138  0.00  0.00    +0.000 A 
ATOM     19  C   UNL     1      -0.193  10.920  18.730  0.00  0.00    +0.000 A 
ATOM     20  C   UNL     1      -0.352  10.957  20.115  0.00  0.00    +0.000 A 
ATOM     21  C   UNL     1       0.277   9.998  20.908  0.00  0.00    +0.000 A 
ATOM     22  C   UNL     1       1.058   9.006  20.318  0.00  0.00    +0.000 A 
ENDBRANCH  16  17
ENDBRANCH  15  16
ENDBRANCH  14  15
ENDBRANCH   1  14
BRANCH   5  23
ATOM     23  C   UNL     1       8.126   7.266  18.371  0.00  0.00    +0.000 C 
BRANCH  23  24
ATOM     24  S   UNL     1       8.073   9.003  17.823  0.00  0.00    +0.000 S 
ATOM     25  C   UNL     1       9.152   9.749  19.076  0.00  0.00    +0.000 C 
ENDBRANCH  23  24
ENDBRANCH   5  23
TORSDOF 9
ENDMDL
