MODEL 1
REMARK VINA RESULT:      -8.5      0.000      0.000
REMARK  Name = 
REMARK  5 active torsions:
REMARK  status: ('A' for Active; 'I' for Inactive)
REMARK    1  A    between atoms: O_1  and  C_2
REMARK    2  A    between atoms: N_5  and  C_6
REMARK    3  A    between atoms: C_6  and  C_7
REMARK    4  A    between atoms: N_10  and  C_11
REMARK    5  A    between atoms: C_18  and  C_19
REMARK                            x       y       z     vdW  Elec       q    Type
REMARK                         _______ _______ _______ _____ _____    ______ ____
ROOT
ATOM      1  C   UNL     1       2.153   5.713  19.485  0.00  0.00    +0.000 A 
ATOM      2  N   UNL     1       1.328   5.181  20.450  0.00  0.00    +0.000 NA
ATOM      3  C   UNL     1       1.148   3.885  20.636  0.00  0.00    +0.000 A 
ATOM      4  N   UNL     1       1.715   2.937  19.938  0.00  0.00    +0.000 NA
ATOM      5  C   UNL     1       2.560   3.397  19.008  0.00  0.00    +0.000 A 
ATOM      6  S   UNL     1       3.316   2.176  18.120  0.00  0.00    +0.000 S 
ATOM      7  C   UNL     1       4.216   3.302  17.276  0.00  0.00    +0.000 A 
ATOM      8  C   UNL     1       3.895   4.641  17.507  0.00  0.00    +0.000 A 
ATOM      9  C   UNL     1       2.896   4.731  18.669  0.00  0.00    +0.000 A 
ENDROOT
BRANCH   1  13
ATOM     10  C   UNL     1       0.922   9.760  19.048  0.00  0.00    +0.000 C 
ATOM     11  C   UNL     1       0.840   9.054  20.414  0.00  0.00    +0.000 C 
ATOM     12  C   UNL     1       1.802   7.905  20.700  0.00  0.00    +0.000 C 
ATOM     13  N   UNL     1       2.098   7.097  19.551  0.00  0.00    +0.000 N 
ATOM     14  C   UNL     1       2.573   7.870  18.384  0.00  0.00    +0.000 C 
ATOM     15  C   UNL     1       1.541   8.905  17.937  0.00  0.00    +0.000 C 
BRANCH  10  16
ATOM     16  C   UNL     1       1.409  11.237  19.063  0.00  0.00    +0.000 C 
BRANCH  16  20
ATOM     17  C   UNL     1      -1.800  12.947  19.510  0.00  0.00    +0.000 C 
ATOM     18  C   UNL     1      -1.296  12.846  20.937  0.00  0.00    +0.000 C 
ATOM     19  C   UNL     1       0.182  12.482  20.801  0.00  0.00    +0.000 C 
ATOM     20  N   UNL     1       0.439  12.292  19.367  0.00  0.00    +0.000 NA
ATOM     21  C   UNL     1      -0.882  11.973  18.785  0.00  0.00    +0.000 C 
BRANCH  17  22
ATOM     22  O   UNL     1      -3.166  12.583  19.416  0.00  0.00    +0.000 OA
ATOM     23  H   UNL     1      -3.646  13.363  19.086  0.00  0.00    +0.000 HD
ENDBRANCH  17  22
ENDBRANCH  16  20
ENDBRANCH  10  16
ENDBRANCH   1  13
BRANCH   8  24
ATOM     24  C   UNL     1       4.640   5.639  16.562  0.00  0.00    +0.000 C 
ATOM     25  C   UNL     1       5.594   6.615  17.339  0.00  0.00    +0.000 C 
ATOM     26  C   UNL     1       6.740   5.850  18.013  0.00  0.00    +0.000 C 
ATOM     27  C   UNL     1       7.503   4.943  17.041  0.00  0.00    +0.000 C 
ATOM     28  C   UNL     1       6.605   4.176  16.068  0.00  0.00    +0.000 C 
ATOM     29  C   UNL     1       5.558   5.104  15.481  0.00  0.00    +0.000 C 
ENDBRANCH   8  24
TORSDOF 5
ENDMDL
MODEL 2
REMARK VINA RESULT:      -8.4      1.376      1.566
REMARK  Name = 
REMARK  5 active torsions:
REMARK  status: ('A' for Active; 'I' for Inactive)
REMARK    1  A    between atoms: O_1  and  C_2
REMARK    2  A    between atoms: N_5  and  C_6
REMARK    3  A    between atoms: C_6  and  C_7
REMARK    4  A    between atoms: N_10  and  C_11
REMARK    5  A    between atoms: C_18  and  C_19
REMARK                            x       y       z     vdW  Elec       q    Type
REMARK                         _______ _______ _______ _____ _____    ______ ____
ROOT
ATOM      1  C   UNL     1       2.219   5.771  19.450  0.00  0.00    +0.000 A 
ATOM      2  N   UNL     1       1.416   5.273  20.451  0.00  0.00    +0.000 NA
ATOM      3  C   UNL     1       1.249   3.985  20.693  0.00  0.00    +0.000 A 
ATOM      4  N   UNL     1       1.810   3.013  20.023  0.00  0.00    +0.000 NA
ATOM      5  C   UNL     1       2.633   3.441  19.059  0.00  0.00    +0.000 A 
ATOM      6  S   UNL     1       3.382   2.189  18.208  0.00  0.00    +0.000 S 
ATOM      7  C   UNL     1       4.257   3.286  17.302  0.00  0.00    +0.000 A 
ATOM      8  C   UNL     1       3.931   4.631  17.484  0.00  0.00    +0.000 A 
ATOM      9  C   UNL     1       2.953   4.762  18.660  0.00  0.00    +0.000 A 
ENDROOT
BRANCH   1  13
ATOM     10  C   UNL     1       0.984   9.791  18.814  0.00  0.00    +0.000 C 
ATOM     11  C   UNL     1       0.857   9.137  20.202  0.00  0.00    +0.000 C 
ATOM     12  C   UNL     1       1.814   8.006  20.566  0.00  0.00    +0.000 C 
ATOM     13  N   UNL     1       2.155   7.157  19.461  0.00  0.00    +0.000 N 
ATOM     14  C   UNL     1       2.667   7.887  18.282  0.00  0.00    +0.000 C 
ATOM     15  C   UNL     1       1.646   8.897  17.760  0.00  0.00    +0.000 C 
BRANCH  10  16
ATOM     16  C   UNL     1       1.463  11.270  18.789  0.00  0.00    +0.000 C 
BRANCH  16  20
ATOM     17  C   UNL     1       0.804  13.860  21.294  0.00  0.00    +0.000 C 
ATOM     18  C   UNL     1       0.616  14.623  19.997  0.00  0.00    +0.000 C 
ATOM     19  C   UNL     1       0.513  13.540  18.924  0.00  0.00    +0.000 C 
ATOM     20  N   UNL     1       0.740  12.255  19.596  0.00  0.00    +0.000 NA
ATOM     21  C   UNL     1       1.504  12.596  20.814  0.00  0.00    +0.000 C 
BRANCH  17  22
ATOM     22  O   UNL     1       1.582  14.597  22.222  0.00  0.00    +0.000 OA
ATOM     23  H   UNL     1       2.502  14.297  22.123  0.00  0.00    +0.000 HD
ENDBRANCH  17  22
ENDBRANCH  16  20
ENDBRANCH  10  16
ENDBRANCH   1  13
BRANCH   8  24
ATOM     24  C   UNL     1       4.650   5.595  16.485  0.00  0.00    +0.000 C 
ATOM     25  C   UNL     1       5.654   6.569  17.197  0.00  0.00    +0.000 C 
ATOM     26  C   UNL     1       6.816   5.798  17.837  0.00  0.00    +0.000 C 
ATOM     27  C   UNL     1       7.519   4.856  16.854  0.00  0.00    +0.000 C 
ATOM     28  C   UNL     1       6.566   4.086  15.939  0.00  0.00    +0.000 C 
ATOM     29  C   UNL     1       5.510   5.019  15.377  0.00  0.00    +0.000 C 
ENDBRANCH   8  24
TORSDOF 5
ENDMDL
MODEL 3
REMARK VINA RESULT:      -8.2      1.977      2.413
REMARK  Name = 
REMARK  5 active torsions:
REMARK  status: ('A' for Active; 'I' for Inactive)
REMARK    1  A    between atoms: O_1  and  C_2
REMARK    2  A    between atoms: N_5  and  C_6
REMARK    3  A    between atoms: C_6  and  C_7
REMARK    4  A    between atoms: N_10  and  C_11
REMARK    5  A    between atoms: C_18  and  C_19
REMARK                            x       y       z     vdW  Elec       q    Type
REMARK                         _______ _______ _______ _____ _____    ______ ____
ROOT
ATOM      1  C   UNL     1       2.368   6.258  19.834  0.00  0.00    +0.000 A 
ATOM      2  N   UNL     1       1.398   5.620  20.574  0.00  0.00    +0.000 NA
ATOM      3  C   UNL     1       1.408   4.327  20.849  0.00  0.00    +0.000 A 
ATOM      4  N   UNL     1       2.324   3.481  20.459  0.00  0.00    +0.000 NA
ATOM      5  C   UNL     1       3.315   4.054  19.766  0.00  0.00    +0.000 A 
ATOM      6  S   UNL     1       4.516   2.970  19.283  0.00  0.00    +0.000 S 
ATOM      7  C   UNL     1       5.410   4.209  18.611  0.00  0.00    +0.000 A 
ATOM      8  C   UNL     1       4.797   5.463  18.582  0.00  0.00    +0.000 A 
ATOM      9  C   UNL     1       3.491   5.408  19.387  0.00  0.00    +0.000 A 
ENDROOT
BRANCH   1  13
ATOM     10  C   UNL     1       0.376   9.898  18.901  0.00  0.00    +0.000 C 
ATOM     11  C   UNL     1       0.428   9.375  20.348  0.00  0.00    +0.000 C 
ATOM     12  C   UNL     1       1.594   8.482  20.760  0.00  0.00    +0.000 C 
ATOM     13  N   UNL     1       2.045   7.602  19.720  0.00  0.00    +0.000 N 
ATOM     14  C   UNL     1       2.365   8.291  18.452  0.00  0.00    +0.000 C 
ATOM     15  C   UNL     1       1.153   9.039  17.898  0.00  0.00    +0.000 C 
BRANCH  10  16
ATOM     16  C   UNL     1       0.567  11.429  18.712  0.00  0.00    +0.000 C 
BRANCH  16  20
ATOM     17  C   UNL     1       3.509  13.598  18.465  0.00  0.00    +0.000 C 
ATOM     18  C   UNL     1       2.891  14.055  19.773  0.00  0.00    +0.000 C 
ATOM     19  C   UNL     1       1.880  12.964  20.125  0.00  0.00    +0.000 C 
ATOM     20  N   UNL     1       1.878  12.013  19.005  0.00  0.00    +0.000 NA
ATOM     21  C   UNL     1       2.375  12.789  17.850  0.00  0.00    +0.000 C 
BRANCH  17  22
ATOM     22  O   UNL     1       3.894  14.699  17.661  0.00  0.00    +0.000 OA
ATOM     23  H   UNL     1       4.151  14.341  16.793  0.00  0.00    +0.000 HD
ENDBRANCH  17  22
ENDBRANCH  16  20
ENDBRANCH  10  16
ENDBRANCH   1  13
BRANCH   8  24
ATOM     24  C   UNL     1       5.601   6.540  17.784  0.00  0.00    +0.000 C 
ATOM     25  C   UNL     1       7.123   6.178  17.641  0.00  0.00    +0.000 C 
ATOM     26  C   UNL     1       7.315   4.907  16.804  0.00  0.00    +0.000 C 
ATOM     27  C   UNL     1       6.603   4.972  15.449  0.00  0.00    +0.000 C 
ATOM     28  C   UNL     1       5.203   5.586  15.509  0.00  0.00    +0.000 C 
ATOM     29  C   UNL     1       5.220   6.848  16.350  0.00  0.00    +0.000 C 
ENDBRANCH   8  24
TORSDOF 5
ENDMDL
MODEL 4
REMARK VINA RESULT:      -8.2      1.531      1.956
REMARK  Name = 
REMARK  5 active torsions:
REMARK  status: ('A' for Active; 'I' for Inactive)
REMARK    1  A    between atoms: O_1  and  C_2
REMARK    2  A    between atoms: N_5  and  C_6
REMARK    3  A    between atoms: C_6  and  C_7
REMARK    4  A    between atoms: N_10  and  C_11
REMARK    5  A    between atoms: C_18  and  C_19
REMARK                            x       y       z     vdW  Elec       q    Type
REMARK                         _______ _______ _______ _____ _____    ______ ____
ROOT
ATOM      1  C   UNL     1       2.337   5.995  19.795  0.00  0.00    +0.000 A 
ATOM      2  N   UNL     1       1.210   5.405  20.319  0.00  0.00    +0.000 NA
ATOM      3  C   UNL     1       1.076   4.104  20.510  0.00  0.00    +0.000 A 
ATOM      4  N   UNL     1       1.980   3.204  20.227  0.00  0.00    +0.000 NA
ATOM      5  C   UNL     1       3.115   3.726  19.748  0.00  0.00    +0.000 A 
ATOM      6  S   UNL     1       4.297   2.569  19.406  0.00  0.00    +0.000 S 
ATOM      7  C   UNL     1       5.384   3.761  18.974  0.00  0.00    +0.000 A 
ATOM      8  C   UNL     1       4.880   5.062  18.922  0.00  0.00    +0.000 A 
ATOM      9  C   UNL     1       3.454   5.076  19.490  0.00  0.00    +0.000 A 
ENDROOT
BRANCH   1  13
ATOM     10  C   UNL     1       0.732   9.826  18.882  0.00  0.00    +0.000 C 
ATOM     11  C   UNL     1       0.643   9.252  20.308  0.00  0.00    +0.000 C 
ATOM     12  C   UNL     1       1.698   8.246  20.757  0.00  0.00    +0.000 C 
ATOM     13  N   UNL     1       2.139   7.365  19.714  0.00  0.00    +0.000 N 
ATOM     14  C   UNL     1       2.600   8.065  18.496  0.00  0.00    +0.000 C 
ATOM     15  C   UNL     1       1.496   8.935  17.896  0.00  0.00    +0.000 C 
BRANCH  10  16
ATOM     16  C   UNL     1       1.066  11.339  18.765  0.00  0.00    +0.000 C 
BRANCH  16  20
ATOM     17  C   UNL     1       0.722  13.852  21.408  0.00  0.00    +0.000 C 
ATOM     18  C   UNL     1       0.264  14.621  20.183  0.00  0.00    +0.000 C 
ATOM     19  C   UNL     1       0.031  13.548  19.119  0.00  0.00    +0.000 C 
ATOM     20  N   UNL     1       0.445  12.269  19.711  0.00  0.00    +0.000 NA
ATOM     21  C   UNL     1       1.394  12.638  20.782  0.00  0.00    +0.000 C 
BRANCH  17  22
ATOM     22  O   UNL     1       1.610  14.621  22.201  0.00  0.00    +0.000 OA
ATOM     23  H   UNL     1       2.261  14.004  22.578  0.00  0.00    +0.000 HD
ENDBRANCH  17  22
ENDBRANCH  16  20
ENDBRANCH  10  16
ENDBRANCH   1  13
BRANCH   8  24
ATOM     24  C   UNL     1       5.887   6.105  18.340  0.00  0.00    +0.000 C 
ATOM     25  C   UNL     1       7.246   5.454  17.895  0.00  0.00    +0.000 C 
ATOM     26  C   UNL     1       7.039   4.480  16.729  0.00  0.00    +0.000 C 
ATOM     27  C   UNL     1       6.284   5.109  15.554  0.00  0.00    +0.000 C 
ATOM     28  C   UNL     1       5.104   5.990  15.970  0.00  0.00    +0.000 C 
ATOM     29  C   UNL     1       5.510   6.905  17.109  0.00  0.00    +0.000 C 
ENDBRANCH   8  24
TORSDOF 5
ENDMDL
MODEL 5
REMARK VINA RESULT:      -8.2      0.814      1.249
REMARK  Name = 
REMARK  5 active torsions:
REMARK  status: ('A' for Active; 'I' for Inactive)
REMARK    1  A    between atoms: O_1  and  C_2
REMARK    2  A    between atoms: N_5  and  C_6
REMARK    3  A    between atoms: C_6  and  C_7
REMARK    4  A    between atoms: N_10  and  C_11
REMARK    5  A    between atoms: C_18  and  C_19
REMARK                            x       y       z     vdW  Elec       q    Type
REMARK                         _______ _______ _______ _____ _____    ______ ____
ROOT
ATOM      1  C   UNL     1       2.342   5.943  19.808  0.00  0.00    +0.000 A 
ATOM      2  N   UNL     1       1.213   5.351  20.327  0.00  0.00    +0.000 NA
ATOM      3  C   UNL     1       1.076   4.049  20.506  0.00  0.00    +0.000 A 
ATOM      4  N   UNL     1       1.977   3.149  20.215  0.00  0.00    +0.000 NA
ATOM      5  C   UNL     1       3.114   3.672  19.740  0.00  0.00    +0.000 A 
ATOM      6  S   UNL     1       4.293   2.515  19.387  0.00  0.00    +0.000 S 
ATOM      7  C   UNL     1       5.382   3.708  18.964  0.00  0.00    +0.000 A 
ATOM      8  C   UNL     1       4.881   5.011  18.925  0.00  0.00    +0.000 A 
ATOM      9  C   UNL     1       3.456   5.024  19.494  0.00  0.00    +0.000 A 
ENDROOT
BRANCH   1  13
ATOM     10  C   UNL     1       0.739   9.785  18.941  0.00  0.00    +0.000 C 
ATOM     11  C   UNL     1       0.664   9.202  20.364  0.00  0.00    +0.000 C 
ATOM     12  C   UNL     1       1.721   8.189  20.793  0.00  0.00    +0.000 C 
ATOM     13  N   UNL     1       2.148   7.314  19.739  0.00  0.00    +0.000 N 
ATOM     14  C   UNL     1       2.597   8.021  18.521  0.00  0.00    +0.000 C 
ATOM     15  C   UNL     1       1.489   8.899  17.940  0.00  0.00    +0.000 C 
BRANCH  10  16
ATOM     16  C   UNL     1       1.077  11.299  18.832  0.00  0.00    +0.000 C 
BRANCH  16  20
ATOM     17  C   UNL     1      -2.285  12.722  19.127  0.00  0.00    +0.000 C 
ATOM     18  C   UNL     1      -1.804  12.753  20.565  0.00  0.00    +0.000 C 
ATOM     19  C   UNL     1      -0.296  12.522  20.473  0.00  0.00    +0.000 C 
ATOM     20  N   UNL     1       0.007  12.274  19.058  0.00  0.00    +0.000 NA
ATOM     21  C   UNL     1      -1.266  11.798  18.476  0.00  0.00    +0.000 C 
BRANCH  17  22
ATOM     22  O   UNL     1      -3.610  12.227  19.034  0.00  0.00    +0.000 OA
ATOM     23  H   UNL     1      -4.166  12.794  19.596  0.00  0.00    +0.000 HD
ENDBRANCH  17  22
ENDBRANCH  16  20
ENDBRANCH  10  16
ENDBRANCH   1  13
BRANCH   8  24
ATOM     24  C   UNL     1       5.892   6.057  18.351  0.00  0.00    +0.000 C 
ATOM     25  C   UNL     1       7.244   5.405  17.890  0.00  0.00    +0.000 C 
ATOM     26  C   UNL     1       7.025   4.447  16.711  0.00  0.00    +0.000 C 
ATOM     27  C   UNL     1       6.266   5.097  15.549  0.00  0.00    +0.000 C 
ATOM     28  C   UNL     1       5.094   5.978  15.984  0.00  0.00    +0.000 C 
ATOM     29  C   UNL     1       5.511   6.876  17.133  0.00  0.00    +0.000 C 
ENDBRANCH   8  24
TORSDOF 5
ENDMDL
MODEL 6
REMARK VINA RESULT:      -8.1      1.081      1.208
REMARK  Name = 
REMARK  5 active torsions:
REMARK  status: ('A' for Active; 'I' for Inactive)
REMARK    1  A    between atoms: O_1  and  C_2
REMARK    2  A    between atoms: N_5  and  C_6
REMARK    3  A    between atoms: C_6  and  C_7
REMARK    4  A    between atoms: N_10  and  C_11
REMARK    5  A    between atoms: C_18  and  C_19
REMARK                            x       y       z     vdW  Elec       q    Type
REMARK                         _______ _______ _______ _____ _____    ______ ____
ROOT
ATOM      1  C   UNL     1       2.073   5.472  19.628  0.00  0.00    +0.000 A 
ATOM      2  N   UNL     1       1.222   4.854  20.516  0.00  0.00    +0.000 NA
ATOM      3  C   UNL     1       1.015   3.549  20.556  0.00  0.00    +0.000 A 
ATOM      4  N   UNL     1       1.575   2.672  19.766  0.00  0.00    +0.000 NA
ATOM      5  C   UNL     1       2.443   3.214  18.905  0.00  0.00    +0.000 A 
ATOM      6  S   UNL     1       3.192   2.083  17.899  0.00  0.00    +0.000 S 
ATOM      7  C   UNL     1       4.125   3.276  17.197  0.00  0.00    +0.000 A 
ATOM      8  C   UNL     1       3.827   4.588  17.569  0.00  0.00    +0.000 A 
ATOM      9  C   UNL     1       2.810   4.570  18.719  0.00  0.00    +0.000 A 
ENDROOT
BRANCH   1  13
ATOM     10  C   UNL     1       0.912   9.563  19.640  0.00  0.00    +0.000 C 
ATOM     11  C   UNL     1       0.820   8.714  20.920  0.00  0.00    +0.000 C 
ATOM     12  C   UNL     1       1.763   7.524  21.075  0.00  0.00    +0.000 C 
ATOM     13  N   UNL     1       2.042   6.841  19.845  0.00  0.00    +0.000 N 
ATOM     14  C   UNL     1       2.529   7.728  18.767  0.00  0.00    +0.000 C 
ATOM     15  C   UNL     1       1.514   8.823  18.439  0.00  0.00    +0.000 C 
BRANCH  10  16
ATOM     16  C   UNL     1       1.426  11.021  19.813  0.00  0.00    +0.000 C 
BRANCH  16  20
ATOM     17  C   UNL     1      -0.392  13.995  18.687  0.00  0.00    +0.000 C 
ATOM     18  C   UNL     1       1.052  14.423  18.507  0.00  0.00    +0.000 C 
ATOM     19  C   UNL     1       1.854  13.126  18.605  0.00  0.00    +0.000 C 
ATOM     20  N   UNL     1       0.897  12.060  18.927  0.00  0.00    +0.000 NA
ATOM     21  C   UNL     1      -0.244  12.755  19.558  0.00  0.00    +0.000 C 
BRANCH  17  22
ATOM     22  O   UNL     1      -1.161  15.011  19.307  0.00  0.00    +0.000 OA
ATOM     23  H   UNL     1      -1.187  14.807  20.258  0.00  0.00    +0.000 HD
ENDBRANCH  17  22
ENDBRANCH  16  20
ENDBRANCH  10  16
ENDBRANCH   1  13
BRANCH   8  24
ATOM     24  C   UNL     1       4.605   5.668  16.749  0.00  0.00    +0.000 C 
ATOM     25  C   UNL     1       5.580   6.519  17.639  0.00  0.00    +0.000 C 
ATOM     26  C   UNL     1       6.700   5.649  18.223  0.00  0.00    +0.000 C 
ATOM     27  C   UNL     1       7.444   4.840  17.155  0.00  0.00    +0.000 C 
ATOM     28  C   UNL     1       6.532   4.218  16.096  0.00  0.00    +0.000 C 
ATOM     29  C   UNL     1       5.515   5.237  15.617  0.00  0.00    +0.000 C 
ENDBRANCH   8  24
TORSDOF 5
ENDMDL
MODEL 7
REMARK VINA RESULT:      -8.1      1.184      1.547
REMARK  Name = 
REMARK  5 active torsions:
REMARK  status: ('A' for Active; 'I' for Inactive)
REMARK    1  A    between atoms: O_1  and  C_2
REMARK    2  A    between atoms: N_5  and  C_6
REMARK    3  A    between atoms: C_6  and  C_7
REMARK    4  A    between atoms: N_10  and  C_11
REMARK    5  A    between atoms: C_18  and  C_19
REMARK                            x       y       z     vdW  Elec       q    Type
REMARK                         _______ _______ _______ _____ _____    ______ ____
ROOT
ATOM      1  C   UNL     1       2.339   5.974  19.842  0.00  0.00    +0.000 A 
ATOM      2  N   UNL     1       1.215   5.374  20.364  0.00  0.00    +0.000 NA
ATOM      3  C   UNL     1       1.092   4.072  20.553  0.00  0.00    +0.000 A 
ATOM      4  N   UNL     1       2.004   3.180  20.269  0.00  0.00    +0.000 NA
ATOM      5  C   UNL     1       3.135   3.712  19.793  0.00  0.00    +0.000 A 
ATOM      6  S   UNL     1       4.327   2.565  19.450  0.00  0.00    +0.000 S 
ATOM      7  C   UNL     1       5.405   3.767  19.021  0.00  0.00    +0.000 A 
ATOM      8  C   UNL     1       4.890   5.064  18.970  0.00  0.00    +0.000 A 
ATOM      9  C   UNL     1       3.463   5.066  19.537  0.00  0.00    +0.000 A 
ENDROOT
BRANCH   1  13
ATOM     10  C   UNL     1       0.667   9.791  18.990  0.00  0.00    +0.000 C 
ATOM     11  C   UNL     1       0.657   9.227  20.422  0.00  0.00    +0.000 C 
ATOM     12  C   UNL     1       1.739   8.229  20.821  0.00  0.00    +0.000 C 
ATOM     13  N   UNL     1       2.129   7.343  19.762  0.00  0.00    +0.000 N 
ATOM     14  C   UNL     1       2.522   8.037  18.517  0.00  0.00    +0.000 C 
ATOM     15  C   UNL     1       1.383   8.897  17.971  0.00  0.00    +0.000 C 
BRANCH  10  16
ATOM     16  C   UNL     1       0.987  11.306  18.846  0.00  0.00    +0.000 C 
BRANCH  16  20
ATOM     17  C   UNL     1      -0.767  14.340  19.909  0.00  0.00    +0.000 C 
ATOM     18  C   UNL     1      -1.878  13.309  19.941  0.00  0.00    +0.000 C 
ATOM     19  C   UNL     1      -1.158  11.963  19.867  0.00  0.00    +0.000 C 
ATOM     20  N   UNL     1       0.271  12.257  19.699  0.00  0.00    +0.000 NA
ATOM     21  C   UNL     1       0.311  13.615  19.116  0.00  0.00    +0.000 C 
BRANCH  17  22
ATOM     22  O   UNL     1      -1.191  15.540  19.285  0.00  0.00    +0.000 OA
ATOM     23  H   UNL     1      -1.062  16.257  19.930  0.00  0.00    +0.000 HD
ENDBRANCH  17  22
ENDBRANCH  16  20
ENDBRANCH  10  16
ENDBRANCH   1  13
BRANCH   8  24
ATOM     24  C   UNL     1       5.889   6.116  18.390  0.00  0.00    +0.000 C 
ATOM     25  C   UNL     1       7.260   5.480  17.963  0.00  0.00    +0.000 C 
ATOM     26  C   UNL     1       7.076   4.495  16.801  0.00  0.00    +0.000 C 
ATOM     27  C   UNL     1       6.324   5.107  15.615  0.00  0.00    +0.000 C 
ATOM     28  C   UNL     1       5.129   5.975  16.014  0.00  0.00    +0.000 C 
ATOM     29  C   UNL     1       5.513   6.903  17.151  0.00  0.00    +0.000 C 
ENDBRANCH   8  24
TORSDOF 5
ENDMDL
MODEL 8
REMARK VINA RESULT:      -7.9      1.986      3.865
REMARK  Name = 
REMARK  5 active torsions:
REMARK  status: ('A' for Active; 'I' for Inactive)
REMARK    1  A    between atoms: O_1  and  C_2
REMARK    2  A    between atoms: N_5  and  C_6
REMARK    3  A    between atoms: C_6  and  C_7
REMARK    4  A    between atoms: N_10  and  C_11
REMARK    5  A    between atoms: C_18  and  C_19
REMARK                            x       y       z     vdW  Elec       q    Type
REMARK                         _______ _______ _______ _____ _____    ______ ____
ROOT
ATOM      1  C   UNL     1       3.283   6.953  17.966  0.00  0.00    +0.000 A 
ATOM      2  N   UNL     1       4.337   7.536  17.299  0.00  0.00    +0.000 NA
ATOM      3  C   UNL     1       5.225   6.863  16.589  0.00  0.00    +0.000 A 
ATOM      4  N   UNL     1       5.233   5.567  16.424  0.00  0.00    +0.000 NA
ATOM      5  C   UNL     1       4.206   4.951  17.020  0.00  0.00    +0.000 A 
ATOM      6  S   UNL     1       4.195   3.278  16.788  0.00  0.00    +0.000 S 
ATOM      7  C   UNL     1       2.758   3.139  17.625  0.00  0.00    +0.000 A 
ATOM      8  C   UNL     1       2.291   4.301  18.242  0.00  0.00    +0.000 A 
ATOM      9  C   UNL     1       3.156   5.491  17.803  0.00  0.00    +0.000 A 
ENDROOT
BRANCH   1  13
ATOM     10  C   UNL     1       0.123   9.451  19.332  0.00  0.00    +0.000 C 
ATOM     11  C   UNL     1       0.752   8.396  20.260  0.00  0.00    +0.000 C 
ATOM     12  C   UNL     1       2.197   7.974  20.011  0.00  0.00    +0.000 C 
ATOM     13  N   UNL     1       2.560   7.937  18.623  0.00  0.00    +0.000 N 
ATOM     14  C   UNL     1       2.272   9.193  17.898  0.00  0.00    +0.000 C 
ATOM     15  C   UNL     1       0.786   9.546  17.953  0.00  0.00    +0.000 C 
BRANCH  10  16
ATOM     16  C   UNL     1      -0.211  10.826  19.975  0.00  0.00    +0.000 C 
BRANCH  16  20
ATOM     17  C   UNL     1      -0.135  14.293  18.798  0.00  0.00    +0.000 C 
ATOM     18  C   UNL     1       1.019  14.271  19.781  0.00  0.00    +0.000 C 
ATOM     19  C   UNL     1       1.281  12.787  20.036  0.00  0.00    +0.000 C 
ATOM     20  N   UNL     1       0.247  12.044  19.304  0.00  0.00    +0.000 NA
ATOM     21  C   UNL     1      -0.866  13.004  19.144  0.00  0.00    +0.000 C 
BRANCH  17  22
ATOM     22  O   UNL     1      -0.944  15.444  18.974  0.00  0.00    +0.000 OA
ATOM     23  H   UNL     1      -0.761  15.787  19.866  0.00  0.00    +0.000 HD
ENDBRANCH  17  22
ENDBRANCH  16  20
ENDBRANCH  10  16
ENDBRANCH   1  13
BRANCH   8  24
ATOM     24  C   UNL     1       1.044   4.072  19.157  0.00  0.00    +0.000 C 
ATOM     25  C   UNL     1       0.832   2.559  19.525  0.00  0.00    +0.000 C 
ATOM     26  C   UNL     1       1.992   2.027  20.374  0.00  0.00    +0.000 C 
ATOM     27  C   UNL     1       2.273   2.891  21.608  0.00  0.00    +0.000 C 
ATOM     28  C   UNL     1       2.213   4.396  21.342  0.00  0.00    +0.000 C 
ATOM     29  C   UNL     1       0.984   4.733  20.519  0.00  0.00    +0.000 C 
ENDBRANCH   8  24
TORSDOF 5
ENDMDL
MODEL 9
REMARK VINA RESULT:      -7.9      0.958      1.060
REMARK  Name = 
REMARK  5 active torsions:
REMARK  status: ('A' for Active; 'I' for Inactive)
REMARK    1  A    between atoms: O_1  and  C_2
REMARK    2  A    between atoms: N_5  and  C_6
REMARK    3  A    between atoms: C_6  and  C_7
REMARK    4  A    between atoms: N_10  and  C_11
REMARK    5  A    between atoms: C_18  and  C_19
REMARK                            x       y       z     vdW  Elec       q    Type
REMARK                         _______ _______ _______ _____ _____    ______ ____
ROOT
ATOM      1  C   UNL     1       2.038   5.212  19.733  0.00  0.00    +0.000 A 
ATOM      2  N   UNL     1       1.179   4.510  20.547  0.00  0.00    +0.000 NA
ATOM      3  C   UNL     1       0.972   3.208  20.456  0.00  0.00    +0.000 A 
ATOM      4  N   UNL     1       1.540   2.413  19.590  0.00  0.00    +0.000 NA
ATOM      5  C   UNL     1       2.417   3.037  18.794  0.00  0.00    +0.000 A 
ATOM      6  S   UNL     1       3.176   2.009  17.690  0.00  0.00    +0.000 S 
ATOM      7  C   UNL     1       4.117   3.265  17.118  0.00  0.00    +0.000 A 
ATOM      8  C   UNL     1       3.814   4.534  17.615  0.00  0.00    +0.000 A 
ATOM      9  C   UNL     1       2.786   4.404  18.747  0.00  0.00    +0.000 A 
ENDROOT
BRANCH   1  13
ATOM     10  C   UNL     1       0.833   9.263  20.213  0.00  0.00    +0.000 C 
ATOM     11  C   UNL     1       0.830   8.292  21.407  0.00  0.00    +0.000 C 
ATOM     12  C   UNL     1       1.794   7.109  21.389  0.00  0.00    +0.000 C 
ATOM     13  N   UNL     1       2.005   6.554  20.083  0.00  0.00    +0.000 N 
ATOM     14  C   UNL     1       2.414   7.549  19.070  0.00  0.00    +0.000 C 
ATOM     15  C   UNL     1       1.368   8.652  18.912  0.00  0.00    +0.000 C 
BRANCH  10  16
ATOM     16  C   UNL     1       1.339  10.705  20.496  0.00  0.00    +0.000 C 
BRANCH  16  20
ATOM     17  C   UNL     1      -0.716  12.926  18.431  0.00  0.00    +0.000 C 
ATOM     18  C   UNL     1      -1.745  12.332  19.373  0.00  0.00    +0.000 C 
ATOM     19  C   UNL     1      -0.922  11.686  20.487  0.00  0.00    +0.000 C 
ATOM     20  N   UNL     1       0.489  11.834  20.109  0.00  0.00    +0.000 NA
ATOM     21  C   UNL     1       0.472  11.998  18.641  0.00  0.00    +0.000 C 
BRANCH  17  22
ATOM     22  O   UNL     1      -1.179  12.928  17.092  0.00  0.00    +0.000 OA
ATOM     23  H   UNL     1      -2.001  13.449  17.075  0.00  0.00    +0.000 HD
ENDBRANCH  17  22
ENDBRANCH  16  20
ENDBRANCH  10  16
ENDBRANCH   1  13
BRANCH   8  24
ATOM     24  C   UNL     1       4.600   5.689  16.914  0.00  0.00    +0.000 C 
ATOM     25  C   UNL     1       5.573   6.442  17.891  0.00  0.00    +0.000 C 
ATOM     26  C   UNL     1       6.687   5.512  18.390  0.00  0.00    +0.000 C 
ATOM     27  C   UNL     1       7.434   4.814  17.249  0.00  0.00    +0.000 C 
ATOM     28  C   UNL     1       6.527   4.306  16.127  0.00  0.00    +0.000 C 
ATOM     29  C   UNL     1       5.516   5.372  15.749  0.00  0.00    +0.000 C 
ENDBRANCH   8  24
TORSDOF 5
ENDMDL
