MODEL 1
REMARK VINA RESULT:      -6.2      0.000      0.000
REMARK  Name = 
REMARK  8 active torsions:
REMARK  status: ('A' for Active; 'I' for Inactive)
REMARK    1  A    between atoms: C_1  and  C_2
REMARK    2  A    between atoms: C_2  and  C_3
REMARK    3  A    between atoms: C_2  and  C_5
REMARK    4  A    between atoms: C_3  and  S_4
REMARK    5  A    between atoms: N_7  and  C_8
REMARK    6  A    between atoms: N_7  and  C_12
REMARK    7  A    between atoms: C_8  and  C_9
REMARK    8  A    between atoms: C_9  and  O_11
REMARK                            x       y       z     vdW  Elec       q    Type
REMARK                         _______ _______ _______ _____ _____    ______ ____
ROOT
ATOM      1  C   UNL     1       2.818   5.374  18.130  0.00  0.00    +0.000 C 
ATOM      2  O   UNL     1       1.733   4.885  17.801  0.00  0.00    +0.000 OA
ATOM      3  N   UNL     1       4.023   4.679  17.890  0.00  0.00    +0.000 N 
ENDROOT
BRANCH   3   4
ATOM      4  C   UNL     1       5.306   5.425  17.735  0.00  0.00    +0.000 C 
ATOM      5  C   UNL     1       5.161   6.605  16.743  0.00  0.00    +0.000 C 
ATOM      6  C   UNL     1       5.283   6.030  15.343  0.00  0.00    +0.000 C 
ATOM      7  S   UNL     1       6.540   4.772  15.474  0.00  0.00    +0.000 S 
ATOM      8  O   UNL     1       7.794   5.323  15.009  0.00  0.00    +0.000 OA
ATOM      9  O   UNL     1       5.988   3.540  14.946  0.00  0.00    +0.000 OA
ATOM     10  C   UNL     1       6.568   4.692  17.256  0.00  0.00    +0.000 C 
ENDBRANCH   3   4
BRANCH   1  12
ATOM     11  C   UNL     1       2.168   7.781  17.970  0.00  0.00    +0.000 C 
ATOM     12  C   UNL     1       2.842   6.724  18.857  0.00  0.00    +0.000 C 
BRANCH  12  13
ATOM     13  C   UNL     1       2.120   6.526  20.196  0.00  0.00    +0.000 C 
BRANCH  13  14
ATOM     14  S   UNL     1       1.394   8.057  20.869  0.00  0.00    +0.000 S 
ATOM     15  H   UNL     1       0.111   7.764  20.614  0.00  0.00    +0.000 HD
ENDBRANCH  13  14
ENDBRANCH  12  13
ENDBRANCH   1  12
BRANCH   3  16
ATOM     16  C   UNL     1       3.829   3.316  17.320  0.00  0.00    +0.000 C 
BRANCH  16  17
ATOM     17  C   UNL     1       3.373   2.163  18.207  0.00  0.00    +0.000 C 
ATOM     18  O   UNL     1       4.026   1.688  19.130  0.00  0.00    +0.000 OA
BRANCH  17  19
ATOM     19  O   UNL     1       2.113   1.740  17.928  0.00  0.00    +0.000 OA
ATOM     20  H   UNL     1       1.975   1.457  17.003  0.00  0.00    +0.000 HD
ENDBRANCH  17  19
ENDBRANCH  16  17
ENDBRANCH   3  16
TORSDOF 7
ENDMDL
MODEL 2
REMARK VINA RESULT:      -6.0      2.507      3.796
REMARK  Name = 
REMARK  8 active torsions:
REMARK  status: ('A' for Active; 'I' for Inactive)
REMARK    1  A    between atoms: C_1  and  C_2
REMARK    2  A    between atoms: C_2  and  C_3
REMARK    3  A    between atoms: C_2  and  C_5
REMARK    4  A    between atoms: C_3  and  S_4
REMARK    5  A    between atoms: N_7  and  C_8
REMARK    6  A    between atoms: N_7  and  C_12
REMARK    7  A    between atoms: C_8  and  C_9
REMARK    8  A    between atoms: C_9  and  O_11
REMARK                            x       y       z     vdW  Elec       q    Type
REMARK                         _______ _______ _______ _____ _____    ______ ____
ROOT
ATOM      1  C   UNL     1       4.588   3.879  19.211  0.00  0.00    +0.000 C 
ATOM      2  O   UNL     1       5.085   3.065  19.994  0.00  0.00    +0.000 OA
ATOM      3  N   UNL     1       5.408   4.702  18.409  0.00  0.00    +0.000 N 
ENDROOT
BRANCH   3   4
ATOM      4  C   UNL     1       4.902   5.239  17.112  0.00  0.00    +0.000 C 
ATOM      5  C   UNL     1       4.456   4.102  16.162  0.00  0.00    +0.000 C 
ATOM      6  C   UNL     1       5.708   3.563  15.491  0.00  0.00    +0.000 C 
ATOM      7  S   UNL     1       6.719   5.001  15.188  0.00  0.00    +0.000 S 
ATOM      8  O   UNL     1       6.543   5.406  13.810  0.00  0.00    +0.000 OA
ATOM      9  O   UNL     1       8.023   4.754  15.766  0.00  0.00    +0.000 OA
ATOM     10  C   UNL     1       5.808   6.119  16.239  0.00  0.00    +0.000 C 
ENDBRANCH   3   4
BRANCH   1  12
ATOM     11  C   UNL     1       2.442   2.697  18.721  0.00  0.00    +0.000 C 
ATOM     12  C   UNL     1       3.062   4.033  19.157  0.00  0.00    +0.000 C 
BRANCH  12  13
ATOM     13  C   UNL     1       2.606   4.471  20.554  0.00  0.00    +0.000 C 
BRANCH  13  14
ATOM     14  S   UNL     1       1.804   3.141  21.511  0.00  0.00    +0.000 S 
ATOM     15  H   UNL     1       2.910   2.663  22.098  0.00  0.00    +0.000 HD
ENDBRANCH  13  14
ENDBRANCH  12  13
ENDBRANCH   1  12
BRANCH   3  16
ATOM     16  C   UNL     1       6.865   4.549  18.684  0.00  0.00    +0.000 C 
BRANCH  16  17
ATOM     17  C   UNL     1       7.659   5.691  19.309  0.00  0.00    +0.000 C 
ATOM     18  O   UNL     1       7.959   6.733  18.735  0.00  0.00    +0.000 OA
BRANCH  17  19
ATOM     19  O   UNL     1       7.953   5.484  20.619  0.00  0.00    +0.000 OA
ATOM     20  H   UNL     1       7.296   5.846  21.245  0.00  0.00    +0.000 HD
ENDBRANCH  17  19
ENDBRANCH  16  17
ENDBRANCH   3  16
TORSDOF 7
ENDMDL
MODEL 3
REMARK VINA RESULT:      -5.9      2.552      5.517
REMARK  Name = 
REMARK  8 active torsions:
REMARK  status: ('A' for Active; 'I' for Inactive)
REMARK    1  A    between atoms: C_1  and  C_2
REMARK    2  A    between atoms: C_2  and  C_3
REMARK    3  A    between atoms: C_2  and  C_5
REMARK    4  A    between atoms: C_3  and  S_4
REMARK    5  A    between atoms: N_7  and  C_8
REMARK    6  A    between atoms: N_7  and  C_12
REMARK    7  A    between atoms: C_8  and  C_9
REMARK    8  A    between atoms: C_9  and  O_11
REMARK                            x       y       z     vdW  Elec       q    Type
REMARK                         _______ _______ _______ _____ _____    ______ ____
ROOT
ATOM      1  C   UNL     1       4.660   5.362  17.073  0.00  0.00    +0.000 C 
ATOM      2  O   UNL     1       4.560   6.355  16.346  0.00  0.00    +0.000 OA
ATOM      3  N   UNL     1       3.608   4.992  17.938  0.00  0.00    +0.000 N 
ENDROOT
BRANCH   3   4
ATOM      4  C   UNL     1       3.447   3.572  18.367  0.00  0.00    +0.000 C 
ATOM      5  C   UNL     1       2.027   3.042  18.053  0.00  0.00    +0.000 C 
ATOM      6  C   UNL     1       1.114   3.521  19.169  0.00  0.00    +0.000 C 
ATOM      7  S   UNL     1       2.100   3.396  20.650  0.00  0.00    +0.000 S 
ATOM      8  O   UNL     1       1.754   2.167  21.331  0.00  0.00    +0.000 OA
ATOM      9  O   UNL     1       2.071   4.686  21.309  0.00  0.00    +0.000 OA
ATOM     10  C   UNL     1       3.673   3.183  19.835  0.00  0.00    +0.000 C 
ENDBRANCH   3   4
BRANCH   1  12
ATOM     11  C   UNL     1       6.087   3.802  15.742  0.00  0.00    +0.000 C 
ATOM     12  C   UNL     1       5.969   4.562  17.071  0.00  0.00    +0.000 C 
BRANCH  12  13
ATOM     13  C   UNL     1       7.110   5.566  17.284  0.00  0.00    +0.000 C 
BRANCH  13  14
ATOM     14  S   UNL     1       7.575   5.784  19.034  0.00  0.00    +0.000 S 
ATOM     15  H   UNL     1       7.280   7.088  19.127  0.00  0.00    +0.000 HD
ENDBRANCH  13  14
ENDBRANCH  12  13
ENDBRANCH   1  12
BRANCH   3  16
ATOM     16  C   UNL     1       2.467   5.951  17.942  0.00  0.00    +0.000 C 
BRANCH  16  17
ATOM     17  C   UNL     1       2.552   7.252  18.734  0.00  0.00    +0.000 C 
ATOM     18  O   UNL     1       2.505   8.375  18.244  0.00  0.00    +0.000 OA
BRANCH  17  19
ATOM     19  O   UNL     1       2.613   7.057  20.077  0.00  0.00    +0.000 OA
ATOM     20  H   UNL     1       2.773   6.131  20.346  0.00  0.00    +0.000 HD
ENDBRANCH  17  19
ENDBRANCH  16  17
ENDBRANCH   3  16
TORSDOF 7
ENDMDL
MODEL 4
REMARK VINA RESULT:      -5.9      2.504      4.751
REMARK  Name = 
REMARK  8 active torsions:
REMARK  status: ('A' for Active; 'I' for Inactive)
REMARK    1  A    between atoms: C_1  and  C_2
REMARK    2  A    between atoms: C_2  and  C_3
REMARK    3  A    between atoms: C_2  and  C_5
REMARK    4  A    between atoms: C_3  and  S_4
REMARK    5  A    between atoms: N_7  and  C_8
REMARK    6  A    between atoms: N_7  and  C_12
REMARK    7  A    between atoms: C_8  and  C_9
REMARK    8  A    between atoms: C_9  and  O_11
REMARK                            x       y       z     vdW  Elec       q    Type
REMARK                         _______ _______ _______ _____ _____    ______ ____
ROOT
ATOM      1  C   UNL     1       6.181   5.080  18.958  0.00  0.00    +0.000 C 
ATOM      2  O   UNL     1       6.600   5.218  20.111  0.00  0.00    +0.000 OA
ATOM      3  N   UNL     1       5.065   4.261  18.689  0.00  0.00    +0.000 N 
ENDROOT
BRANCH   3   4
ATOM      4  C   UNL     1       4.215   4.512  17.489  0.00  0.00    +0.000 C 
ATOM      5  C   UNL     1       3.548   5.907  17.548  0.00  0.00    +0.000 C 
ATOM      6  C   UNL     1       2.321   5.780  18.434  0.00  0.00    +0.000 C 
ATOM      7  S   UNL     1       1.636   4.181  18.039  0.00  0.00    +0.000 S 
ATOM      8  O   UNL     1       0.546   4.365  17.106  0.00  0.00    +0.000 OA
ATOM      9  O   UNL     1       1.484   3.448  19.279  0.00  0.00    +0.000 OA
ATOM     10  C   UNL     1       3.056   3.561  17.154  0.00  0.00    +0.000 C 
ENDBRANCH   3   4
BRANCH   1  12
ATOM     11  C   UNL     1       7.963   6.736  18.387  0.00  0.00    +0.000 C 
ATOM     12  C   UNL     1       6.925   5.765  17.804  0.00  0.00    +0.000 C 
BRANCH  12  13
ATOM     13  C   UNL     1       7.561   4.655  16.958  0.00  0.00    +0.000 C 
BRANCH  13  14
ATOM     14  S   UNL     1       7.005   4.651  15.221  0.00  0.00    +0.000 S 
ATOM     15  H   UNL     1       5.940   3.853  15.386  0.00  0.00    +0.000 HD
ENDBRANCH  13  14
ENDBRANCH  12  13
ENDBRANCH   1  12
BRANCH   3  16
ATOM     16  C   UNL     1       4.545   3.540  19.886  0.00  0.00    +0.000 C 
BRANCH  16  17
ATOM     17  C   UNL     1       4.839   2.057  20.084  0.00  0.00    +0.000 C 
ATOM     18  O   UNL     1       5.304   1.565  21.108  0.00  0.00    +0.000 OA
BRANCH  17  19
ATOM     19  O   UNL     1       4.465   1.291  19.027  0.00  0.00    +0.000 OA
ATOM     20  H   UNL     1       3.855   1.730  18.403  0.00  0.00    +0.000 HD
ENDBRANCH  17  19
ENDBRANCH  16  17
ENDBRANCH   3  16
TORSDOF 7
ENDMDL
MODEL 5
REMARK VINA RESULT:      -5.9      2.272      3.352
REMARK  Name = 
REMARK  8 active torsions:
REMARK  status: ('A' for Active; 'I' for Inactive)
REMARK    1  A    between atoms: C_1  and  C_2
REMARK    2  A    between atoms: C_2  and  C_3
REMARK    3  A    between atoms: C_2  and  C_5
REMARK    4  A    between atoms: C_3  and  S_4
REMARK    5  A    between atoms: N_7  and  C_8
REMARK    6  A    between atoms: N_7  and  C_12
REMARK    7  A    between atoms: C_8  and  C_9
REMARK    8  A    between atoms: C_9  and  O_11
REMARK                            x       y       z     vdW  Elec       q    Type
REMARK                         _______ _______ _______ _____ _____    ______ ____
ROOT
ATOM      1  C   UNL     1       3.958   4.912  19.201  0.00  0.00    +0.000 C 
ATOM      2  O   UNL     1       4.163   4.245  20.219  0.00  0.00    +0.000 OA
ATOM      3  N   UNL     1       5.011   5.214  18.312  0.00  0.00    +0.000 N 
ENDROOT
BRANCH   3   4
ATOM      4  C   UNL     1       4.730   5.487  16.872  0.00  0.00    +0.000 C 
ATOM      5  C   UNL     1       4.293   4.202  16.127  0.00  0.00    +0.000 C 
ATOM      6  C   UNL     1       5.558   3.439  15.772  0.00  0.00    +0.000 C 
ATOM      7  S   UNL     1       6.740   4.697  15.324  0.00  0.00    +0.000 S 
ATOM      8  O   UNL     1       6.782   4.797  13.882  0.00  0.00    +0.000 OA
ATOM      9  O   UNL     1       7.930   4.489  16.125  0.00  0.00    +0.000 OA
ATOM     10  C   UNL     1       5.824   6.083  15.975  0.00  0.00    +0.000 C 
ENDBRANCH   3   4
BRANCH   1  12
ATOM     11  C   UNL     1       1.523   4.562  19.638  0.00  0.00    +0.000 C 
ATOM     12  C   UNL     1       2.551   5.464  18.938  0.00  0.00    +0.000 C 
BRANCH  12  13
ATOM     13  C   UNL     1       2.528   6.906  19.462  0.00  0.00    +0.000 C 
BRANCH  13  14
ATOM     14  S   UNL     1       2.325   8.156  18.150  0.00  0.00    +0.000 S 
ATOM     15  H   UNL     1       3.618   8.262  17.814  0.00  0.00    +0.000 HD
ENDBRANCH  13  14
ENDBRANCH  12  13
ENDBRANCH   1  12
BRANCH   3  16
ATOM     16  C   UNL     1       6.346   4.745  18.779  0.00  0.00    +0.000 C 
BRANCH  16  17
ATOM     17  C   UNL     1       7.396   5.744  19.255  0.00  0.00    +0.000 C 
ATOM     18  O   UNL     1       7.766   6.727  18.622  0.00  0.00    +0.000 OA
BRANCH  17  19
ATOM     19  O   UNL     1       7.849   5.486  20.509  0.00  0.00    +0.000 OA
ATOM     20  H   UNL     1       8.700   5.913  20.730  0.00  0.00    +0.000 HD
ENDBRANCH  17  19
ENDBRANCH  16  17
ENDBRANCH   3  16
TORSDOF 7
ENDMDL
MODEL 6
REMARK VINA RESULT:      -5.9      2.696      5.066
REMARK  Name = 
REMARK  8 active torsions:
REMARK  status: ('A' for Active; 'I' for Inactive)
REMARK    1  A    between atoms: C_1  and  C_2
REMARK    2  A    between atoms: C_2  and  C_3
REMARK    3  A    between atoms: C_2  and  C_5
REMARK    4  A    between atoms: C_3  and  S_4
REMARK    5  A    between atoms: N_7  and  C_8
REMARK    6  A    between atoms: N_7  and  C_12
REMARK    7  A    between atoms: C_8  and  C_9
REMARK    8  A    between atoms: C_9  and  O_11
REMARK                            x       y       z     vdW  Elec       q    Type
REMARK                         _______ _______ _______ _____ _____    ______ ____
ROOT
ATOM      1  C   UNL     1       5.441   4.796  18.596  0.00  0.00    +0.000 C 
ATOM      2  O   UNL     1       6.053   5.238  19.572  0.00  0.00    +0.000 OA
ATOM      3  N   UNL     1       4.522   3.735  18.741  0.00  0.00    +0.000 N 
ENDROOT
BRANCH   3   4
ATOM      4  C   UNL     1       3.397   3.571  17.774  0.00  0.00    +0.000 C 
ATOM      5  C   UNL     1       2.362   4.714  17.909  0.00  0.00    +0.000 C 
ATOM      6  C   UNL     1       1.457   4.363  19.076  0.00  0.00    +0.000 C 
ATOM      7  S   UNL     1       1.229   2.597  18.962  0.00  0.00    +0.000 S 
ATOM      8  O   UNL     1      -0.039   2.337  18.317  0.00  0.00    +0.000 OA
ATOM      9  O   UNL     1       1.583   2.023  20.244  0.00  0.00    +0.000 OA
ATOM     10  C   UNL     1       2.545   2.294  17.795  0.00  0.00    +0.000 C 
ENDBRANCH   3   4
BRANCH   1  12
ATOM     11  C   UNL     1       6.310   6.788  17.363  0.00  0.00    +0.000 C 
ATOM     12  C   UNL     1       5.731   5.374  17.204  0.00  0.00    +0.000 C 
BRANCH  12  13
ATOM     13  C   UNL     1       6.703   4.410  16.512  0.00  0.00    +0.000 C 
BRANCH  13  14
ATOM     14  S   UNL     1       6.258   4.042  14.781  0.00  0.00    +0.000 S 
ATOM     15  H   UNL     1       6.242   2.707  14.889  0.00  0.00    +0.000 HD
ENDBRANCH  13  14
ENDBRANCH  12  13
ENDBRANCH   1  12
BRANCH   3  16
ATOM     16  C   UNL     1       4.462   3.176  20.121  0.00  0.00    +0.000 C 
BRANCH  16  17
ATOM     17  C   UNL     1       5.005   1.781  20.416  0.00  0.00    +0.000 C 
ATOM     18  O   UNL     1       5.519   1.440  21.476  0.00  0.00    +0.000 OA
BRANCH  17  19
ATOM     19  O   UNL     1       4.801   0.903  19.402  0.00  0.00    +0.000 OA
ATOM     20  H   UNL     1       4.892  -0.037  19.653  0.00  0.00    +0.000 HD
ENDBRANCH  17  19
ENDBRANCH  16  17
ENDBRANCH   3  16
TORSDOF 7
ENDMDL
MODEL 7
REMARK VINA RESULT:      -5.8      2.649      5.136
REMARK  Name = 
REMARK  8 active torsions:
REMARK  status: ('A' for Active; 'I' for Inactive)
REMARK    1  A    between atoms: C_1  and  C_2
REMARK    2  A    between atoms: C_2  and  C_3
REMARK    3  A    between atoms: C_2  and  C_5
REMARK    4  A    between atoms: C_3  and  S_4
REMARK    5  A    between atoms: N_7  and  C_8
REMARK    6  A    between atoms: N_7  and  C_12
REMARK    7  A    between atoms: C_8  and  C_9
REMARK    8  A    between atoms: C_9  and  O_11
REMARK                            x       y       z     vdW  Elec       q    Type
REMARK                         _______ _______ _______ _____ _____    ______ ____
ROOT
ATOM      1  C   UNL     1       6.976   5.135  17.267  0.00  0.00    +0.000 C 
ATOM      2  O   UNL     1       7.999   4.513  16.964  0.00  0.00    +0.000 OA
ATOM      3  N   UNL     1       5.731   4.796  16.696  0.00  0.00    +0.000 N 
ENDROOT
BRANCH   3   4
ATOM      4  C   UNL     1       4.461   5.098  17.418  0.00  0.00    +0.000 C 
ATOM      5  C   UNL     1       4.648   5.017  18.953  0.00  0.00    +0.000 C 
ATOM      6  C   UNL     1       4.561   3.551  19.338  0.00  0.00    +0.000 C 
ATOM      7  S   UNL     1       3.287   2.878  18.287  0.00  0.00    +0.000 S 
ATOM      8  O   UNL     1       2.053   2.816  19.039  0.00  0.00    +0.000 OA
ATOM      9  O   UNL     1       3.841   1.726  17.605  0.00  0.00    +0.000 OA
ATOM     10  C   UNL     1       3.206   4.254  17.153  0.00  0.00    +0.000 C 
ENDBRANCH   3   4
BRANCH   1  12
ATOM     11  C   UNL     1       8.193   6.043  19.250  0.00  0.00    +0.000 C 
ATOM     12  C   UNL     1       7.079   6.324  18.231  0.00  0.00    +0.000 C 
BRANCH  12  13
ATOM     13  C   UNL     1       7.354   7.570  17.380  0.00  0.00    +0.000 C 
BRANCH  13  14
ATOM     14  S   UNL     1       8.355   8.832  18.235  0.00  0.00    +0.000 S 
ATOM     15  H   UNL     1       8.681   9.553  17.153  0.00  0.00    +0.000 HD
ENDBRANCH  13  14
ENDBRANCH  12  13
ENDBRANCH   1  12
BRANCH   3  16
ATOM     16  C   UNL     1       5.814   3.726  15.662  0.00  0.00    +0.000 C 
BRANCH  16  17
ATOM     17  C   UNL     1       6.159   4.070  14.217  0.00  0.00    +0.000 C 
ATOM     18  O   UNL     1       5.664   3.532  13.231  0.00  0.00    +0.000 OA
BRANCH  17  19
ATOM     19  O   UNL     1       7.034   5.102  14.107  0.00  0.00    +0.000 OA
ATOM     20  H   UNL     1       7.793   5.059  14.721  0.00  0.00    +0.000 HD
ENDBRANCH  17  19
ENDBRANCH  16  17
ENDBRANCH   3  16
TORSDOF 7
ENDMDL
MODEL 8
REMARK VINA RESULT:      -5.8      1.388      1.747
REMARK  Name = 
REMARK  8 active torsions:
REMARK  status: ('A' for Active; 'I' for Inactive)
REMARK    1  A    between atoms: C_1  and  C_2
REMARK    2  A    between atoms: C_2  and  C_3
REMARK    3  A    between atoms: C_2  and  C_5
REMARK    4  A    between atoms: C_3  and  S_4
REMARK    5  A    between atoms: N_7  and  C_8
REMARK    6  A    between atoms: N_7  and  C_12
REMARK    7  A    between atoms: C_8  and  C_9
REMARK    8  A    between atoms: C_9  and  O_11
REMARK                            x       y       z     vdW  Elec       q    Type
REMARK                         _______ _______ _______ _____ _____    ______ ____
ROOT
ATOM      1  C   UNL     1       2.518   5.343  18.755  0.00  0.00    +0.000 C 
ATOM      2  O   UNL     1       1.587   4.621  19.123  0.00  0.00    +0.000 OA
ATOM      3  N   UNL     1       3.523   4.844  17.899  0.00  0.00    +0.000 N 
ENDROOT
BRANCH   3   4
ATOM      4  C   UNL     1       4.286   5.768  17.010  0.00  0.00    +0.000 C 
ATOM      5  C   UNL     1       4.864   5.025  15.782  0.00  0.00    +0.000 C 
ATOM      6  C   UNL     1       6.145   4.344  16.233  0.00  0.00    +0.000 C 
ATOM      7  S   UNL     1       6.907   5.503  17.354  0.00  0.00    +0.000 S 
ATOM      8  O   UNL     1       7.929   6.234  16.638  0.00  0.00    +0.000 OA
ATOM      9  O   UNL     1       7.176   4.804  18.595  0.00  0.00    +0.000 OA
ATOM     10  C   UNL     1       5.482   6.556  17.564  0.00  0.00    +0.000 C 
ENDBRANCH   3   4
BRANCH   1  12
ATOM     11  C   UNL     1       2.034   7.736  18.225  0.00  0.00    +0.000 C 
ATOM     12  C   UNL     1       2.605   6.780  19.284  0.00  0.00    +0.000 C 
BRANCH  12  13
ATOM     13  C   UNL     1       1.823   6.822  20.603  0.00  0.00    +0.000 C 
BRANCH  13  14
ATOM     14  S   UNL     1       1.195   8.480  21.029  0.00  0.00    +0.000 S 
ATOM     15  H   UNL     1       1.064   8.279  22.347  0.00  0.00    +0.000 HD
ENDBRANCH  13  14
ENDBRANCH  12  13
ENDBRANCH   1  12
BRANCH   3  16
ATOM     16  C   UNL     1       3.389   3.391  17.596  0.00  0.00    +0.000 C 
BRANCH  16  17
ATOM     17  C   UNL     1       4.016   2.347  18.514  0.00  0.00    +0.000 C 
ATOM     18  O   UNL     1       3.690   1.165  18.558  0.00  0.00    +0.000 OA
BRANCH  17  19
ATOM     19  O   UNL     1       5.047   2.834  19.251  0.00  0.00    +0.000 OA
ATOM     20  H   UNL     1       4.959   3.774  19.502  0.00  0.00    +0.000 HD
ENDBRANCH  17  19
ENDBRANCH  16  17
ENDBRANCH   3  16
TORSDOF 7
ENDMDL
MODEL 9
REMARK VINA RESULT:      -5.7      2.650      3.687
REMARK  Name = 
REMARK  8 active torsions:
REMARK  status: ('A' for Active; 'I' for Inactive)
REMARK    1  A    between atoms: C_1  and  C_2
REMARK    2  A    between atoms: C_2  and  C_3
REMARK    3  A    between atoms: C_2  and  C_5
REMARK    4  A    between atoms: C_3  and  S_4
REMARK    5  A    between atoms: N_7  and  C_8
REMARK    6  A    between atoms: N_7  and  C_12
REMARK    7  A    between atoms: C_8  and  C_9
REMARK    8  A    between atoms: C_9  and  O_11
REMARK                            x       y       z     vdW  Elec       q    Type
REMARK                         _______ _______ _______ _____ _____    ______ ____
ROOT
ATOM      1  C   UNL     1       3.206   3.889  17.327  0.00  0.00    +0.000 C 
ATOM      2  O   UNL     1       2.523   3.459  16.394  0.00  0.00    +0.000 OA
ATOM      3  N   UNL     1       4.358   4.666  17.080  0.00  0.00    +0.000 N 
ENDROOT
BRANCH   3   4
ATOM      4  C   UNL     1       4.847   5.639  18.100  0.00  0.00    +0.000 C 
ATOM      5  C   UNL     1       5.430   6.910  17.439  0.00  0.00    +0.000 C 
ATOM      6  C   UNL     1       6.852   6.583  17.017  0.00  0.00    +0.000 C 
ATOM      7  S   UNL     1       7.493   5.559  18.329  0.00  0.00    +0.000 S 
ATOM      8  O   UNL     1       8.287   6.384  19.212  0.00  0.00    +0.000 OA
ATOM      9  O   UNL     1       8.005   4.344  17.729  0.00  0.00    +0.000 OA
ATOM     10  C   UNL     1       5.925   5.218  19.110  0.00  0.00    +0.000 C 
ENDBRANCH   3   4
BRANCH   1  12
ATOM     11  C   UNL     1       1.300   3.638  18.923  0.00  0.00    +0.000 C 
ATOM     12  C   UNL     1       2.824   3.521  18.767  0.00  0.00    +0.000 C 
BRANCH  12  13
ATOM     13  C   UNL     1       3.339   2.098  19.019  0.00  0.00    +0.000 C 
BRANCH  13  14
ATOM     14  S   UNL     1       4.486   1.976  20.431  0.00  0.00    +0.000 S 
ATOM     15  H   UNL     1       3.602   2.270  21.395  0.00  0.00    +0.000 HD
ENDBRANCH  13  14
ENDBRANCH  12  13
ENDBRANCH   1  12
BRANCH   3  16
ATOM     16  C   UNL     1       4.689   4.808  15.634  0.00  0.00    +0.000 C 
BRANCH  16  17
ATOM     17  C   UNL     1       5.740   3.911  14.988  0.00  0.00    +0.000 C 
ATOM     18  O   UNL     1       6.126   4.007  13.828  0.00  0.00    +0.000 OA
BRANCH  17  19
ATOM     19  O   UNL     1       6.281   3.014  15.852  0.00  0.00    +0.000 OA
ATOM     20  H   UNL     1       5.805   2.163  15.907  0.00  0.00    +0.000 HD
ENDBRANCH  17  19
ENDBRANCH  16  17
ENDBRANCH   3  16
TORSDOF 7
ENDMDL
