MODEL 1
REMARK VINA RESULT:      -9.4      0.000      0.000
REMARK  Name = 
REMARK  6 active torsions:
REMARK  status: ('A' for Active; 'I' for Inactive)
REMARK    1  A    between atoms: C_2  and  C_10
REMARK    2  A    between atoms: N_3  and  C_4
REMARK    3  A    between atoms: C_4  and  C_5
REMARK    4  A    between atoms: C_13  and  C_14
REMARK    5  A    between atoms: C_15  and  C_16
REMARK    6  A    between atoms: C_16  and  C_18
REMARK                            x       y       z     vdW  Elec       q    Type
REMARK                         _______ _______ _______ _____ _____    ______ ____
ROOT
ATOM      1  C   UNL     1       8.774   8.644  18.228  0.00  0.00    +0.000 C 
ATOM      2  C   UNL     1       8.456   9.950  18.329  0.00  0.00    +0.000 C 
ENDROOT
BRANCH   1   6
ATOM      3  C   UNL     1       5.970   5.352  18.006  0.00  0.00    +0.000 A 
ATOM      4  C   UNL     1       5.805   6.482  17.199  0.00  0.00    +0.000 A 
ATOM      5  C   UNL     1       6.704   7.558  17.275  0.00  0.00    +0.000 A 
ATOM      6  C   UNL     1       7.793   7.532  18.153  0.00  0.00    +0.000 A 
ATOM      7  C   UNL     1       7.981   6.370  18.928  0.00  0.00    +0.000 A 
ATOM      8  C   UNL     1       7.075   5.292  18.861  0.00  0.00    +0.000 A 
BRANCH   3  10
ATOM      9  O   UNL     1       4.187   4.209  16.958  0.00  0.00    +0.000 OA
ATOM     10  C   UNL     1       4.988   4.231  17.887  0.00  0.00    +0.000 C 
ATOM     11  N   UNL     1       5.019   3.272  18.877  0.00  0.00    +0.000 N 
ATOM     12  H   UNL     1       5.498   3.471  19.745  0.00  0.00    +0.000 HD
BRANCH  11  13
ATOM     13  C   UNL     1       4.048   2.200  18.910  0.00  0.00    +0.000 C 
BRANCH  13  14
ATOM     14  C   UNL     1       2.879   2.629  19.724  0.00  0.00    +0.000 A 
ATOM     15  C   UNL     1       1.609   3.076  19.400  0.00  0.00    +0.000 A 
ATOM     16  C   UNL     1       0.960   3.348  20.624  0.00  0.00    +0.000 A 
ATOM     17  C   UNL     1       1.859   3.046  21.616  0.00  0.00    +0.000 A 
ATOM     18  O   UNL     1       3.027   2.608  21.087  0.00  0.00    +0.000 OA
ENDBRANCH  13  14
ENDBRANCH  11  13
ENDBRANCH   3  10
ENDBRANCH   1   6
BRANCH   2  19
ATOM     19  C   UNL     1       9.523  11.018  18.405  0.00  0.00    +0.000 C 
ATOM     20  O   UNL     1      10.629  10.750  18.851  0.00  0.00    +0.000 OA
BRANCH  19  21
ATOM     21  C   UNL     1       9.174  12.458  18.021  0.00  0.00    +0.000 A 
ATOM     22  C   UNL     1      10.229  13.065  17.316  0.00  0.00    +0.000 A 
ATOM     23  C   UNL     1      10.871  14.162  17.900  0.00  0.00    +0.000 A 
ATOM     24  C   UNL     1      10.540  14.499  19.217  0.00  0.00    +0.000 A 
ATOM     25  C   UNL     1       9.466  13.831  19.828  0.00  0.00    +0.000 A 
ATOM     26  C   UNL     1       8.560  13.251  18.967  0.00  0.00    +0.000 A 
ATOM     27  C   UNL     1       7.593  14.389  18.535  0.00  0.00    +0.000 C 
ATOM     28  O   UNL     1       6.967  14.329  17.489  0.00  0.00    +0.000 OA
ATOM     29  C   UNL     1       7.493  15.626  19.442  0.00  0.00    +0.000 A 
ATOM     30  C   UNL     1       7.038  16.876  19.037  0.00  0.00    +0.000 A 
ATOM     31  C   UNL     1       7.103  17.965  19.925  0.00  0.00    +0.000 A 
ATOM     32  C   UNL     1       7.575  17.817  21.236  0.00  0.00    +0.000 A 
ATOM     33  C   UNL     1       8.030  16.578  21.659  0.00  0.00    +0.000 A 
ATOM     34  C   UNL     1       8.014  15.531  20.742  0.00  0.00    +0.000 A 
ATOM     35  C   UNL     1       8.816  14.351  21.022  0.00  0.00    +0.000 C 
ATOM     36  O   UNL     1       8.840  13.761  22.095  0.00  0.00    +0.000 OA
ENDBRANCH  19  21
ENDBRANCH   2  19
TORSDOF 6
ENDMDL
MODEL 2
REMARK VINA RESULT:      -9.2      7.042     11.284
REMARK  Name = 
REMARK  6 active torsions:
REMARK  status: ('A' for Active; 'I' for Inactive)
REMARK    1  A    between atoms: C_2  and  C_10
REMARK    2  A    between atoms: N_3  and  C_4
REMARK    3  A    between atoms: C_4  and  C_5
REMARK    4  A    between atoms: C_13  and  C_14
REMARK    5  A    between atoms: C_15  and  C_16
REMARK    6  A    between atoms: C_16  and  C_18
REMARK                            x       y       z     vdW  Elec       q    Type
REMARK                         _______ _______ _______ _____ _____    ______ ____
ROOT
ATOM      1  C   UNL     1       1.310   8.097  20.783  0.00  0.00    +0.000 C 
ATOM      2  C   UNL     1       1.127   6.847  21.251  0.00  0.00    +0.000 C 
ENDROOT
BRANCH   1   6
ATOM      3  C   UNL     1      -0.662  11.667  22.238  0.00  0.00    +0.000 A 
ATOM      4  C   UNL     1      -0.663  10.493  22.999  0.00  0.00    +0.000 A 
ATOM      5  C   UNL     1      -0.035   9.329  22.527  0.00  0.00    +0.000 A 
ATOM      6  C   UNL     1       0.614   9.307  21.288  0.00  0.00    +0.000 A 
ATOM      7  C   UNL     1       0.653  10.506  20.549  0.00  0.00    +0.000 A 
ATOM      8  C   UNL     1       0.016  11.674  21.015  0.00  0.00    +0.000 A 
BRANCH   3  10
ATOM      9  O   UNL     1      -0.862  13.476  23.743  0.00  0.00    +0.000 OA
ATOM     10  C   UNL     1      -1.341  12.881  22.784  0.00  0.00    +0.000 C 
ATOM     11  N   UNL     1      -2.521  13.256  22.177  0.00  0.00    +0.000 N 
ATOM     12  H   UNL     1      -3.005  12.597  21.584  0.00  0.00    +0.000 HD
BRANCH  11  13
ATOM     13  C   UNL     1      -3.307  14.357  22.690  0.00  0.00    +0.000 C 
BRANCH  13  14
ATOM     14  C   UNL     1      -4.585  13.828  23.235  0.00  0.00    +0.000 A 
ATOM     15  C   UNL     1      -5.875  14.331  23.291  0.00  0.00    +0.000 A 
ATOM     16  C   UNL     1      -6.652  13.358  23.957  0.00  0.00    +0.000 A 
ATOM     17  C   UNL     1      -5.803  12.324  24.259  0.00  0.00    +0.000 A 
ATOM     18  O   UNL     1      -4.546  12.592  23.828  0.00  0.00    +0.000 OA
ENDBRANCH  13  14
ENDBRANCH  11  13
ENDBRANCH   3  10
ENDBRANCH   1   6
BRANCH   2  19
ATOM     19  C   UNL     1       1.877   5.669  20.673  0.00  0.00    +0.000 C 
ATOM     20  O   UNL     1       2.292   4.785  21.407  0.00  0.00    +0.000 OA
BRANCH  19  21
ATOM     21  C   UNL     1       2.208   5.649  19.178  0.00  0.00    +0.000 A 
ATOM     22  C   UNL     1       1.467   4.658  18.509  0.00  0.00    +0.000 A 
ATOM     23  C   UNL     1       2.162   3.596  17.920  0.00  0.00    +0.000 A 
ATOM     24  C   UNL     1       3.536   3.490  18.160  0.00  0.00    +0.000 A 
ATOM     25  C   UNL     1       4.179   4.539  18.837  0.00  0.00    +0.000 A 
ATOM     26  C   UNL     1       3.530   5.754  18.804  0.00  0.00    +0.000 A 
ATOM     27  C   UNL     1       3.917   6.407  17.446  0.00  0.00    +0.000 C 
ATOM     28  O   UNL     1       3.208   7.250  16.922  0.00  0.00    +0.000 OA
ATOM     29  C   UNL     1       5.196   5.913  16.754  0.00  0.00    +0.000 A 
ATOM     30  C   UNL     1       5.473   6.052  15.398  0.00  0.00    +0.000 A 
ATOM     31  C   UNL     1       6.624   5.455  14.855  0.00  0.00    +0.000 A 
ATOM     32  C   UNL     1       7.536   4.754  15.655  0.00  0.00    +0.000 A 
ATOM     33  C   UNL     1       7.279   4.606  17.009  0.00  0.00    +0.000 A 
ATOM     34  C   UNL     1       6.102   5.152  17.511  0.00  0.00    +0.000 A 
ATOM     35  C   UNL     1       5.626   4.701  18.808  0.00  0.00    +0.000 C 
ATOM     36  O   UNL     1       6.320   4.603  19.812  0.00  0.00    +0.000 OA
ENDBRANCH  19  21
ENDBRANCH   2  19
TORSDOF 6
ENDMDL
MODEL 3
REMARK VINA RESULT:      -9.1      7.227     11.322
REMARK  Name = 
REMARK  6 active torsions:
REMARK  status: ('A' for Active; 'I' for Inactive)
REMARK    1  A    between atoms: C_2  and  C_10
REMARK    2  A    between atoms: N_3  and  C_4
REMARK    3  A    between atoms: C_4  and  C_5
REMARK    4  A    between atoms: C_13  and  C_14
REMARK    5  A    between atoms: C_15  and  C_16
REMARK    6  A    between atoms: C_16  and  C_18
REMARK                            x       y       z     vdW  Elec       q    Type
REMARK                         _______ _______ _______ _____ _____    ______ ____
ROOT
ATOM      1  C   UNL     1       1.230   8.094  20.866  0.00  0.00    +0.000 C 
ATOM      2  C   UNL     1       0.992   6.805  21.177  0.00  0.00    +0.000 C 
ENDROOT
BRANCH   1   6
ATOM      3  C   UNL     1      -1.177  11.410  22.265  0.00  0.00    +0.000 A 
ATOM      4  C   UNL     1      -0.786  11.331  20.924  0.00  0.00    +0.000 A 
ATOM      5  C   UNL     1       0.004  10.264  20.467  0.00  0.00    +0.000 A 
ATOM      6  C   UNL     1       0.420   9.247  21.334  0.00  0.00    +0.000 A 
ATOM      7  C   UNL     1      -0.017   9.308  22.671  0.00  0.00    +0.000 A 
ATOM      8  C   UNL     1      -0.803  10.383  23.136  0.00  0.00    +0.000 A 
BRANCH   3  10
ATOM      9  O   UNL     1      -1.880  13.039  23.825  0.00  0.00    +0.000 OA
ATOM     10  C   UNL     1      -2.020  12.565  22.703  0.00  0.00    +0.000 C 
ATOM     11  N   UNL     1      -2.958  13.024  21.803  0.00  0.00    +0.000 N 
ATOM     12  H   UNL     1      -3.217  12.443  21.017  0.00  0.00    +0.000 HD
BRANCH  11  13
ATOM     13  C   UNL     1      -3.890  14.070  22.164  0.00  0.00    +0.000 C 
BRANCH  13  14
ATOM     14  C   UNL     1      -5.189  13.454  22.542  0.00  0.00    +0.000 A 
ATOM     15  C   UNL     1      -6.140  12.734  21.837  0.00  0.00    +0.000 A 
ATOM     16  C   UNL     1      -7.173  12.438  22.753  0.00  0.00    +0.000 A 
ATOM     17  C   UNL     1      -6.793  12.981  23.955  0.00  0.00    +0.000 A 
ATOM     18  O   UNL     1      -5.593  13.600  23.844  0.00  0.00    +0.000 OA
ENDBRANCH  13  14
ENDBRANCH  11  13
ENDBRANCH   3  10
ENDBRANCH   1   6
BRANCH   2  19
ATOM     19  C   UNL     1       1.868   5.691  20.650  0.00  0.00    +0.000 C 
ATOM     20  O   UNL     1       2.372   4.889  21.422  0.00  0.00    +0.000 OA
BRANCH  19  21
ATOM     21  C   UNL     1       2.207   5.643  19.157  0.00  0.00    +0.000 A 
ATOM     22  C   UNL     1       1.471   4.638  18.503  0.00  0.00    +0.000 A 
ATOM     23  C   UNL     1       2.171   3.567  17.938  0.00  0.00    +0.000 A 
ATOM     24  C   UNL     1       3.543   3.467  18.188  0.00  0.00    +0.000 A 
ATOM     25  C   UNL     1       4.181   4.529  18.849  0.00  0.00    +0.000 A 
ATOM     26  C   UNL     1       3.532   5.742  18.789  0.00  0.00    +0.000 A 
ATOM     27  C   UNL     1       3.925   6.370  17.422  0.00  0.00    +0.000 C 
ATOM     28  O   UNL     1       3.219   7.202  16.877  0.00  0.00    +0.000 OA
ATOM     29  C   UNL     1       5.209   5.865  16.746  0.00  0.00    +0.000 A 
ATOM     30  C   UNL     1       5.494   5.978  15.389  0.00  0.00    +0.000 A 
ATOM     31  C   UNL     1       6.648   5.372  14.864  0.00  0.00    +0.000 A 
ATOM     32  C   UNL     1       7.557   4.687  15.682  0.00  0.00    +0.000 A 
ATOM     33  C   UNL     1       7.292   4.565  17.038  0.00  0.00    +0.000 A 
ATOM     34  C   UNL     1       6.111   5.119  17.523  0.00  0.00    +0.000 A 
ATOM     35  C   UNL     1       5.628   4.692  18.825  0.00  0.00    +0.000 C 
ATOM     36  O   UNL     1       6.316   4.614  19.835  0.00  0.00    +0.000 OA
ENDBRANCH  19  21
ENDBRANCH   2  19
TORSDOF 6
ENDMDL
MODEL 4
REMARK VINA RESULT:      -9.0      1.476      2.402
REMARK  Name = 
REMARK  6 active torsions:
REMARK  status: ('A' for Active; 'I' for Inactive)
REMARK    1  A    between atoms: C_2  and  C_10
REMARK    2  A    between atoms: N_3  and  C_4
REMARK    3  A    between atoms: C_4  and  C_5
REMARK    4  A    between atoms: C_13  and  C_14
REMARK    5  A    between atoms: C_15  and  C_16
REMARK    6  A    between atoms: C_16  and  C_18
REMARK                            x       y       z     vdW  Elec       q    Type
REMARK                         _______ _______ _______ _____ _____    ______ ____
ROOT
ATOM      1  C   UNL     1       8.229   9.070  17.686  0.00  0.00    +0.000 C 
ATOM      2  C   UNL     1       8.931   9.687  18.656  0.00  0.00    +0.000 C 
ENDROOT
BRANCH   1   6
ATOM      3  C   UNL     1       6.084   5.340  18.169  0.00  0.00    +0.000 A 
ATOM      4  C   UNL     1       5.594   6.337  17.319  0.00  0.00    +0.000 A 
ATOM      5  C   UNL     1       6.279   7.553  17.168  0.00  0.00    +0.000 A 
ATOM      6  C   UNL     1       7.472   7.804  17.855  0.00  0.00    +0.000 A 
ATOM      7  C   UNL     1       7.985   6.777  18.671  0.00  0.00    +0.000 A 
ATOM      8  C   UNL     1       7.295   5.558  18.833  0.00  0.00    +0.000 A 
BRANCH   3  10
ATOM      9  O   UNL     1       4.749   3.586  17.320  0.00  0.00    +0.000 OA
ATOM     10  C   UNL     1       5.321   4.060  18.296  0.00  0.00    +0.000 C 
ATOM     11  N   UNL     1       5.278   3.486  19.548  0.00  0.00    +0.000 N 
ATOM     12  H   UNL     1       5.528   4.039  20.356  0.00  0.00    +0.000 HD
BRANCH  11  13
ATOM     13  C   UNL     1       4.486   2.301  19.799  0.00  0.00    +0.000 C 
BRANCH  13  14
ATOM     14  C   UNL     1       3.072   2.701  20.024  0.00  0.00    +0.000 A 
ATOM     15  C   UNL     1       2.453   3.527  20.948  0.00  0.00    +0.000 A 
ATOM     16  C   UNL     1       1.072   3.487  20.654  0.00  0.00    +0.000 A 
ATOM     17  C   UNL     1       0.930   2.654  19.573  0.00  0.00    +0.000 A 
ATOM     18  O   UNL     1       2.132   2.170  19.178  0.00  0.00    +0.000 OA
ENDBRANCH  13  14
ENDBRANCH  11  13
ENDBRANCH   3  10
ENDBRANCH   1   6
BRANCH   2  19
ATOM     19  C   UNL     1       9.678  10.975  18.393  0.00  0.00    +0.000 C 
ATOM     20  O   UNL     1       9.956  11.301  17.248  0.00  0.00    +0.000 OA
BRANCH  19  21
ATOM     21  C   UNL     1      10.176  11.810  19.576  0.00  0.00    +0.000 A 
ATOM     22  C   UNL     1       9.871  11.188  20.800  0.00  0.00    +0.000 A 
ATOM     23  C   UNL     1       8.989  11.838  21.670  0.00  0.00    +0.000 A 
ATOM     24  C   UNL     1       8.336  12.987  21.214  0.00  0.00    +0.000 A 
ATOM     25  C   UNL     1       8.720  13.528  19.976  0.00  0.00    +0.000 A 
ATOM     26  C   UNL     1       9.976  13.174  19.537  0.00  0.00    +0.000 A 
ATOM     27  C   UNL     1      10.966  14.136  20.253  0.00  0.00    +0.000 C 
ATOM     28  O   UNL     1      12.135  13.834  20.424  0.00  0.00    +0.000 OA
ATOM     29  C   UNL     1      10.409  15.463  20.792  0.00  0.00    +0.000 A 
ATOM     30  C   UNL     1      11.002  16.229  21.790  0.00  0.00    +0.000 A 
ATOM     31  C   UNL     1      10.339  17.365  22.285  0.00  0.00    +0.000 A 
ATOM     32  C   UNL     1       9.105  17.782  21.767  0.00  0.00    +0.000 A 
ATOM     33  C   UNL     1       8.499  17.032  20.770  0.00  0.00    +0.000 A 
ATOM     34  C   UNL     1       9.145  15.877  20.341  0.00  0.00    +0.000 A 
ATOM     35  C   UNL     1       8.382  14.892  19.594  0.00  0.00    +0.000 C 
ATOM     36  O   UNL     1       7.644  15.147  18.651  0.00  0.00    +0.000 OA
ENDBRANCH  19  21
ENDBRANCH   2  19
TORSDOF 6
ENDMDL
MODEL 5
REMARK VINA RESULT:      -8.9      6.111      7.758
REMARK  Name = 
REMARK  6 active torsions:
REMARK  status: ('A' for Active; 'I' for Inactive)
REMARK    1  A    between atoms: C_2  and  C_10
REMARK    2  A    between atoms: N_3  and  C_4
REMARK    3  A    between atoms: C_4  and  C_5
REMARK    4  A    between atoms: C_13  and  C_14
REMARK    5  A    between atoms: C_15  and  C_16
REMARK    6  A    between atoms: C_16  and  C_18
REMARK                            x       y       z     vdW  Elec       q    Type
REMARK                         _______ _______ _______ _____ _____    ______ ____
ROOT
ATOM      1  C   UNL     1       0.288   9.992  20.602  0.00  0.00    +0.000 C 
ATOM      2  C   UNL     1       0.773  11.109  21.180  0.00  0.00    +0.000 C 
ENDROOT
BRANCH   1   6
ATOM      3  C   UNL     1       2.656   6.705  19.073  0.00  0.00    +0.000 A 
ATOM      4  C   UNL     1       2.119   6.656  20.364  0.00  0.00    +0.000 A 
ATOM      5  C   UNL     1       1.361   7.724  20.869  0.00  0.00    +0.000 A 
ATOM      6  C   UNL     1       1.113   8.865  20.099  0.00  0.00    +0.000 A 
ATOM      7  C   UNL     1       1.615   8.888  18.783  0.00  0.00    +0.000 A 
ATOM      8  C   UNL     1       2.385   7.821  18.276  0.00  0.00    +0.000 A 
BRANCH   3  10
ATOM      9  O   UNL     1       2.894   4.498  18.267  0.00  0.00    +0.000 OA
ATOM     10  C   UNL     1       3.455   5.542  18.579  0.00  0.00    +0.000 C 
ATOM     11  N   UNL     1       4.823   5.707  18.530  0.00  0.00    +0.000 N 
ATOM     12  H   UNL     1       5.250   6.468  19.040  0.00  0.00    +0.000 HD
BRANCH  11  13
ATOM     13  C   UNL     1       5.694   4.612  18.160  0.00  0.00    +0.000 C 
BRANCH  13  14
ATOM     14  C   UNL     1       5.930   4.653  16.693  0.00  0.00    +0.000 A 
ATOM     15  C   UNL     1       5.129   4.390  15.594  0.00  0.00    +0.000 A 
ATOM     16  C   UNL     1       5.940   4.588  14.455  0.00  0.00    +0.000 A 
ATOM     17  C   UNL     1       7.175   4.965  14.919  0.00  0.00    +0.000 A 
ATOM     18  O   UNL     1       7.186   5.010  16.273  0.00  0.00    +0.000 OA
ENDBRANCH  13  14
ENDBRANCH  11  13
ENDBRANCH   3  10
ENDBRANCH   1   6
BRANCH   2  19
ATOM     19  C   UNL     1      -0.144  12.211  21.659  0.00  0.00    +0.000 C 
ATOM     20  O   UNL     1      -0.442  12.291  22.841  0.00  0.00    +0.000 OA
BRANCH  19  21
ATOM     21  C   UNL     1      -0.780  13.158  20.637  0.00  0.00    +0.000 A 
ATOM     22  C   UNL     1      -1.329  12.442  19.557  0.00  0.00    +0.000 A 
ATOM     23  C   UNL     1      -0.778  12.636  18.286  0.00  0.00    +0.000 A 
ATOM     24  C   UNL     1       0.386  13.405  18.180  0.00  0.00    +0.000 A 
ATOM     25  C   UNL     1       0.848  14.080  19.321  0.00  0.00    +0.000 A 
ATOM     26  C   UNL     1      -0.094  14.305  20.301  0.00  0.00    +0.000 A 
ATOM     27  C   UNL     1      -0.864  15.585  19.867  0.00  0.00    +0.000 C 
ATOM     28  O   UNL     1      -1.997  15.808  20.258  0.00  0.00    +0.000 OA
ATOM     29  C   UNL     1      -0.170  16.537  18.880  0.00  0.00    +0.000 A 
ATOM     30  C   UNL     1      -0.823  17.464  18.075  0.00  0.00    +0.000 A 
ATOM     31  C   UNL     1      -0.094  18.198  17.123  0.00  0.00    +0.000 A 
ATOM     32  C   UNL     1       1.294  18.057  16.989  0.00  0.00    +0.000 A 
ATOM     33  C   UNL     1       1.963  17.139  17.785  0.00  0.00    +0.000 A 
ATOM     34  C   UNL     1       1.210  16.379  18.675  0.00  0.00    +0.000 A 
ATOM     35  C   UNL     1       1.804  15.175  19.233  0.00  0.00    +0.000 C 
ATOM     36  O   UNL     1       2.928  15.108  19.714  0.00  0.00    +0.000 OA
ENDBRANCH  19  21
ENDBRANCH   2  19
TORSDOF 6
ENDMDL
MODEL 6
REMARK VINA RESULT:      -8.9      7.084     11.468
REMARK  Name = 
REMARK  6 active torsions:
REMARK  status: ('A' for Active; 'I' for Inactive)
REMARK    1  A    between atoms: C_2  and  C_10
REMARK    2  A    between atoms: N_3  and  C_4
REMARK    3  A    between atoms: C_4  and  C_5
REMARK    4  A    between atoms: C_13  and  C_14
REMARK    5  A    between atoms: C_15  and  C_16
REMARK    6  A    between atoms: C_16  and  C_18
REMARK                            x       y       z     vdW  Elec       q    Type
REMARK                         _______ _______ _______ _____ _____    ______ ____
ROOT
ATOM      1  C   UNL     1       1.139   8.037  20.723  0.00  0.00    +0.000 C 
ATOM      2  C   UNL     1       1.226   6.838  21.330  0.00  0.00    +0.000 C 
ENDROOT
BRANCH   1   6
ATOM      3  C   UNL     1      -0.715  11.576  22.391  0.00  0.00    +0.000 A 
ATOM      4  C   UNL     1      -0.883  10.330  23.003  0.00  0.00    +0.000 A 
ATOM      5  C   UNL     1      -0.294   9.177  22.460  0.00  0.00    +0.000 A 
ATOM      6  C   UNL     1       0.481   9.238  21.297  0.00  0.00    +0.000 A 
ATOM      7  C   UNL     1       0.686  10.504  20.713  0.00  0.00    +0.000 A 
ATOM      8  C   UNL     1       0.088  11.662  21.250  0.00  0.00    +0.000 A 
BRANCH   3  10
ATOM      9  O   UNL     1      -0.742  13.831  23.096  0.00  0.00    +0.000 OA
ATOM     10  C   UNL     1      -1.361  12.776  23.009  0.00  0.00    +0.000 C 
ATOM     11  N   UNL     1      -2.643  12.612  23.486  0.00  0.00    +0.000 N 
ATOM     12  H   UNL     1      -3.002  11.679  23.635  0.00  0.00    +0.000 HD
BRANCH  11  13
ATOM     13  C   UNL     1      -3.320  13.680  24.189  0.00  0.00    +0.000 C 
BRANCH  13  14
ATOM     14  C   UNL     1      -4.357  14.267  23.298  0.00  0.00    +0.000 A 
ATOM     15  C   UNL     1      -5.450  13.735  22.634  0.00  0.00    +0.000 A 
ATOM     16  C   UNL     1      -6.041  14.803  21.925  0.00  0.00    +0.000 A 
ATOM     17  C   UNL     1      -5.288  15.917  22.201  0.00  0.00    +0.000 A 
ATOM     18  O   UNL     1      -4.264  15.609  23.032  0.00  0.00    +0.000 OA
ENDBRANCH  13  14
ENDBRANCH  11  13
ENDBRANCH   3  10
ENDBRANCH   1   6
BRANCH   2  19
ATOM     19  C   UNL     1       1.911   5.665  20.667  0.00  0.00    +0.000 C 
ATOM     20  O   UNL     1       2.313   4.727  21.340  0.00  0.00    +0.000 OA
BRANCH  19  21
ATOM     21  C   UNL     1       2.195   5.712  19.163  0.00  0.00    +0.000 A 
ATOM     22  C   UNL     1       1.374   4.807  18.464  0.00  0.00    +0.000 A 
ATOM     23  C   UNL     1       1.984   3.742  17.794  0.00  0.00    +0.000 A 
ATOM     24  C   UNL     1       3.355   3.540  17.982  0.00  0.00    +0.000 A 
ATOM     25  C   UNL     1       4.082   4.507  18.695  0.00  0.00    +0.000 A 
ATOM     26  C   UNL     1       3.509   5.759  18.751  0.00  0.00    +0.000 A 
ATOM     27  C   UNL     1       3.894   6.465  17.420  0.00  0.00    +0.000 C 
ATOM     28  O   UNL     1       3.224   7.378  16.968  0.00  0.00    +0.000 OA
ATOM     29  C   UNL     1       5.120   5.936  16.659  0.00  0.00    +0.000 A 
ATOM     30  C   UNL     1       5.364   6.137  15.304  0.00  0.00    +0.000 A 
ATOM     31  C   UNL     1       6.459   5.504  14.690  0.00  0.00    +0.000 A 
ATOM     32  C   UNL     1       7.349   4.704  15.418  0.00  0.00    +0.000 A 
ATOM     33  C   UNL     1       7.124   4.494  16.770  0.00  0.00    +0.000 A 
ATOM     34  C   UNL     1       5.998   5.080  17.341  0.00  0.00    +0.000 A 
ATOM     35  C   UNL     1       5.534   4.583  18.626  0.00  0.00    +0.000 C 
ATOM     36  O   UNL     1       6.251   4.385  19.599  0.00  0.00    +0.000 OA
ENDBRANCH  19  21
ENDBRANCH   2  19
TORSDOF 6
ENDMDL
MODEL 7
REMARK VINA RESULT:      -8.9      0.975      1.054
REMARK  Name = 
REMARK  6 active torsions:
REMARK  status: ('A' for Active; 'I' for Inactive)
REMARK    1  A    between atoms: C_2  and  C_10
REMARK    2  A    between atoms: N_3  and  C_4
REMARK    3  A    between atoms: C_4  and  C_5
REMARK    4  A    between atoms: C_13  and  C_14
REMARK    5  A    between atoms: C_15  and  C_16
REMARK    6  A    between atoms: C_16  and  C_18
REMARK                            x       y       z     vdW  Elec       q    Type
REMARK                         _______ _______ _______ _____ _____    ______ ____
ROOT
ATOM      1  C   UNL     1       8.761   9.246  17.847  0.00  0.00    +0.000 C 
ATOM      2  C   UNL     1       9.073  10.093  18.848  0.00  0.00    +0.000 C 
ENDROOT
BRANCH   1   6
ATOM      3  C   UNL     1       6.223   5.757  18.215  0.00  0.00    +0.000 A 
ATOM      4  C   UNL     1       5.875   6.802  17.352  0.00  0.00    +0.000 A 
ATOM      5  C   UNL     1       6.689   7.940  17.238  0.00  0.00    +0.000 A 
ATOM      6  C   UNL     1       7.871   8.065  17.976  0.00  0.00    +0.000 A 
ATOM      7  C   UNL     1       8.240   6.988  18.806  0.00  0.00    +0.000 A 
ATOM      8  C   UNL     1       7.421   5.847  18.931  0.00  0.00    +0.000 A 
BRANCH   3  10
ATOM      9  O   UNL     1       5.713   3.542  18.861  0.00  0.00    +0.000 OA
ATOM     10  C   UNL     1       5.327   4.563  18.302  0.00  0.00    +0.000 C 
ATOM     11  N   UNL     1       4.090   4.673  17.702  0.00  0.00    +0.000 N 
ATOM     12  H   UNL     1       3.926   5.415  17.036  0.00  0.00    +0.000 HD
BRANCH  11  13
ATOM     13  C   UNL     1       3.187   3.545  17.643  0.00  0.00    +0.000 C 
BRANCH  13  14
ATOM     14  C   UNL     1       2.446   3.448  18.928  0.00  0.00    +0.000 A 
ATOM     15  C   UNL     1       2.657   2.732  20.095  0.00  0.00    +0.000 A 
ATOM     16  C   UNL     1       1.583   3.050  20.955  0.00  0.00    +0.000 A 
ATOM     17  C   UNL     1       0.790   3.939  20.274  0.00  0.00    +0.000 A 
ATOM     18  O   UNL     1       1.299   4.191  19.044  0.00  0.00    +0.000 OA
ENDBRANCH  13  14
ENDBRANCH  11  13
ENDBRANCH   3  10
ENDBRANCH   1   6
BRANCH   2  19
ATOM     19  C   UNL     1       9.994  11.270  18.627  0.00  0.00    +0.000 C 
ATOM     20  O   UNL     1      11.182  11.181  18.900  0.00  0.00    +0.000 OA
BRANCH  19  21
ATOM     21  C   UNL     1       9.408  12.607  18.161  0.00  0.00    +0.000 A 
ATOM     22  C   UNL     1      10.353  13.345  17.426  0.00  0.00    +0.000 A 
ATOM     23  C   UNL     1      10.791  14.566  17.949  0.00  0.00    +0.000 A 
ATOM     24  C   UNL     1      10.391  14.913  19.244  0.00  0.00    +0.000 A 
ATOM     25  C   UNL     1       9.440  14.106  19.889  0.00  0.00    +0.000 A 
ATOM     26  C   UNL     1       8.657  13.333  19.060  0.00  0.00    +0.000 A 
ATOM     27  C   UNL     1       7.515  14.264  18.561  0.00  0.00    +0.000 C 
ATOM     28  O   UNL     1       6.922  14.040  17.519  0.00  0.00    +0.000 OA
ATOM     29  C   UNL     1       7.194  15.512  19.397  0.00  0.00    +0.000 A 
ATOM     30  C   UNL     1       6.537  16.643  18.921  0.00  0.00    +0.000 A 
ATOM     31  C   UNL     1       6.405  17.773  19.747  0.00  0.00    +0.000 A 
ATOM     32  C   UNL     1       6.878  17.781  21.065  0.00  0.00    +0.000 A 
ATOM     33  C   UNL     1       7.534  16.663  21.559  0.00  0.00    +0.000 A 
ATOM     34  C   UNL     1       7.708  15.580  20.702  0.00  0.00    +0.000 A 
ATOM     35  C   UNL     1       8.696  14.572  21.050  0.00  0.00    +0.000 C 
ATOM     36  O   UNL     1       8.808  14.055  22.155  0.00  0.00    +0.000 OA
ENDBRANCH  19  21
ENDBRANCH   2  19
TORSDOF 6
ENDMDL
MODEL 8
REMARK VINA RESULT:      -8.8      6.226      7.913
REMARK  Name = 
REMARK  6 active torsions:
REMARK  status: ('A' for Active; 'I' for Inactive)
REMARK    1  A    between atoms: C_2  and  C_10
REMARK    2  A    between atoms: N_3  and  C_4
REMARK    3  A    between atoms: C_4  and  C_5
REMARK    4  A    between atoms: C_13  and  C_14
REMARK    5  A    between atoms: C_15  and  C_16
REMARK    6  A    between atoms: C_16  and  C_18
REMARK                            x       y       z     vdW  Elec       q    Type
REMARK                         _______ _______ _______ _____ _____    ______ ____
ROOT
ATOM      1  C   UNL     1       0.801   9.900  20.961  0.00  0.00    +0.000 C 
ATOM      2  C   UNL     1      -0.509  10.203  21.039  0.00  0.00    +0.000 C 
ENDROOT
BRANCH   1   6
ATOM      3  C   UNL     1       2.370   6.200  19.350  0.00  0.00    +0.000 A 
ATOM      4  C   UNL     1       1.839   6.244  20.644  0.00  0.00    +0.000 A 
ATOM      5  C   UNL     1       1.340   7.444  21.175  0.00  0.00    +0.000 A 
ATOM      6  C   UNL     1       1.352   8.628  20.430  0.00  0.00    +0.000 A 
ATOM      7  C   UNL     1       1.844   8.565  19.111  0.00  0.00    +0.000 A 
ATOM      8  C   UNL     1       2.354   7.364  18.577  0.00  0.00    +0.000 A 
BRANCH   3  10
ATOM      9  O   UNL     1       3.000   3.934  19.576  0.00  0.00    +0.000 OA
ATOM     10  C   UNL     1       2.888   4.898  18.827  0.00  0.00    +0.000 C 
ATOM     11  N   UNL     1       3.248   4.865  17.497  0.00  0.00    +0.000 N 
ATOM     12  H   UNL     1       3.391   5.733  17.000  0.00  0.00    +0.000 HD
BRANCH  11  13
ATOM     13  C   UNL     1       3.852   3.685  16.916  0.00  0.00    +0.000 C 
BRANCH  13  14
ATOM     14  C   UNL     1       5.194   4.038  16.383  0.00  0.00    +0.000 A 
ATOM     15  C   UNL     1       5.747   4.020  15.113  0.00  0.00    +0.000 A 
ATOM     16  C   UNL     1       7.083   4.454  15.256  0.00  0.00    +0.000 A 
ATOM     17  C   UNL     1       7.265   4.717  16.590  0.00  0.00    +0.000 A 
ATOM     18  O   UNL     1       6.130   4.471  17.287  0.00  0.00    +0.000 OA
ENDBRANCH  13  14
ENDBRANCH  11  13
ENDBRANCH   3  10
ENDBRANCH   1   6
BRANCH   2  19
ATOM     19  C   UNL     1      -0.981  11.525  21.600  0.00  0.00    +0.000 C 
ATOM     20  O   UNL     1      -1.083  11.678  22.808  0.00  0.00    +0.000 OA
BRANCH  19  21
ATOM     21  C   UNL     1      -1.434  12.630  20.641  0.00  0.00    +0.000 A 
ATOM     22  C   UNL     1      -2.008  12.087  19.477  0.00  0.00    +0.000 A 
ATOM     23  C   UNL     1      -1.366  12.314  18.255  0.00  0.00    +0.000 A 
ATOM     24  C   UNL     1      -0.110  12.930  18.271  0.00  0.00    +0.000 A 
ATOM     25  C   UNL     1       0.369  13.439  19.489  0.00  0.00    +0.000 A 
ATOM     26  C   UNL     1      -0.591  13.702  20.442  0.00  0.00    +0.000 A 
ATOM     27  C   UNL     1      -1.166  15.104  20.094  0.00  0.00    +0.000 C 
ATOM     28  O   UNL     1      -2.282  15.440  20.452  0.00  0.00    +0.000 OA
ATOM     29  C   UNL     1      -0.303  16.036  19.229  0.00  0.00    +0.000 A 
ATOM     30  C   UNL     1      -0.787  17.106  18.484  0.00  0.00    +0.000 A 
ATOM     31  C   UNL     1       0.081  17.817  17.636  0.00  0.00    +0.000 A 
ATOM     32  C   UNL     1       1.445  17.506  17.553  0.00  0.00    +0.000 A 
ATOM     33  C   UNL     1       1.947  16.444  18.290  0.00  0.00    +0.000 A 
ATOM     34  C   UNL     1       1.055  15.717  19.073  0.00  0.00    +0.000 A 
ATOM     35  C   UNL     1       1.459  14.403  19.545  0.00  0.00    +0.000 C 
ATOM     36  O   UNL     1       2.537  14.148  20.067  0.00  0.00    +0.000 OA
ENDBRANCH  19  21
ENDBRANCH   2  19
TORSDOF 6
ENDMDL
MODEL 9
REMARK VINA RESULT:      -8.8      3.085     10.768
REMARK  Name = 
REMARK  6 active torsions:
REMARK  status: ('A' for Active; 'I' for Inactive)
REMARK    1  A    between atoms: C_2  and  C_10
REMARK    2  A    between atoms: N_3  and  C_4
REMARK    3  A    between atoms: C_4  and  C_5
REMARK    4  A    between atoms: C_13  and  C_14
REMARK    5  A    between atoms: C_15  and  C_16
REMARK    6  A    between atoms: C_16  and  C_18
REMARK                            x       y       z     vdW  Elec       q    Type
REMARK                         _______ _______ _______ _____ _____    ______ ____
ROOT
ATOM      1  C   UNL     1       8.382   9.041  17.604  0.00  0.00    +0.000 C 
ATOM      2  C   UNL     1       7.895   7.874  18.069  0.00  0.00    +0.000 C 
ENDROOT
BRANCH   1   6
ATOM      3  C   UNL     1       9.479  12.475  20.001  0.00  0.00    +0.000 A 
ATOM      4  C   UNL     1       9.610  11.180  20.512  0.00  0.00    +0.000 A 
ATOM      5  C   UNL     1       9.245  10.063  19.744  0.00  0.00    +0.000 A 
ATOM      6  C   UNL     1       8.745  10.209  18.445  0.00  0.00    +0.000 A 
ATOM      7  C   UNL     1       8.661  11.513  17.919  0.00  0.00    +0.000 A 
ATOM      8  C   UNL     1       9.019  12.638  18.691  0.00  0.00    +0.000 A 
BRANCH   3  10
ATOM      9  O   UNL     1      10.962  14.188  20.673  0.00  0.00    +0.000 OA
ATOM     10  C   UNL     1       9.883  13.633  20.857  0.00  0.00    +0.000 C 
ATOM     11  N   UNL     1       9.006  14.002  21.854  0.00  0.00    +0.000 N 
ATOM     12  H   UNL     1       8.276  13.362  22.135  0.00  0.00    +0.000 HD
BRANCH  11  13
ATOM     13  C   UNL     1       9.345  15.045  22.799  0.00  0.00    +0.000 C 
BRANCH  13  14
ATOM     14  C   UNL     1       8.742  14.720  24.118  0.00  0.00    +0.000 A 
ATOM     15  C   UNL     1       8.288  15.496  25.172  0.00  0.00    +0.000 A 
ATOM     16  C   UNL     1       7.839  14.595  26.163  0.00  0.00    +0.000 A 
ATOM     17  C   UNL     1       8.035  13.334  25.659  0.00  0.00    +0.000 A 
ATOM     18  O   UNL     1       8.581  13.392  24.420  0.00  0.00    +0.000 OA
ENDBRANCH  13  14
ENDBRANCH  11  13
ENDBRANCH   3  10
ENDBRANCH   1   6
BRANCH   2  19
ATOM     19  C   UNL     1       7.547   6.736  17.136  0.00  0.00    +0.000 C 
ATOM     20  O   UNL     1       7.694   6.865  15.929  0.00  0.00    +0.000 OA
BRANCH  19  21
ATOM     21  C   UNL     1       6.907   5.466  17.705  0.00  0.00    +0.000 A 
ATOM     22  C   UNL     1       7.087   4.375  16.834  0.00  0.00    +0.000 A 
ATOM     23  C   UNL     1       5.953   3.797  16.256  0.00  0.00    +0.000 A 
ATOM     24  C   UNL     1       4.719   4.427  16.445  0.00  0.00    +0.000 A 
ATOM     25  C   UNL     1       4.650   5.508  17.338  0.00  0.00    +0.000 A 
ATOM     26  C   UNL     1       5.657   5.569  18.276  0.00  0.00    +0.000 A 
ATOM     27  C   UNL     1       5.232   4.608  19.422  0.00  0.00    +0.000 C 
ATOM     28  O   UNL     1       6.056   4.109  20.171  0.00  0.00    +0.000 OA
ATOM     29  C   UNL     1       3.741   4.259  19.547  0.00  0.00    +0.000 A 
ATOM     30  C   UNL     1       3.237   3.138  20.199  0.00  0.00    +0.000 A 
ATOM     31  C   UNL     1       1.860   2.859  20.145  0.00  0.00    +0.000 A 
ATOM     32  C   UNL     1       0.962   3.710  19.487  0.00  0.00    +0.000 A 
ATOM     33  C   UNL     1       1.445   4.833  18.833  0.00  0.00    +0.000 A 
ATOM     34  C   UNL     1       2.819   5.053  18.846  0.00  0.00    +0.000 A 
ATOM     35  C   UNL     1       3.383   5.980  17.879  0.00  0.00    +0.000 C 
ATOM     36  O   UNL     1       2.939   7.096  17.639  0.00  0.00    +0.000 OA
ENDBRANCH  19  21
ENDBRANCH   2  19
TORSDOF 6
ENDMDL
