MODEL 1
REMARK VINA RESULT:      -6.0      0.000      0.000
REMARK  Name = 
REMARK  5 active torsions:
REMARK  status: ('A' for Active; 'I' for Inactive)
REMARK    1  A    between atoms: N_1  and  C_2
REMARK    2  A    between atoms: C_2  and  C_3
REMARK    3  A    between atoms: C_5  and  C_6
REMARK    4  A    between atoms: C_6  and  C_7
REMARK    5  A    between atoms: C_7  and  C_8
REMARK                            x       y       z     vdW  Elec       q    Type
REMARK                         _______ _______ _______ _____ _____    ______ ____
ROOT
ATOM      1  C   UNL     1       3.986   6.470  18.240  0.00  0.00    +0.000 C 
ENDROOT
BRANCH   1   4
ATOM      2  C   UNL     1       5.292   4.357  15.592  0.00  0.00    +0.000 C 
ATOM      3  C   UNL     1       5.083   5.435  16.292  0.00  0.00    +0.000 C 
ATOM      4  C   UNL     1       4.852   6.490  17.015  0.00  0.00    +0.000 C 
BRANCH   2   5
ATOM      5  C   UNL     1       6.505   4.088  14.771  0.00  0.00    +0.000 C 
BRANCH   5   6
ATOM      6  N   UNL     1       7.432   5.206  14.872  0.00  0.00    +0.000 NA
ATOM      7  H   UNL     1       6.910   6.075  14.777  0.00  0.00    +0.000 HD
ATOM      8  H   UNL     1       8.067   5.174  14.074  0.00  0.00    +0.000 HD
ENDBRANCH   5   6
ENDBRANCH   2   5
ENDBRANCH   1   4
BRANCH   1   9
ATOM      9  C   UNL     1       2.509   6.196  17.939  0.00  0.00    +0.000 C 
BRANCH   9  10
ATOM     10  C   UNL     1       2.047   4.987  18.716  0.00  0.00    +0.000 A 
ATOM     11  C   UNL     1       1.523   3.873  18.048  0.00  0.00    +0.000 A 
ATOM     12  C   UNL     1       0.981   2.808  18.769  0.00  0.00    +0.000 A 
ATOM     13  C   UNL     1       0.961   2.848  20.162  0.00  0.00    +0.000 A 
ATOM     14  C   UNL     1       1.496   3.944  20.837  0.00  0.00    +0.000 A 
ATOM     15  C   UNL     1       2.038   5.010  20.117  0.00  0.00    +0.000 A 
ENDBRANCH   9  10
ENDBRANCH   1   9
TORSDOF 5
ENDMDL
MODEL 2
REMARK VINA RESULT:      -5.9      0.267      1.359
REMARK  Name = 
REMARK  5 active torsions:
REMARK  status: ('A' for Active; 'I' for Inactive)
REMARK    1  A    between atoms: N_1  and  C_2
REMARK    2  A    between atoms: C_2  and  C_3
REMARK    3  A    between atoms: C_5  and  C_6
REMARK    4  A    between atoms: C_6  and  C_7
REMARK    5  A    between atoms: C_7  and  C_8
REMARK                            x       y       z     vdW  Elec       q    Type
REMARK                         _______ _______ _______ _____ _____    ______ ____
ROOT
ATOM      1  C   UNL     1       4.136   6.337  18.338  0.00  0.00    +0.000 C 
ENDROOT
BRANCH   1   4
ATOM      2  C   UNL     1       5.238   4.335  15.518  0.00  0.00    +0.000 C 
ATOM      3  C   UNL     1       5.098   5.379  16.283  0.00  0.00    +0.000 C 
ATOM      4  C   UNL     1       4.935   6.401  17.070  0.00  0.00    +0.000 C 
BRANCH   2   5
ATOM      5  C   UNL     1       6.398   4.079  14.619  0.00  0.00    +0.000 C 
BRANCH   5   6
ATOM      6  N   UNL     1       7.079   5.331  14.317  0.00  0.00    +0.000 NA
ATOM      7  H   UNL     1       7.999   5.120  13.933  0.00  0.00    +0.000 HD
ATOM      8  H   UNL     1       7.249   5.826  15.191  0.00  0.00    +0.000 HD
ENDBRANCH   5   6
ENDBRANCH   2   5
ENDBRANCH   1   4
BRANCH   1   9
ATOM      9  C   UNL     1       2.621   6.367  18.108  0.00  0.00    +0.000 C 
BRANCH   9  10
ATOM     10  C   UNL     1       1.985   5.156  18.747  0.00  0.00    +0.000 A 
ATOM     11  C   UNL     1       1.834   5.085  20.138  0.00  0.00    +0.000 A 
ATOM     12  C   UNL     1       1.361   3.917  20.737  0.00  0.00    +0.000 A 
ATOM     13  C   UNL     1       1.034   2.813  19.951  0.00  0.00    +0.000 A 
ATOM     14  C   UNL     1       1.163   2.880  18.565  0.00  0.00    +0.000 A 
ATOM     15  C   UNL     1       1.636   4.047  17.964  0.00  0.00    +0.000 A 
ENDBRANCH   9  10
ENDBRANCH   1   9
TORSDOF 5
ENDMDL
MODEL 3
REMARK VINA RESULT:      -5.9      2.440      2.943
REMARK  Name = 
REMARK  5 active torsions:
REMARK  status: ('A' for Active; 'I' for Inactive)
REMARK    1  A    between atoms: N_1  and  C_2
REMARK    2  A    between atoms: C_2  and  C_3
REMARK    3  A    between atoms: C_5  and  C_6
REMARK    4  A    between atoms: C_6  and  C_7
REMARK    5  A    between atoms: C_7  and  C_8
REMARK                            x       y       z     vdW  Elec       q    Type
REMARK                         _______ _______ _______ _____ _____    ______ ____
ROOT
ATOM      1  C   UNL     1       4.214   3.505  16.966  0.00  0.00    +0.000 C 
ENDROOT
BRANCH   1   4
ATOM      2  C   UNL     1       7.332   4.980  18.099  0.00  0.00    +0.000 C 
ATOM      3  C   UNL     1       6.087   4.915  17.725  0.00  0.00    +0.000 C 
ATOM      4  C   UNL     1       4.847   4.811  17.346  0.00  0.00    +0.000 C 
BRANCH   2   5
ATOM      5  C   UNL     1       7.901   6.008  19.014  0.00  0.00    +0.000 C 
BRANCH   5   6
ATOM      6  N   UNL     1       8.016   5.467  20.361  0.00  0.00    +0.000 NA
ATOM      7  H   UNL     1       8.399   4.524  20.304  0.00  0.00    +0.000 HD
ATOM      8  H   UNL     1       7.080   5.363  20.750  0.00  0.00    +0.000 HD
ENDBRANCH   5   6
ENDBRANCH   2   5
ENDBRANCH   1   4
BRANCH   1   9
ATOM      9  C   UNL     1       2.708   3.454  17.242  0.00  0.00    +0.000 C 
BRANCH   9  10
ATOM     10  C   UNL     1       2.462   3.451  18.731  0.00  0.00    +0.000 A 
ATOM     11  C   UNL     1       3.260   2.674  19.581  0.00  0.00    +0.000 A 
ATOM     12  C   UNL     1       2.955   2.575  20.939  0.00  0.00    +0.000 A 
ATOM     13  C   UNL     1       1.854   3.253  21.458  0.00  0.00    +0.000 A 
ATOM     14  C   UNL     1       1.064   4.043  20.625  0.00  0.00    +0.000 A 
ATOM     15  C   UNL     1       1.367   4.144  19.267  0.00  0.00    +0.000 A 
ENDBRANCH   9  10
ENDBRANCH   1   9
TORSDOF 5
ENDMDL
MODEL 4
REMARK VINA RESULT:      -5.9      1.274      1.571
REMARK  Name = 
REMARK  5 active torsions:
REMARK  status: ('A' for Active; 'I' for Inactive)
REMARK    1  A    between atoms: N_1  and  C_2
REMARK    2  A    between atoms: C_2  and  C_3
REMARK    3  A    between atoms: C_5  and  C_6
REMARK    4  A    between atoms: C_6  and  C_7
REMARK    5  A    between atoms: C_7  and  C_8
REMARK                            x       y       z     vdW  Elec       q    Type
REMARK                         _______ _______ _______ _____ _____    ______ ____
ROOT
ATOM      1  C   UNL     1       3.029   6.358  18.297  0.00  0.00    +0.000 C 
ENDROOT
BRANCH   1   4
ATOM      2  C   UNL     1       5.310   4.666  16.036  0.00  0.00    +0.000 C 
ATOM      3  C   UNL     1       4.725   5.650  16.656  0.00  0.00    +0.000 C 
ATOM      4  C   UNL     1       4.117   6.605  17.295  0.00  0.00    +0.000 C 
BRANCH   2   5
ATOM      5  C   UNL     1       6.704   4.692  15.509  0.00  0.00    +0.000 C 
BRANCH   5   6
ATOM      6  N   UNL     1       7.405   5.864  16.013  0.00  0.00    +0.000 NA
ATOM      7  H   UNL     1       6.719   6.559  16.300  0.00  0.00    +0.000 HD
ATOM      8  H   UNL     1       7.925   6.286  15.244  0.00  0.00    +0.000 HD
ENDBRANCH   5   6
ENDBRANCH   2   5
ENDBRANCH   1   4
BRANCH   1   9
ATOM      9  C   UNL     1       2.180   5.122  17.983  0.00  0.00    +0.000 C 
BRANCH   9  10
ATOM     10  C   UNL     1       2.239   4.155  19.140  0.00  0.00    +0.000 A 
ATOM     11  C   UNL     1       1.173   4.065  20.045  0.00  0.00    +0.000 A 
ATOM     12  C   UNL     1       1.280   3.264  21.183  0.00  0.00    +0.000 A 
ATOM     13  C   UNL     1       2.450   2.546  21.423  0.00  0.00    +0.000 A 
ATOM     14  C   UNL     1       3.510   2.615  20.520  0.00  0.00    +0.000 A 
ATOM     15  C   UNL     1       3.405   3.415  19.382  0.00  0.00    +0.000 A 
ENDBRANCH   9  10
ENDBRANCH   1   9
TORSDOF 5
ENDMDL
MODEL 5
REMARK VINA RESULT:      -5.8      1.363      1.973
REMARK  Name = 
REMARK  5 active torsions:
REMARK  status: ('A' for Active; 'I' for Inactive)
REMARK    1  A    between atoms: N_1  and  C_2
REMARK    2  A    between atoms: C_2  and  C_3
REMARK    3  A    between atoms: C_5  and  C_6
REMARK    4  A    between atoms: C_6  and  C_7
REMARK    5  A    between atoms: C_7  and  C_8
REMARK                            x       y       z     vdW  Elec       q    Type
REMARK                         _______ _______ _______ _____ _____    ______ ____
ROOT
ATOM      1  C   UNL     1       2.801   6.556  18.258  0.00  0.00    +0.000 C 
ENDROOT
BRANCH   1   4
ATOM      2  C   UNL     1       5.629   4.642  17.027  0.00  0.00    +0.000 C 
ATOM      3  C   UNL     1       4.855   5.669  17.226  0.00  0.00    +0.000 C 
ATOM      4  C   UNL     1       4.057   6.672  17.445  0.00  0.00    +0.000 C 
BRANCH   2   5
ATOM      5  C   UNL     1       7.097   4.708  16.780  0.00  0.00    +0.000 C 
BRANCH   5   6
ATOM      6  N   UNL     1       7.822   4.278  17.967  0.00  0.00    +0.000 NA
ATOM      7  H   UNL     1       8.084   3.300  17.856  0.00  0.00    +0.000 HD
ATOM      8  H   UNL     1       7.185   4.306  18.763  0.00  0.00    +0.000 HD
ENDBRANCH   5   6
ENDBRANCH   2   5
ENDBRANCH   1   4
BRANCH   1   9
ATOM      9  C   UNL     1       1.960   5.324  17.910  0.00  0.00    +0.000 C 
BRANCH   9  10
ATOM     10  C   UNL     1       1.814   4.446  19.128  0.00  0.00    +0.000 A 
ATOM     11  C   UNL     1       2.232   4.901  20.386  0.00  0.00    +0.000 A 
ATOM     12  C   UNL     1       2.212   4.045  21.488  0.00  0.00    +0.000 A 
ATOM     13  C   UNL     1       1.773   2.731  21.343  0.00  0.00    +0.000 A 
ATOM     14  C   UNL     1       1.339   2.273  20.100  0.00  0.00    +0.000 A 
ATOM     15  C   UNL     1       1.358   3.127  18.997  0.00  0.00    +0.000 A 
ENDBRANCH   9  10
ENDBRANCH   1   9
TORSDOF 5
ENDMDL
MODEL 6
REMARK VINA RESULT:      -5.8      1.218      1.399
REMARK  Name = 
REMARK  5 active torsions:
REMARK  status: ('A' for Active; 'I' for Inactive)
REMARK    1  A    between atoms: N_1  and  C_2
REMARK    2  A    between atoms: C_2  and  C_3
REMARK    3  A    between atoms: C_5  and  C_6
REMARK    4  A    between atoms: C_6  and  C_7
REMARK    5  A    between atoms: C_7  and  C_8
REMARK                            x       y       z     vdW  Elec       q    Type
REMARK                         _______ _______ _______ _____ _____    ______ ____
ROOT
ATOM      1  C   UNL     1       2.571   7.037  18.114  0.00  0.00    +0.000 C 
ENDROOT
BRANCH   1   4
ATOM      2  C   UNL     1       5.534   5.125  17.254  0.00  0.00    +0.000 C 
ATOM      3  C   UNL     1       4.743   6.153  17.358  0.00  0.00    +0.000 C 
ATOM      4  C   UNL     1       3.925   7.157  17.480  0.00  0.00    +0.000 C 
BRANCH   2   5
ATOM      5  C   UNL     1       7.023   5.188  17.208  0.00  0.00    +0.000 C 
BRANCH   5   6
ATOM      6  N   UNL     1       7.448   6.216  16.269  0.00  0.00    +0.000 NA
ATOM      7  H   UNL     1       8.462   6.301  16.312  0.00  0.00    +0.000 HD
ATOM      8  H   UNL     1       7.081   7.114  16.583  0.00  0.00    +0.000 HD
ENDBRANCH   5   6
ENDBRANCH   2   5
ENDBRANCH   1   4
BRANCH   1   9
ATOM      9  C   UNL     1       2.615   6.514  19.554  0.00  0.00    +0.000 C 
BRANCH   9  10
ATOM     10  C   UNL     1       2.093   5.099  19.598  0.00  0.00    +0.000 A 
ATOM     11  C   UNL     1       1.771   4.424  18.413  0.00  0.00    +0.000 A 
ATOM     12  C   UNL     1       1.172   3.164  18.459  0.00  0.00    +0.000 A 
ATOM     13  C   UNL     1       0.894   2.569  19.688  0.00  0.00    +0.000 A 
ATOM     14  C   UNL     1       1.226   3.224  20.872  0.00  0.00    +0.000 A 
ATOM     15  C   UNL     1       1.825   4.483  20.828  0.00  0.00    +0.000 A 
ENDBRANCH   9  10
ENDBRANCH   1   9
TORSDOF 5
ENDMDL
MODEL 7
REMARK VINA RESULT:      -5.8      1.488      2.007
REMARK  Name = 
REMARK  5 active torsions:
REMARK  status: ('A' for Active; 'I' for Inactive)
REMARK    1  A    between atoms: N_1  and  C_2
REMARK    2  A    between atoms: C_2  and  C_3
REMARK    3  A    between atoms: C_5  and  C_6
REMARK    4  A    between atoms: C_6  and  C_7
REMARK    5  A    between atoms: C_7  and  C_8
REMARK                            x       y       z     vdW  Elec       q    Type
REMARK                         _______ _______ _______ _____ _____    ______ ____
ROOT
ATOM      1  C   UNL     1       3.968   6.648  18.004  0.00  0.00    +0.000 C 
ENDROOT
BRANCH   1   4
ATOM      2  C   UNL     1       5.441   4.413  15.551  0.00  0.00    +0.000 C 
ATOM      3  C   UNL     1       5.039   5.529  16.088  0.00  0.00    +0.000 C 
ATOM      4  C   UNL     1       4.623   6.623  16.654  0.00  0.00    +0.000 C 
BRANCH   2   5
ATOM      5  C   UNL     1       6.561   4.284  14.577  0.00  0.00    +0.000 C 
BRANCH   5   6
ATOM      6  N   UNL     1       7.563   5.309  14.832  0.00  0.00    +0.000 NA
ATOM      7  H   UNL     1       8.442   5.024  14.402  0.00  0.00    +0.000 HD
ATOM      8  H   UNL     1       7.743   5.345  15.834  0.00  0.00    +0.000 HD
ENDBRANCH   5   6
ENDBRANCH   2   5
ENDBRANCH   1   4
BRANCH   1   9
ATOM      9  C   UNL     1       2.631   5.903  18.047  0.00  0.00    +0.000 C 
BRANCH   9  10
ATOM     10  C   UNL     1       2.872   4.437  18.316  0.00  0.00    +0.000 A 
ATOM     11  C   UNL     1       3.799   4.037  19.287  0.00  0.00    +0.000 A 
ATOM     12  C   UNL     1       4.113   2.687  19.448  0.00  0.00    +0.000 A 
ATOM     13  C   UNL     1       3.502   1.728  18.643  0.00  0.00    +0.000 A 
ATOM     14  C   UNL     1       2.566   2.114  17.685  0.00  0.00    +0.000 A 
ATOM     15  C   UNL     1       2.250   3.463  17.523  0.00  0.00    +0.000 A 
ENDBRANCH   9  10
ENDBRANCH   1   9
TORSDOF 5
ENDMDL
MODEL 8
REMARK VINA RESULT:      -5.8      1.426      2.147
REMARK  Name = 
REMARK  5 active torsions:
REMARK  status: ('A' for Active; 'I' for Inactive)
REMARK    1  A    between atoms: N_1  and  C_2
REMARK    2  A    between atoms: C_2  and  C_3
REMARK    3  A    between atoms: C_5  and  C_6
REMARK    4  A    between atoms: C_6  and  C_7
REMARK    5  A    between atoms: C_7  and  C_8
REMARK                            x       y       z     vdW  Elec       q    Type
REMARK                         _______ _______ _______ _____ _____    ______ ____
ROOT
ATOM      1  C   UNL     1       2.763   3.600  16.925  0.00  0.00    +0.000 C 
ENDROOT
BRANCH   1   4
ATOM      2  C   UNL     1       5.840   4.528  15.237  0.00  0.00    +0.000 C 
ATOM      3  C   UNL     1       4.934   4.487  16.171  0.00  0.00    +0.000 C 
ATOM      4  C   UNL     1       4.008   4.422  17.082  0.00  0.00    +0.000 C 
BRANCH   2   5
ATOM      5  C   UNL     1       7.291   4.783  15.458  0.00  0.00    +0.000 C 
BRANCH   5   6
ATOM      6  N   UNL     1       7.712   4.197  16.722  0.00  0.00    +0.000 NA
ATOM      7  H   UNL     1       7.057   3.459  16.977  0.00  0.00    +0.000 HD
ATOM      8  H   UNL     1       7.631   4.905  17.451  0.00  0.00    +0.000 HD
ENDBRANCH   5   6
ENDBRANCH   2   5
ENDBRANCH   1   4
BRANCH   1   9
ATOM      9  C   UNL     1       1.540   4.207  17.620  0.00  0.00    +0.000 C 
BRANCH   9  10
ATOM     10  C   UNL     1       1.611   3.939  19.104  0.00  0.00    +0.000 A 
ATOM     11  C   UNL     1       2.032   4.942  19.986  0.00  0.00    +0.000 A 
ATOM     12  C   UNL     1       2.217   4.657  21.340  0.00  0.00    +0.000 A 
ATOM     13  C   UNL     1       1.980   3.371  21.821  0.00  0.00    +0.000 A 
ATOM     14  C   UNL     1       1.545   2.370  20.955  0.00  0.00    +0.000 A 
ATOM     15  C   UNL     1       1.359   2.652  19.601  0.00  0.00    +0.000 A 
ENDBRANCH   9  10
ENDBRANCH   1   9
TORSDOF 5
ENDMDL
MODEL 9
REMARK VINA RESULT:      -5.7      2.754      3.748
REMARK  Name = 
REMARK  5 active torsions:
REMARK  status: ('A' for Active; 'I' for Inactive)
REMARK    1  A    between atoms: N_1  and  C_2
REMARK    2  A    between atoms: C_2  and  C_3
REMARK    3  A    between atoms: C_5  and  C_6
REMARK    4  A    between atoms: C_6  and  C_7
REMARK    5  A    between atoms: C_7  and  C_8
REMARK                            x       y       z     vdW  Elec       q    Type
REMARK                         _______ _______ _______ _____ _____    ______ ____
ROOT
ATOM      1  C   UNL     1       4.591   5.539  17.835  0.00  0.00    +0.000 C 
ENDROOT
BRANCH   1   4
ATOM      2  C   UNL     1       2.216   8.223  18.414  0.00  0.00    +0.000 C 
ATOM      3  C   UNL     1       3.189   7.565  17.854  0.00  0.00    +0.000 C 
ATOM      4  C   UNL     1       4.157   6.880  17.320  0.00  0.00    +0.000 C 
BRANCH   2   5
ATOM      5  C   UNL     1       1.330   9.201  17.722  0.00  0.00    +0.000 C 
BRANCH   5   6
ATOM      6  N   UNL     1       1.979  10.503  17.660  0.00  0.00    +0.000 NA
ATOM      7  H   UNL     1       2.980  10.365  17.528  0.00  0.00    +0.000 HD
ATOM      8  H   UNL     1       1.879  10.958  18.567  0.00  0.00    +0.000 HD
ENDBRANCH   5   6
ENDBRANCH   2   5
ENDBRANCH   1   4
BRANCH   1   9
ATOM      9  C   UNL     1       3.660   4.395  17.419  0.00  0.00    +0.000 C 
BRANCH   9  10
ATOM     10  C   UNL     1       2.799   3.988  18.589  0.00  0.00    +0.000 A 
ATOM     11  C   UNL     1       1.618   3.264  18.382  0.00  0.00    +0.000 A 
ATOM     12  C   UNL     1       0.759   2.995  19.449  0.00  0.00    +0.000 A 
ATOM     13  C   UNL     1       1.076   3.446  20.730  0.00  0.00    +0.000 A 
ATOM     14  C   UNL     1       2.257   4.152  20.949  0.00  0.00    +0.000 A 
ATOM     15  C   UNL     1       3.116   4.421  19.884  0.00  0.00    +0.000 A 
ENDBRANCH   9  10
ENDBRANCH   1   9
TORSDOF 5
ENDMDL
