MODEL 1
REMARK VINA RESULT:      -7.1      0.000      0.000
REMARK  Name = 
REMARK  3 active torsions:
REMARK  status: ('A' for Active; 'I' for Inactive)
REMARK    1  A    between atoms: C_4  and  C_5
REMARK    2  A    between atoms: C_5  and  O_6
REMARK    3  A    between atoms: O_6  and  C_7
REMARK                            x       y       z     vdW  Elec       q    Type
REMARK                         _______ _______ _______ _____ _____    ______ ____
ROOT
ATOM      1  C   UNL     1       5.550   4.226  18.276  0.00  0.00    +0.000 A 
ATOM      2  N   UNL     1       6.006   4.798  19.352  0.00  0.00    +0.000 NA
ATOM      3  C   UNL     1       7.044   5.699  19.183  0.00  0.00    +0.000 A 
ATOM      4  C   UNL     1       7.586   5.999  17.991  0.00  0.00    +0.000 A 
ATOM      5  N   UNL     1       7.086   5.389  16.851  0.00  0.00    +0.000 N 
ATOM      6  N   UNL     1       7.460   5.548  15.558  0.00  0.00    +0.000 NA
ATOM      7  C   UNL     1       6.638   4.747  14.873  0.00  0.00    +0.000 A 
ATOM      8  C   UNL     1       5.740   4.053  15.699  0.00  0.00    +0.000 A 
ATOM      9  C   UNL     1       6.052   4.489  16.965  0.00  0.00    +0.000 A 
ENDROOT
BRANCH   1  10
ATOM     10  O   UNL     1       4.550   3.315  18.251  0.00  0.00    +0.000 OA
BRANCH  10  11
ATOM     11  C   UNL     1       4.196   2.703  19.503  0.00  0.00    +0.000 C 
BRANCH  11  15
ATOM     12  C   UNL     1       1.002   3.655  19.883  0.00  0.00    +0.000 C 
ATOM     13  C   UNL     1       1.112   3.645  18.551  0.00  0.00    +0.000 C 
ATOM     14  C   UNL     1       2.080   2.612  18.078  0.00  0.00    +0.000 C 
ATOM     15  C   UNL     1       2.771   2.148  19.374  0.00  0.00    +0.000 C 
ATOM     16  C   UNL     1       1.875   2.628  20.525  0.00  0.00    +0.000 C 
ENDBRANCH  11  15
ENDBRANCH  10  11
ENDBRANCH   1  10
TORSDOF 3
ENDMDL
MODEL 2
REMARK VINA RESULT:      -7.0      1.073      1.585
REMARK  Name = 
REMARK  3 active torsions:
REMARK  status: ('A' for Active; 'I' for Inactive)
REMARK    1  A    between atoms: C_4  and  C_5
REMARK    2  A    between atoms: C_5  and  O_6
REMARK    3  A    between atoms: O_6  and  C_7
REMARK                            x       y       z     vdW  Elec       q    Type
REMARK                         _______ _______ _______ _____ _____    ______ ____
ROOT
ATOM      1  C   UNL     1       5.401   4.647  18.771  0.00  0.00    +0.000 A 
ATOM      2  N   UNL     1       6.128   5.152  19.724  0.00  0.00    +0.000 NA
ATOM      3  C   UNL     1       7.405   5.562  19.379  0.00  0.00    +0.000 A 
ATOM      4  C   UNL     1       7.912   5.464  18.139  0.00  0.00    +0.000 A 
ATOM      5  N   UNL     1       7.124   4.932  17.130  0.00  0.00    +0.000 N 
ATOM      6  N   UNL     1       7.416   4.753  15.818  0.00  0.00    +0.000 NA
ATOM      7  C   UNL     1       6.300   4.232  15.298  0.00  0.00    +0.000 A 
ATOM      8  C   UNL     1       5.286   4.052  16.253  0.00  0.00    +0.000 A 
ATOM      9  C   UNL     1       5.847   4.513  17.420  0.00  0.00    +0.000 A 
ENDROOT
BRANCH   1  10
ATOM     10  O   UNL     1       4.138   4.185  18.925  0.00  0.00    +0.000 OA
BRANCH  10  11
ATOM     11  C   UNL     1       3.329   4.826  19.925  0.00  0.00    +0.000 C 
BRANCH  11  15
ATOM     12  C   UNL     1       1.127   2.722  18.519  0.00  0.00    +0.000 C 
ATOM     13  C   UNL     1       0.705   2.730  19.788  0.00  0.00    +0.000 C 
ATOM     14  C   UNL     1       0.959   4.041  20.453  0.00  0.00    +0.000 C 
ATOM     15  C   UNL     1       1.869   4.781  19.455  0.00  0.00    +0.000 C 
ATOM     16  C   UNL     1       1.731   4.029  18.122  0.00  0.00    +0.000 C 
ENDBRANCH  11  15
ENDBRANCH  10  11
ENDBRANCH   1  10
TORSDOF 3
ENDMDL
MODEL 3
REMARK VINA RESULT:      -7.0      1.146      1.455
REMARK  Name = 
REMARK  3 active torsions:
REMARK  status: ('A' for Active; 'I' for Inactive)
REMARK    1  A    between atoms: C_4  and  C_5
REMARK    2  A    between atoms: C_5  and  O_6
REMARK    3  A    between atoms: O_6  and  C_7
REMARK                            x       y       z     vdW  Elec       q    Type
REMARK                         _______ _______ _______ _____ _____    ______ ____
ROOT
ATOM      1  C   UNL     1       4.806   4.739  17.447  0.00  0.00    +0.000 A 
ATOM      2  N   UNL     1       5.237   4.970  18.652  0.00  0.00    +0.000 NA
ATOM      3  C   UNL     1       6.583   5.268  18.783  0.00  0.00    +0.000 A 
ATOM      4  C   UNL     1       7.439   5.327  17.749  0.00  0.00    +0.000 A 
ATOM      5  N   UNL     1       6.966   5.086  16.469  0.00  0.00    +0.000 N 
ATOM      6  N   UNL     1       7.635   5.106  15.290  0.00  0.00    +0.000 NA
ATOM      7  C   UNL     1       6.701   4.831  14.374  0.00  0.00    +0.000 A 
ATOM      8  C   UNL     1       5.432   4.616  14.936  0.00  0.00    +0.000 A 
ATOM      9  C   UNL     1       5.636   4.789  16.285  0.00  0.00    +0.000 A 
ENDROOT
BRANCH   1  10
ATOM     10  O   UNL     1       3.529   4.421  17.131  0.00  0.00    +0.000 OA
BRANCH  10  11
ATOM     11  C   UNL     1       2.983   3.240  17.740  0.00  0.00    +0.000 C 
BRANCH  11  15
ATOM     12  C   UNL     1       1.087   2.908  20.487  0.00  0.00    +0.000 C 
ATOM     13  C   UNL     1       1.408   4.204  20.548  0.00  0.00    +0.000 C 
ATOM     14  C   UNL     1       1.581   4.802  19.192  0.00  0.00    +0.000 C 
ATOM     15  C   UNL     1       1.579   3.578  18.257  0.00  0.00    +0.000 C 
ATOM     16  C   UNL     1       0.989   2.421  19.078  0.00  0.00    +0.000 C 
ENDBRANCH  11  15
ENDBRANCH  10  11
ENDBRANCH   1  10
TORSDOF 3
ENDMDL
MODEL 4
REMARK VINA RESULT:      -6.9      0.764      1.453
REMARK  Name = 
REMARK  3 active torsions:
REMARK  status: ('A' for Active; 'I' for Inactive)
REMARK    1  A    between atoms: C_4  and  C_5
REMARK    2  A    between atoms: C_5  and  O_6
REMARK    3  A    between atoms: O_6  and  C_7
REMARK                            x       y       z     vdW  Elec       q    Type
REMARK                         _______ _______ _______ _____ _____    ______ ____
ROOT
ATOM      1  C   UNL     1       5.201   4.322  18.173  0.00  0.00    +0.000 A 
ATOM      2  N   UNL     1       5.691   4.759  19.295  0.00  0.00    +0.000 NA
ATOM      3  C   UNL     1       6.883   5.461  19.219  0.00  0.00    +0.000 A 
ATOM      4  C   UNL     1       7.535   5.703  18.070  0.00  0.00    +0.000 A 
ATOM      5  N   UNL     1       6.998   5.239  16.880  0.00  0.00    +0.000 N 
ATOM      6  N   UNL     1       7.466   5.376  15.615  0.00  0.00    +0.000 NA
ATOM      7  C   UNL     1       6.553   4.765  14.855  0.00  0.00    +0.000 A 
ATOM      8  C   UNL     1       5.499   4.216  15.603  0.00  0.00    +0.000 A 
ATOM      9  C   UNL     1       5.814   4.539  16.901  0.00  0.00    +0.000 A 
ENDROOT
BRANCH   1  10
ATOM     10  O   UNL     1       4.056   3.609  18.057  0.00  0.00    +0.000 OA
BRANCH  10  11
ATOM     11  C   UNL     1       2.822   4.340  18.154  0.00  0.00    +0.000 C 
BRANCH  11  15
ATOM     12  C   UNL     1       2.711   2.714  21.086  0.00  0.00    +0.000 C 
ATOM     13  C   UNL     1       2.018   3.819  21.376  0.00  0.00    +0.000 C 
ATOM     14  C   UNL     1       1.282   4.345  20.189  0.00  0.00    +0.000 C 
ATOM     15  C   UNL     1       1.853   3.524  19.018  0.00  0.00    +0.000 C 
ATOM     16  C   UNL     1       2.552   2.313  19.656  0.00  0.00    +0.000 C 
ENDBRANCH  11  15
ENDBRANCH  10  11
ENDBRANCH   1  10
TORSDOF 3
ENDMDL
MODEL 5
REMARK VINA RESULT:      -6.9      0.756      1.299
REMARK  Name = 
REMARK  3 active torsions:
REMARK  status: ('A' for Active; 'I' for Inactive)
REMARK    1  A    between atoms: C_4  and  C_5
REMARK    2  A    between atoms: C_5  and  O_6
REMARK    3  A    between atoms: O_6  and  C_7
REMARK                            x       y       z     vdW  Elec       q    Type
REMARK                         _______ _______ _______ _____ _____    ______ ____
ROOT
ATOM      1  C   UNL     1       5.484   4.320  18.274  0.00  0.00    +0.000 A 
ATOM      2  N   UNL     1       6.027   4.914  19.296  0.00  0.00    +0.000 NA
ATOM      3  C   UNL     1       7.101   5.746  19.031  0.00  0.00    +0.000 A 
ATOM      4  C   UNL     1       7.595   5.960  17.801  0.00  0.00    +0.000 A 
ATOM      5  N   UNL     1       7.003   5.327  16.719  0.00  0.00    +0.000 N 
ATOM      6  N   UNL     1       7.317   5.405  15.402  0.00  0.00    +0.000 NA
ATOM      7  C   UNL     1       6.418   4.621  14.799  0.00  0.00    +0.000 A 
ATOM      8  C   UNL     1       5.528   4.017  15.702  0.00  0.00    +0.000 A 
ATOM      9  C   UNL     1       5.930   4.493  16.928  0.00  0.00    +0.000 A 
ENDROOT
BRANCH   1  10
ATOM     10  O   UNL     1       4.437   3.465  18.344  0.00  0.00    +0.000 OA
BRANCH  10  11
ATOM     11  C   UNL     1       4.089   2.969  19.647  0.00  0.00    +0.000 C 
BRANCH  11  15
ATOM     12  C   UNL     1       0.754   3.315  19.736  0.00  0.00    +0.000 C 
ATOM     13  C   UNL     1       0.998   2.843  20.963  0.00  0.00    +0.000 C 
ATOM     14  C   UNL     1       2.332   3.277  21.473  0.00  0.00    +0.000 C 
ATOM     15  C   UNL     1       3.009   3.889  20.232  0.00  0.00    +0.000 C 
ATOM     16  C   UNL     1       1.882   4.147  19.221  0.00  0.00    +0.000 C 
ENDBRANCH  11  15
ENDBRANCH  10  11
ENDBRANCH   1  10
TORSDOF 3
ENDMDL
MODEL 6
REMARK VINA RESULT:      -6.9      1.140      1.843
REMARK  Name = 
REMARK  3 active torsions:
REMARK  status: ('A' for Active; 'I' for Inactive)
REMARK    1  A    between atoms: C_4  and  C_5
REMARK    2  A    between atoms: C_5  and  O_6
REMARK    3  A    between atoms: O_6  and  C_7
REMARK                            x       y       z     vdW  Elec       q    Type
REMARK                         _______ _______ _______ _____ _____    ______ ____
ROOT
ATOM      1  C   UNL     1       4.827   5.318  17.799  0.00  0.00    +0.000 A 
ATOM      2  N   UNL     1       5.262   5.511  19.009  0.00  0.00    +0.000 NA
ATOM      3  C   UNL     1       6.629   5.400  19.202  0.00  0.00    +0.000 A 
ATOM      4  C   UNL     1       7.500   5.108  18.222  0.00  0.00    +0.000 A 
ATOM      5  N   UNL     1       7.025   4.913  16.935  0.00  0.00    +0.000 N 
ATOM      6  N   UNL     1       7.712   4.629  15.801  0.00  0.00    +0.000 NA
ATOM      7  C   UNL     1       6.774   4.571  14.851  0.00  0.00    +0.000 A 
ATOM      8  C   UNL     1       5.480   4.798  15.347  0.00  0.00    +0.000 A 
ATOM      9  C   UNL     1       5.676   5.016  16.690  0.00  0.00    +0.000 A 
ENDROOT
BRANCH   1  10
ATOM     10  O   UNL     1       3.527   5.375  17.427  0.00  0.00    +0.000 OA
BRANCH  10  11
ATOM     11  C   UNL     1       2.547   5.270  18.472  0.00  0.00    +0.000 C 
BRANCH  11  15
ATOM     12  C   UNL     1       2.550   1.916  18.460  0.00  0.00    +0.000 C 
ATOM     13  C   UNL     1       1.815   2.171  19.546  0.00  0.00    +0.000 C 
ATOM     14  C   UNL     1       1.038   3.438  19.412  0.00  0.00    +0.000 C 
ATOM     15  C   UNL     1       1.627   4.087  18.145  0.00  0.00    +0.000 C 
ATOM     16  C   UNL     1       2.388   2.970  17.414  0.00  0.00    +0.000 C 
ENDBRANCH  11  15
ENDBRANCH  10  11
ENDBRANCH   1  10
TORSDOF 3
ENDMDL
MODEL 7
REMARK VINA RESULT:      -6.7      1.054      1.339
REMARK  Name = 
REMARK  3 active torsions:
REMARK  status: ('A' for Active; 'I' for Inactive)
REMARK    1  A    between atoms: C_4  and  C_5
REMARK    2  A    between atoms: C_5  and  O_6
REMARK    3  A    between atoms: O_6  and  C_7
REMARK                            x       y       z     vdW  Elec       q    Type
REMARK                         _______ _______ _______ _____ _____    ______ ____
ROOT
ATOM      1  C   UNL     1       5.137   4.871  18.589  0.00  0.00    +0.000 A 
ATOM      2  N   UNL     1       5.839   5.347  19.574  0.00  0.00    +0.000 NA
ATOM      3  C   UNL     1       7.182   5.578  19.324  0.00  0.00    +0.000 A 
ATOM      4  C   UNL     1       7.773   5.338  18.142  0.00  0.00    +0.000 A 
ATOM      5  N   UNL     1       7.012   4.838  17.097  0.00  0.00    +0.000 N 
ATOM      6  N   UNL     1       7.386   4.540  15.829  0.00  0.00    +0.000 NA
ATOM      7  C   UNL     1       6.261   4.122  15.240  0.00  0.00    +0.000 A 
ATOM      8  C   UNL     1       5.157   4.128  16.108  0.00  0.00    +0.000 A 
ATOM      9  C   UNL     1       5.672   4.595  17.293  0.00  0.00    +0.000 A 
ENDROOT
BRANCH   1  10
ATOM     10  O   UNL     1       3.818   4.574  18.654  0.00  0.00    +0.000 OA
BRANCH  10  11
ATOM     11  C   UNL     1       3.100   5.052  19.803  0.00  0.00    +0.000 C 
BRANCH  11  15
ATOM     12  C   UNL     1       0.660   2.806  19.303  0.00  0.00    +0.000 C 
ATOM     13  C   UNL     1       1.747   2.064  19.070  0.00  0.00    +0.000 C 
ATOM     14  C   UNL     1       2.913   2.508  19.889  0.00  0.00    +0.000 C 
ATOM     15  C   UNL     1       2.442   3.847  20.487  0.00  0.00    +0.000 C 
ATOM     16  C   UNL     1       0.915   3.870  20.320  0.00  0.00    +0.000 C 
ENDBRANCH  11  15
ENDBRANCH  10  11
ENDBRANCH   1  10
TORSDOF 3
ENDMDL
MODEL 8
REMARK VINA RESULT:      -6.7      0.913      1.131
REMARK  Name = 
REMARK  3 active torsions:
REMARK  status: ('A' for Active; 'I' for Inactive)
REMARK    1  A    between atoms: C_4  and  C_5
REMARK    2  A    between atoms: C_5  and  O_6
REMARK    3  A    between atoms: O_6  and  C_7
REMARK                            x       y       z     vdW  Elec       q    Type
REMARK                         _______ _______ _______ _____ _____    ______ ____
ROOT
ATOM      1  C   UNL     1       6.030   4.623  18.863  0.00  0.00    +0.000 A 
ATOM      2  N   UNL     1       6.864   5.305  19.592  0.00  0.00    +0.000 NA
ATOM      3  C   UNL     1       7.645   6.238  18.931  0.00  0.00    +0.000 A 
ATOM      4  C   UNL     1       7.581   6.463  17.608  0.00  0.00    +0.000 A 
ATOM      5  N   UNL     1       6.682   5.736  16.844  0.00  0.00    +0.000 N 
ATOM      6  N   UNL     1       6.435   5.804  15.513  0.00  0.00    +0.000 NA
ATOM      7  C   UNL     1       5.464   4.909  15.309  0.00  0.00    +0.000 A 
ATOM      8  C   UNL     1       5.080   4.243  16.484  0.00  0.00    +0.000 A 
ATOM      9  C   UNL     1       5.881   4.799  17.454  0.00  0.00    +0.000 A 
ENDROOT
BRANCH   1  10
ATOM     10  O   UNL     1       5.199   3.664  19.334  0.00  0.00    +0.000 OA
BRANCH  10  11
ATOM     11  C   UNL     1       3.944   4.102  19.880  0.00  0.00    +0.000 C 
BRANCH  11  15
ATOM     12  C   UNL     1       1.055   2.905  18.666  0.00  0.00    +0.000 C 
ATOM     13  C   UNL     1       1.944   2.156  18.005  0.00  0.00    +0.000 C 
ATOM     14  C   UNL     1       3.178   1.915  18.808  0.00  0.00    +0.000 C 
ATOM     15  C   UNL     1       3.026   2.879  20.000  0.00  0.00    +0.000 C 
ATOM     16  C   UNL     1       1.545   3.288  20.024  0.00  0.00    +0.000 C 
ENDBRANCH  11  15
ENDBRANCH  10  11
ENDBRANCH   1  10
TORSDOF 3
ENDMDL
MODEL 9
REMARK VINA RESULT:      -6.6      0.956      1.088
REMARK  Name = 
REMARK  3 active torsions:
REMARK  status: ('A' for Active; 'I' for Inactive)
REMARK    1  A    between atoms: C_4  and  C_5
REMARK    2  A    between atoms: C_5  and  O_6
REMARK    3  A    between atoms: O_6  and  C_7
REMARK                            x       y       z     vdW  Elec       q    Type
REMARK                         _______ _______ _______ _____ _____    ______ ____
ROOT
ATOM      1  C   UNL     1       5.444   4.351  17.567  0.00  0.00    +0.000 A 
ATOM      2  N   UNL     1       5.760   5.043  18.622  0.00  0.00    +0.000 NA
ATOM      3  C   UNL     1       6.750   5.998  18.463  0.00  0.00    +0.000 A 
ATOM      4  C   UNL     1       7.382   6.234  17.301  0.00  0.00    +0.000 A 
ATOM      5  N   UNL     1       7.031   5.495  16.183  0.00  0.00    +0.000 N 
ATOM      6  N   UNL     1       7.514   5.570  14.918  0.00  0.00    +0.000 NA
ATOM      7  C   UNL     1       6.813   4.656  14.240  0.00  0.00    +0.000 A 
ATOM      8  C   UNL     1       5.886   3.973  15.043  0.00  0.00    +0.000 A 
ATOM      9  C   UNL     1       6.050   4.536  16.286  0.00  0.00    +0.000 A 
ENDROOT
BRANCH   1  10
ATOM     10  O   UNL     1       4.511   3.371  17.538  0.00  0.00    +0.000 OA
BRANCH  10  11
ATOM     11  C   UNL     1       3.174   3.735  17.917  0.00  0.00    +0.000 C 
BRANCH  11  15
ATOM     12  C   UNL     1       1.232   4.163  20.619  0.00  0.00    +0.000 C 
ATOM     13  C   UNL     1       0.606   3.153  20.007  0.00  0.00    +0.000 C 
ATOM     14  C   UNL     1       1.555   2.283  19.252  0.00  0.00    +0.000 C 
ATOM     15  C   UNL     1       2.871   3.083  19.272  0.00  0.00    +0.000 C 
ATOM     16  C   UNL     1       2.706   4.136  20.379  0.00  0.00    +0.000 C 
ENDBRANCH  11  15
ENDBRANCH  10  11
ENDBRANCH   1  10
TORSDOF 3
ENDMDL
