MODEL 1
REMARK VINA RESULT:      -7.9      0.000      0.000
REMARK  Name = 
REMARK  2 active torsions:
REMARK  status: ('A' for Active; 'I' for Inactive)
REMARK    1  A    between atoms: C_2  and  C_3
REMARK    2  A    between atoms: C_3  and  N_4
REMARK                            x       y       z     vdW  Elec       q    Type
REMARK                         _______ _______ _______ _____ _____    ______ ____
ROOT
ATOM      1  N   UNL     1      -1.118  11.675  19.712  0.00  0.00    +0.000 N 
ATOM      2  C   UNL     1      -1.789  11.177  18.609  0.00  0.00    +0.000 A 
ATOM      3  C   UNL     1      -1.360  10.355  17.551  0.00  0.00    +0.000 A 
ATOM      4  C   UNL     1      -2.281  10.026  16.552  0.00  0.00    +0.000 A 
ATOM      5  C   UNL     1      -3.572  10.539  16.568  0.00  0.00    +0.000 A 
ATOM      6  C   UNL     1      -3.974  11.382  17.605  0.00  0.00    +0.000 A 
ATOM      7  C   UNL     1      -3.098  11.662  18.674  0.00  0.00    +0.000 A 
ATOM      8  C   UNL     1      -3.228  12.383  19.907  0.00  0.00    +0.000 A 
ATOM      9  C   UNL     1      -4.265  13.053  20.580  0.00  0.00    +0.000 A 
ATOM     10  N   UNL     1      -5.567  13.069  20.089  0.00  0.00    +0.000 N 
ATOM     11  C   UNL     1      -6.463  14.151  20.514  0.00  0.00    +0.000 C 
ATOM     12  C   UNL     1      -7.808  13.469  20.769  0.00  0.00    +0.000 C 
ATOM     13  C   UNL     1      -7.735  12.208  19.928  0.00  0.00    +0.000 C 
ATOM     14  C   UNL     1      -6.282  11.790  20.114  0.00  0.00    +0.000 C 
ATOM     15  N   UNL     1      -3.929  13.727  21.717  0.00  0.00    +0.000 NA
ATOM     16  C   UNL     1      -2.665  13.717  22.198  0.00  0.00    +0.000 A 
ATOM     17  N   UNL     1      -2.403  14.451  23.323  0.00  0.00    +0.000 N 
ATOM     18  C   UNL     1      -3.413  15.209  24.023  0.00  0.00    +0.000 C 
ATOM     19  C   UNL     1      -2.582  16.254  24.764  0.00  0.00    +0.000 C 
ATOM     20  C   UNL     1      -1.299  15.510  25.115  0.00  0.00    +0.000 C 
ATOM     21  C   UNL     1      -1.114  14.495  23.976  0.00  0.00    +0.000 C 
ATOM     22  N   UNL     1      -1.648  13.055  21.627  0.00  0.00    +0.000 NA
ATOM     23  C   UNL     1      -1.975  12.407  20.495  0.00  0.00    +0.000 A 
ENDROOT
BRANCH   1  24
ATOM     24  C   UNL     1       0.314  11.573  19.935  0.00  0.00    +0.000 C 
BRANCH  24  26
ATOM     25  O   UNL     1       0.661  10.307  21.942  0.00  0.00    +0.000 OA
ATOM     26  C   UNL     1       0.711  10.329  20.708  0.00  0.00    +0.000 C 
ATOM     27  N   UNL     1       1.054   9.204  19.982  0.00  0.00    +0.000 N 
ATOM     28  C   UNL     1       1.364   7.941  20.629  0.00  0.00    +0.000 C 
ATOM     29  C   UNL     1       2.491   7.373  19.784  0.00  0.00    +0.000 C 
ATOM     30  C   UNL     1       2.120   7.823  18.377  0.00  0.00    +0.000 C 
ATOM     31  C   UNL     1       1.480   9.189  18.592  0.00  0.00    +0.000 C 
ENDBRANCH  24  26
ENDBRANCH   1  24
TORSDOF 2
ENDMDL
MODEL 2
REMARK VINA RESULT:      -7.4      1.200      5.098
REMARK  Name = 
REMARK  2 active torsions:
REMARK  status: ('A' for Active; 'I' for Inactive)
REMARK    1  A    between atoms: C_2  and  C_3
REMARK    2  A    between atoms: C_3  and  N_4
REMARK                            x       y       z     vdW  Elec       q    Type
REMARK                         _______ _______ _______ _____ _____    ______ ____
ROOT
ATOM      1  N   UNL     1      -0.999  12.948  20.892  0.00  0.00    +0.000 N 
ATOM      2  C   UNL     1      -1.426  13.508  22.083  0.00  0.00    +0.000 A 
ATOM      3  C   UNL     1      -0.711  13.994  23.193  0.00  0.00    +0.000 A 
ATOM      4  C   UNL     1      -1.434  14.497  24.279  0.00  0.00    +0.000 A 
ATOM      5  C   UNL     1      -2.823  14.468  24.292  0.00  0.00    +0.000 A 
ATOM      6  C   UNL     1      -3.520  13.951  23.199  0.00  0.00    +0.000 A 
ATOM      7  C   UNL     1      -2.823  13.518  22.052  0.00  0.00    +0.000 A 
ATOM      8  C   UNL     1      -3.227  13.044  20.761  0.00  0.00    +0.000 A 
ATOM      9  C   UNL     1      -4.449  12.862  20.088  0.00  0.00    +0.000 A 
ATOM     10  N   UNL     1      -5.662  13.238  20.658  0.00  0.00    +0.000 N 
ATOM     11  C   UNL     1      -6.891  12.594  20.179  0.00  0.00    +0.000 C 
ATOM     12  C   UNL     1      -7.916  13.725  20.086  0.00  0.00    +0.000 C 
ATOM     13  C   UNL     1      -7.385  14.770  21.050  0.00  0.00    +0.000 C 
ATOM     14  C   UNL     1      -5.881  14.678  20.816  0.00  0.00    +0.000 C 
ATOM     15  N   UNL     1      -4.398  12.259  18.867  0.00  0.00    +0.000 NA
ATOM     16  C   UNL     1      -3.223  11.889  18.308  0.00  0.00    +0.000 A 
ATOM     17  N   UNL     1      -3.262  11.254  17.097  0.00  0.00    +0.000 N 
ATOM     18  C   UNL     1      -4.490  10.984  16.387  0.00  0.00    +0.000 C 
ATOM     19  C   UNL     1      -4.097   9.816  15.487  0.00  0.00    +0.000 C 
ATOM     20  C   UNL     1      -2.643  10.106  15.135  0.00  0.00    +0.000 C 
ATOM     21  C   UNL     1      -2.086  10.847  16.360  0.00  0.00    +0.000 C 
ATOM     22  N   UNL     1      -2.025  12.083  18.880  0.00  0.00    +0.000 NA
ATOM     23  C   UNL     1      -2.077  12.660  20.093  0.00  0.00    +0.000 A 
ENDROOT
BRANCH   1  24
ATOM     24  C   UNL     1       0.372  12.574  20.589  0.00  0.00    +0.000 C 
BRANCH  24  26
ATOM     25  O   UNL     1       0.789  10.813  22.162  0.00  0.00    +0.000 OA
ATOM     26  C   UNL     1       0.700  11.144  20.977  0.00  0.00    +0.000 C 
ATOM     27  N   UNL     1       0.819  10.214  19.960  0.00  0.00    +0.000 N 
ATOM     28  C   UNL     1       1.044   8.805  20.235  0.00  0.00    +0.000 C 
ATOM     29  C   UNL     1       1.990   8.373  19.128  0.00  0.00    +0.000 C 
ATOM     30  C   UNL     1       1.518   9.197  17.937  0.00  0.00    +0.000 C 
ATOM     31  C   UNL     1       1.078  10.515  18.561  0.00  0.00    +0.000 C 
ENDBRANCH  24  26
ENDBRANCH   1  24
TORSDOF 2
ENDMDL
MODEL 3
REMARK VINA RESULT:      -7.3      1.122      1.500
REMARK  Name = 
REMARK  2 active torsions:
REMARK  status: ('A' for Active; 'I' for Inactive)
REMARK    1  A    between atoms: C_2  and  C_3
REMARK    2  A    between atoms: C_3  and  N_4
REMARK                            x       y       z     vdW  Elec       q    Type
REMARK                         _______ _______ _______ _____ _____    ______ ____
ROOT
ATOM      1  N   UNL     1      -1.390  11.726  18.838  0.00  0.00    +0.000 N 
ATOM      2  C   UNL     1      -2.205  11.229  17.835  0.00  0.00    +0.000 A 
ATOM      3  C   UNL     1      -1.911  10.479  16.682  0.00  0.00    +0.000 A 
ATOM      4  C   UNL     1      -2.965  10.130  15.833  0.00  0.00    +0.000 A 
ATOM      5  C   UNL     1      -4.263  10.557  16.085  0.00  0.00    +0.000 A 
ATOM      6  C   UNL     1      -4.535  11.331  17.214  0.00  0.00    +0.000 A 
ATOM      7  C   UNL     1      -3.511  11.625  18.138  0.00  0.00    +0.000 A 
ATOM      8  C   UNL     1      -3.475  12.287  19.409  0.00  0.00    +0.000 A 
ATOM      9  C   UNL     1      -4.422  12.861  20.275  0.00  0.00    +0.000 A 
ATOM     10  N   UNL     1      -5.787  12.811  20.006  0.00  0.00    +0.000 N 
ATOM     11  C   UNL     1      -6.661  13.815  20.625  0.00  0.00    +0.000 C 
ATOM     12  C   UNL     1      -7.903  13.037  21.062  0.00  0.00    +0.000 C 
ATOM     13  C   UNL     1      -7.899  11.817  20.159  0.00  0.00    +0.000 C 
ATOM     14  C   UNL     1      -6.412  11.488  20.084  0.00  0.00    +0.000 C 
ATOM     15  N   UNL     1      -3.942  13.509  21.374  0.00  0.00    +0.000 NA
ATOM     16  C   UNL     1      -2.617  13.563  21.641  0.00  0.00    +0.000 A 
ATOM     17  N   UNL     1      -2.215  14.268  22.743  0.00  0.00    +0.000 N 
ATOM     18  C   UNL     1      -3.136  14.931  23.635  0.00  0.00    +0.000 C 
ATOM     19  C   UNL     1      -2.255  15.997  24.281  0.00  0.00    +0.000 C 
ATOM     20  C   UNL     1      -0.891  15.325  24.380  0.00  0.00    +0.000 C 
ATOM     21  C   UNL     1      -0.840  14.370  23.178  0.00  0.00    +0.000 C 
ATOM     22  N   UNL     1      -1.672  12.992  20.879  0.00  0.00    +0.000 NA
ATOM     23  C   UNL     1      -2.145  12.369  19.786  0.00  0.00    +0.000 A 
ENDROOT
BRANCH   1  24
ATOM     24  C   UNL     1       0.063  11.709  18.818  0.00  0.00    +0.000 C 
BRANCH  24  26
ATOM     25  O   UNL     1       0.897   9.676  17.860  0.00  0.00    +0.000 OA
ATOM     26  C   UNL     1       0.645  10.309  18.888  0.00  0.00    +0.000 C 
ATOM     27  N   UNL     1       0.951   9.803  20.138  0.00  0.00    +0.000 N 
ATOM     28  C   UNL     1       1.591   8.510  20.303  0.00  0.00    +0.000 C 
ATOM     29  C   UNL     1       0.930   7.941  21.547  0.00  0.00    +0.000 C 
ATOM     30  C   UNL     1       0.712   9.176  22.412  0.00  0.00    +0.000 C 
ATOM     31  C   UNL     1       0.405  10.274  21.401  0.00  0.00    +0.000 C 
ENDBRANCH  24  26
ENDBRANCH   1  24
TORSDOF 2
ENDMDL
MODEL 4
REMARK VINA RESULT:      -7.2      1.645      2.622
REMARK  Name = 
REMARK  2 active torsions:
REMARK  status: ('A' for Active; 'I' for Inactive)
REMARK    1  A    between atoms: C_2  and  C_3
REMARK    2  A    between atoms: C_3  and  N_4
REMARK                            x       y       z     vdW  Elec       q    Type
REMARK                         _______ _______ _______ _____ _____    ______ ____
ROOT
ATOM      1  N   UNL     1      -1.193  11.433  19.841  0.00  0.00    +0.000 N 
ATOM      2  C   UNL     1      -1.798  10.984  18.680  0.00  0.00    +0.000 A 
ATOM      3  C   UNL     1      -1.362  10.083  17.691  0.00  0.00    +0.000 A 
ATOM      4  C   UNL     1      -2.206   9.835  16.604  0.00  0.00    +0.000 A 
ATOM      5  C   UNL     1      -3.418  10.499  16.469  0.00  0.00    +0.000 A 
ATOM      6  C   UNL     1      -3.822  11.417  17.439  0.00  0.00    +0.000 A 
ATOM      7  C   UNL     1      -3.037  11.624  18.592  0.00  0.00    +0.000 A 
ATOM      8  C   UNL     1      -3.209  12.394  19.789  0.00  0.00    +0.000 A 
ATOM      9  C   UNL     1      -4.222  13.205  20.332  0.00  0.00    +0.000 A 
ATOM     10  N   UNL     1      -5.452  13.361  19.700  0.00  0.00    +0.000 N 
ATOM     11  C   UNL     1      -6.250  14.555  20.004  0.00  0.00    +0.000 C 
ATOM     12  C   UNL     1      -7.687  14.048  20.123  0.00  0.00    +0.000 C 
ATOM     13  C   UNL     1      -7.680  12.761  19.319  0.00  0.00    +0.000 C 
ATOM     14  C   UNL     1      -6.317  12.178  19.671  0.00  0.00    +0.000 C 
ATOM     15  N   UNL     1      -3.929  13.869  21.486  0.00  0.00    +0.000 NA
ATOM     16  C   UNL     1      -2.735  13.724  22.103  0.00  0.00    +0.000 A 
ATOM     17  N   UNL     1      -2.507  14.457  23.236  0.00  0.00    +0.000 N 
ATOM     18  C   UNL     1      -3.485  15.353  23.806  0.00  0.00    +0.000 C 
ATOM     19  C   UNL     1      -2.616  16.313  24.614  0.00  0.00    +0.000 C 
ATOM     20  C   UNL     1      -1.479  15.433  25.118  0.00  0.00    +0.000 C 
ATOM     21  C   UNL     1      -1.299  14.367  24.026  0.00  0.00    +0.000 C 
ATOM     22  N   UNL     1      -1.751  12.927  21.660  0.00  0.00    +0.000 NA
ATOM     23  C   UNL     1      -2.033  12.287  20.511  0.00  0.00    +0.000 A 
ENDROOT
BRANCH   1  24
ATOM     24  C   UNL     1       0.184  11.168  20.222  0.00  0.00    +0.000 C 
BRANCH  24  26
ATOM     25  O   UNL     1       1.685  10.912  18.369  0.00  0.00    +0.000 OA
ATOM     26  C   UNL     1       1.192  11.674  19.206  0.00  0.00    +0.000 C 
ATOM     27  N   UNL     1       1.478  13.027  19.204  0.00  0.00    +0.000 N 
ATOM     28  C   UNL     1       2.362  13.620  18.216  0.00  0.00    +0.000 C 
ATOM     29  C   UNL     1       3.123  14.672  19.003  0.00  0.00    +0.000 C 
ATOM     30  C   UNL     1       2.078  15.182  19.988  0.00  0.00    +0.000 C 
ATOM     31  C   UNL     1       1.252  13.943  20.311  0.00  0.00    +0.000 C 
ENDBRANCH  24  26
ENDBRANCH   1  24
TORSDOF 2
ENDMDL
MODEL 5
REMARK VINA RESULT:      -7.2      1.828      2.321
REMARK  Name = 
REMARK  2 active torsions:
REMARK  status: ('A' for Active; 'I' for Inactive)
REMARK    1  A    between atoms: C_2  and  C_3
REMARK    2  A    between atoms: C_3  and  N_4
REMARK                            x       y       z     vdW  Elec       q    Type
REMARK                         _______ _______ _______ _____ _____    ______ ____
ROOT
ATOM      1  N   UNL     1      -1.309  11.661  20.435  0.00  0.00    +0.000 N 
ATOM      2  C   UNL     1      -1.688  11.174  19.196  0.00  0.00    +0.000 A 
ATOM      3  C   UNL     1      -1.051  10.286  18.310  0.00  0.00    +0.000 A 
ATOM      4  C   UNL     1      -1.685   9.989  17.100  0.00  0.00    +0.000 A 
ATOM      5  C   UNL     1      -2.885  10.594  16.751  0.00  0.00    +0.000 A 
ATOM      6  C   UNL     1      -3.489  11.500  17.623  0.00  0.00    +0.000 A 
ATOM      7  C   UNL     1      -2.921  11.755  18.889  0.00  0.00    +0.000 A 
ATOM      8  C   UNL     1      -3.328  12.526  20.026  0.00  0.00    +0.000 A 
ATOM      9  C   UNL     1      -4.453  13.294  20.376  0.00  0.00    +0.000 A 
ATOM     10  N   UNL     1      -5.565  13.386  19.543  0.00  0.00    +0.000 N 
ATOM     11  C   UNL     1      -6.454  14.544  19.688  0.00  0.00    +0.000 C 
ATOM     12  C   UNL     1      -7.867  13.972  19.570  0.00  0.00    +0.000 C 
ATOM     13  C   UNL     1      -7.666  12.679  18.801  0.00  0.00    +0.000 C 
ATOM     14  C   UNL     1      -6.358  12.164  19.388  0.00  0.00    +0.000 C 
ATOM     15  N   UNL     1      -4.391  13.981  21.552  0.00  0.00    +0.000 NA
ATOM     16  C   UNL     1      -3.313  13.897  22.365  0.00  0.00    +0.000 A 
ATOM     17  N   UNL     1      -3.314  14.650  23.507  0.00  0.00    +0.000 N 
ATOM     18  C   UNL     1      -4.413  15.505  23.889  0.00  0.00    +0.000 C 
ATOM     19  C   UNL     1      -3.738  16.512  24.816  0.00  0.00    +0.000 C 
ATOM     20  C   UNL     1      -2.665  15.691  25.519  0.00  0.00    +0.000 C 
ATOM     21  C   UNL     1      -2.255  14.625  24.492  0.00  0.00    +0.000 C 
ATOM     22  N   UNL     1      -2.234  13.144  22.107  0.00  0.00    +0.000 NA
ATOM     23  C   UNL     1      -2.287  12.481  20.939  0.00  0.00    +0.000 A 
ENDROOT
BRANCH   1  24
ATOM     24  C   UNL     1      -0.006  11.465  21.047  0.00  0.00    +0.000 C 
BRANCH  24  26
ATOM     25  O   UNL     1       0.771  13.578  21.871  0.00  0.00    +0.000 OA
ATOM     26  C   UNL     1       0.867  12.705  21.004  0.00  0.00    +0.000 C 
ATOM     27  N   UNL     1       1.822  12.784  20.007  0.00  0.00    +0.000 N 
ATOM     28  C   UNL     1       2.762  13.888  19.935  0.00  0.00    +0.000 C 
ATOM     29  C   UNL     1       2.902  14.142  18.444  0.00  0.00    +0.000 C 
ATOM     30  C   UNL     1       2.806  12.741  17.851  0.00  0.00    +0.000 C 
ATOM     31  C   UNL     1       1.813  12.031  18.763  0.00  0.00    +0.000 C 
ENDBRANCH  24  26
ENDBRANCH   1  24
TORSDOF 2
ENDMDL
MODEL 6
REMARK VINA RESULT:      -7.2      2.548      6.298
REMARK  Name = 
REMARK  2 active torsions:
REMARK  status: ('A' for Active; 'I' for Inactive)
REMARK    1  A    between atoms: C_2  and  C_3
REMARK    2  A    between atoms: C_3  and  N_4
REMARK                            x       y       z     vdW  Elec       q    Type
REMARK                         _______ _______ _______ _____ _____    ______ ____
ROOT
ATOM      1  N   UNL     1      -4.279  12.233  19.546  0.00  0.00    +0.000 N 
ATOM      2  C   UNL     1      -3.742  11.520  18.488  0.00  0.00    +0.000 A 
ATOM      3  C   UNL     1      -4.352  10.820  17.432  0.00  0.00    +0.000 A 
ATOM      4  C   UNL     1      -3.531  10.171  16.505  0.00  0.00    +0.000 A 
ATOM      5  C   UNL     1      -2.149  10.164  16.651  0.00  0.00    +0.000 A 
ATOM      6  C   UNL     1      -1.558  10.833  17.724  0.00  0.00    +0.000 A 
ATOM      7  C   UNL     1      -2.352  11.572  18.625  0.00  0.00    +0.000 A 
ATOM      8  C   UNL     1      -2.062  12.428  19.738  0.00  0.00    +0.000 A 
ATOM      9  C   UNL     1      -0.899  12.922  20.355  0.00  0.00    +0.000 A 
ATOM     10  N   UNL     1       0.370  12.652  19.851  0.00  0.00    +0.000 N 
ATOM     11  C   UNL     1       1.519  12.739  20.760  0.00  0.00    +0.000 C 
ATOM     12  C   UNL     1       2.614  13.427  19.944  0.00  0.00    +0.000 C 
ATOM     13  C   UNL     1       2.217  13.147  18.506  0.00  0.00    +0.000 C 
ATOM     14  C   UNL     1       0.700  13.277  18.567  0.00  0.00    +0.000 C 
ATOM     15  N   UNL     1      -1.066  13.644  21.499  0.00  0.00    +0.000 NA
ATOM     16  C   UNL     1      -2.296  13.908  21.996  0.00  0.00    +0.000 A 
ATOM     17  N   UNL     1      -2.376  14.607  23.170  0.00  0.00    +0.000 N 
ATOM     18  C   UNL     1      -1.215  15.086  23.883  0.00  0.00    +0.000 C 
ATOM     19  C   UNL     1      -1.744  15.234  25.307  0.00  0.00    +0.000 C 
ATOM     20  C   UNL     1      -3.192  15.665  25.110  0.00  0.00    +0.000 C 
ATOM     21  C   UNL     1      -3.619  15.003  23.792  0.00  0.00    +0.000 C 
ATOM     22  N   UNL     1      -3.441  13.506  21.424  0.00  0.00    +0.000 NA
ATOM     23  C   UNL     1      -3.275  12.778  20.306  0.00  0.00    +0.000 A 
ENDROOT
BRANCH   1  24
ATOM     24  C   UNL     1      -5.689  12.275  19.895  0.00  0.00    +0.000 C 
BRANCH  24  26
ATOM     25  O   UNL     1      -6.475  14.308  20.895  0.00  0.00    +0.000 OA
ATOM     26  C   UNL     1      -6.272  13.676  19.854  0.00  0.00    +0.000 C 
ATOM     27  N   UNL     1      -6.495  14.243  18.613  0.00  0.00    +0.000 N 
ATOM     28  C   UNL     1      -6.968  15.609  18.471  0.00  0.00    +0.000 C 
ATOM     29  C   UNL     1      -7.916  15.537  17.287  0.00  0.00    +0.000 C 
ATOM     30  C   UNL     1      -7.253  14.505  16.383  0.00  0.00    +0.000 C 
ATOM     31  C   UNL     1      -6.629  13.517  17.361  0.00  0.00    +0.000 C 
ENDBRANCH  24  26
ENDBRANCH   1  24
TORSDOF 2
ENDMDL
MODEL 7
REMARK VINA RESULT:      -7.2      2.603      6.375
REMARK  Name = 
REMARK  2 active torsions:
REMARK  status: ('A' for Active; 'I' for Inactive)
REMARK    1  A    between atoms: C_2  and  C_3
REMARK    2  A    between atoms: C_3  and  N_4
REMARK                            x       y       z     vdW  Elec       q    Type
REMARK                         _______ _______ _______ _____ _____    ______ ____
ROOT
ATOM      1  N   UNL     1      -4.345  12.287  19.687  0.00  0.00    +0.000 N 
ATOM      2  C   UNL     1      -3.843  11.600  18.595  0.00  0.00    +0.000 A 
ATOM      3  C   UNL     1      -4.487  10.908  17.554  0.00  0.00    +0.000 A 
ATOM      4  C   UNL     1      -3.696  10.287  16.582  0.00  0.00    +0.000 A 
ATOM      5  C   UNL     1      -2.310  10.300  16.669  0.00  0.00    +0.000 A 
ATOM      6  C   UNL     1      -1.684  10.960  17.727  0.00  0.00    +0.000 A 
ATOM      7  C   UNL     1      -2.449  11.672  18.674  0.00  0.00    +0.000 A 
ATOM      8  C   UNL     1      -2.125  12.513  19.788  0.00  0.00    +0.000 A 
ATOM      9  C   UNL     1      -0.944  13.015  20.364  0.00  0.00    +0.000 A 
ATOM     10  N   UNL     1       0.306  12.773  19.802  0.00  0.00    +0.000 N 
ATOM     11  C   UNL     1       1.491  12.864  20.663  0.00  0.00    +0.000 C 
ATOM     12  C   UNL     1       2.540  13.582  19.812  0.00  0.00    +0.000 C 
ATOM     13  C   UNL     1       2.087  13.320  18.388  0.00  0.00    +0.000 C 
ATOM     14  C   UNL     1       0.572  13.425  18.516  0.00  0.00    +0.000 C 
ATOM     15  N   UNL     1      -1.073  13.716  21.526  0.00  0.00    +0.000 NA
ATOM     16  C   UNL     1      -2.284  13.953  22.079  0.00  0.00    +0.000 A 
ATOM     17  N   UNL     1      -2.324  14.630  23.268  0.00  0.00    +0.000 N 
ATOM     18  C   UNL     1      -1.141  15.116  23.938  0.00  0.00    +0.000 C 
ATOM     19  C   UNL     1      -1.611  15.232  25.386  0.00  0.00    +0.000 C 
ATOM     20  C   UNL     1      -3.072  15.643  25.259  0.00  0.00    +0.000 C 
ATOM     21  C   UNL     1      -3.546  14.996  23.948  0.00  0.00    +0.000 C 
ATOM     22  N   UNL     1      -3.446  13.542  21.549  0.00  0.00    +0.000 NA
ATOM     23  C   UNL     1      -3.317  12.835  20.413  0.00  0.00    +0.000 A 
ENDROOT
BRANCH   1  24
ATOM     24  C   UNL     1      -5.739  12.302  20.096  0.00  0.00    +0.000 C 
BRANCH  24  26
ATOM     25  O   UNL     1      -6.187  14.577  19.488  0.00  0.00    +0.000 OA
ATOM     26  C   UNL     1      -6.272  13.700  20.352  0.00  0.00    +0.000 C 
ATOM     27  N   UNL     1      -6.920  13.931  21.551  0.00  0.00    +0.000 N 
ATOM     28  C   UNL     1      -7.540  15.209  21.851  0.00  0.00    +0.000 C 
ATOM     29  C   UNL     1      -7.262  15.402  23.331  0.00  0.00    +0.000 C 
ATOM     30  C   UNL     1      -7.350  13.984  23.881  0.00  0.00    +0.000 C 
ATOM     31  C   UNL     1      -6.789  13.125  22.755  0.00  0.00    +0.000 C 
ENDBRANCH  24  26
ENDBRANCH   1  24
TORSDOF 2
ENDMDL
MODEL 8
REMARK VINA RESULT:      -7.1      2.451      5.700
REMARK  Name = 
REMARK  2 active torsions:
REMARK  status: ('A' for Active; 'I' for Inactive)
REMARK    1  A    between atoms: C_2  and  C_3
REMARK    2  A    between atoms: C_3  and  N_4
REMARK                            x       y       z     vdW  Elec       q    Type
REMARK                         _______ _______ _______ _____ _____    ______ ____
ROOT
ATOM      1  N   UNL     1      -4.634  12.479  19.363  0.00  0.00    +0.000 N 
ATOM      2  C   UNL     1      -4.072  11.711  18.359  0.00  0.00    +0.000 A 
ATOM      3  C   UNL     1      -4.646  11.060  17.252  0.00  0.00    +0.000 A 
ATOM      4  C   UNL     1      -3.808  10.331  16.404  0.00  0.00    +0.000 A 
ATOM      5  C   UNL     1      -2.451  10.201  16.673  0.00  0.00    +0.000 A 
ATOM      6  C   UNL     1      -1.900  10.822  17.794  0.00  0.00    +0.000 A 
ATOM      7  C   UNL     1      -2.701  11.638  18.620  0.00  0.00    +0.000 A 
ATOM      8  C   UNL     1      -2.434  12.473  19.754  0.00  0.00    +0.000 A 
ATOM      9  C   UNL     1      -1.291  12.865  20.473  0.00  0.00    +0.000 A 
ATOM     10  N   UNL     1      -0.012  12.477  20.085  0.00  0.00    +0.000 N 
ATOM     11  C   UNL     1       1.054  12.468  21.094  0.00  0.00    +0.000 C 
ATOM     12  C   UNL     1       2.276  13.046  20.379  0.00  0.00    +0.000 C 
ATOM     13  C   UNL     1       1.986  12.791  18.911  0.00  0.00    +0.000 C 
ATOM     14  C   UNL     1       0.487  13.058  18.836  0.00  0.00    +0.000 C 
ATOM     15  N   UNL     1      -1.494  13.610  21.597  0.00  0.00    +0.000 NA
ATOM     16  C   UNL     1      -2.734  13.989  21.981  0.00  0.00    +0.000 A 
ATOM     17  N   UNL     1      -2.854  14.702  23.143  0.00  0.00    +0.000 N 
ATOM     18  C   UNL     1      -1.723  15.080  23.957  0.00  0.00    +0.000 C 
ATOM     19  C   UNL     1      -2.361  15.288  25.328  0.00  0.00    +0.000 C 
ATOM     20  C   UNL     1      -3.741  15.847  25.001  0.00  0.00    +0.000 C 
ATOM     21  C   UNL     1      -4.107  15.214  23.650  0.00  0.00    +0.000 C 
ATOM     22  N   UNL     1      -3.855  13.688  21.309  0.00  0.00    +0.000 NA
ATOM     23  C   UNL     1      -3.656  12.937  20.211  0.00  0.00    +0.000 A 
ENDROOT
BRANCH   1  24
ATOM     24  C   UNL     1      -6.060  12.652  19.584  0.00  0.00    +0.000 C 
BRANCH  24  26
ATOM     25  O   UNL     1      -6.515  12.230  21.901  0.00  0.00    +0.000 OA
ATOM     26  C   UNL     1      -6.590  11.821  20.738  0.00  0.00    +0.000 C 
ATOM     27  N   UNL     1      -7.225  10.631  20.435  0.00  0.00    +0.000 N 
ATOM     28  C   UNL     1      -7.842   9.810  21.461  0.00  0.00    +0.000 C 
ATOM     29  C   UNL     1      -7.547   8.390  21.008  0.00  0.00    +0.000 C 
ATOM     30  C   UNL     1      -7.628   8.495  19.490  0.00  0.00    +0.000 C 
ATOM     31  C   UNL     1      -7.080   9.885  19.194  0.00  0.00    +0.000 C 
ENDBRANCH  24  26
ENDBRANCH   1  24
TORSDOF 2
ENDMDL
MODEL 9
REMARK VINA RESULT:      -7.0      2.648      6.299
REMARK  Name = 
REMARK  2 active torsions:
REMARK  status: ('A' for Active; 'I' for Inactive)
REMARK    1  A    between atoms: C_2  and  C_3
REMARK    2  A    between atoms: C_3  and  N_4
REMARK                            x       y       z     vdW  Elec       q    Type
REMARK                         _______ _______ _______ _____ _____    ______ ____
ROOT
ATOM      1  N   UNL     1      -4.401  12.926  19.766  0.00  0.00    +0.000 N 
ATOM      2  C   UNL     1      -3.947  11.909  18.944  0.00  0.00    +0.000 A 
ATOM      3  C   UNL     1      -4.633  11.023  18.094  0.00  0.00    +0.000 A 
ATOM      4  C   UNL     1      -3.888  10.073  17.388  0.00  0.00    +0.000 A 
ATOM      5  C   UNL     1      -2.514   9.964  17.561  0.00  0.00    +0.000 A 
ATOM      6  C   UNL     1      -1.851  10.826  18.434  0.00  0.00    +0.000 A 
ATOM      7  C   UNL     1      -2.558  11.853  19.093  0.00  0.00    +0.000 A 
ATOM      8  C   UNL     1      -2.175  12.937  19.950  0.00  0.00    +0.000 A 
ATOM      9  C   UNL     1      -0.963  13.454  20.442  0.00  0.00    +0.000 A 
ATOM     10  N   UNL     1       0.268  12.933  20.054  0.00  0.00    +0.000 N 
ATOM     11  C   UNL     1       1.424  13.138  20.934  0.00  0.00    +0.000 C 
ATOM     12  C   UNL     1       2.581  13.472  19.991  0.00  0.00    +0.000 C 
ATOM     13  C   UNL     1       2.150  12.867  18.668  0.00  0.00    +0.000 C 
ATOM     14  C   UNL     1       0.655  13.162  18.660  0.00  0.00    +0.000 C 
ATOM     15  N   UNL     1      -1.049  14.465  21.353  0.00  0.00    +0.000 NA
ATOM     16  C   UNL     1      -2.241  14.974  21.736  0.00  0.00    +0.000 A 
ATOM     17  N   UNL     1      -2.241  15.960  22.685  0.00  0.00    +0.000 N 
ATOM     18  C   UNL     1      -1.033  16.489  23.273  0.00  0.00    +0.000 C 
ATOM     19  C   UNL     1      -1.536  17.058  24.597  0.00  0.00    +0.000 C 
ATOM     20  C   UNL     1      -2.932  17.568  24.262  0.00  0.00    +0.000 C 
ATOM     21  C   UNL     1      -3.434  16.630  23.153  0.00  0.00    +0.000 C 
ATOM     22  N   UNL     1      -3.425  14.555  21.264  0.00  0.00    +0.000 NA
ATOM     23  C   UNL     1      -3.341  13.546  20.380  0.00  0.00    +0.000 A 
ENDROOT
BRANCH   1  24
ATOM     24  C   UNL     1      -5.797  13.202  20.060  0.00  0.00    +0.000 C 
BRANCH  24  26
ATOM     25  O   UNL     1      -6.487  11.266  21.296  0.00  0.00    +0.000 OA
ATOM     26  C   UNL     1      -6.298  12.486  21.301  0.00  0.00    +0.000 C 
ATOM     27  N   UNL     1      -6.460  13.234  22.453  0.00  0.00    +0.000 N 
ATOM     28  C   UNL     1      -6.850  12.624  23.712  0.00  0.00    +0.000 C 
ATOM     29  C   UNL     1      -7.775  13.655  24.336  0.00  0.00    +0.000 C 
ATOM     30  C   UNL     1      -7.153  14.976  23.903  0.00  0.00    +0.000 C 
ATOM     31  C   UNL     1      -6.608  14.680  22.511  0.00  0.00    +0.000 C 
ENDBRANCH  24  26
ENDBRANCH   1  24
TORSDOF 2
ENDMDL
