MODEL 1
REMARK VINA RESULT:      -9.3      0.000      0.000
REMARK  Name = 
REMARK  9 active torsions:
REMARK  status: ('A' for Active; 'I' for Inactive)
REMARK    1  A    between atoms: C_2  and  C_15
REMARK    2  A    between atoms: N_3  and  C_4
REMARK    3  A    between atoms: C_4  and  C_5
REMARK    4  A    between atoms: C_5  and  C_6
REMARK    5  A    between atoms: C_17  and  N_18
REMARK    6  A    between atoms: N_18  and  C_19
REMARK    7  A    between atoms: C_19  and  C_20
REMARK    8  A    between atoms: N_27  and  C_28
REMARK    9  A    between atoms: C_28  and  C_29
REMARK                            x       y       z     vdW  Elec       q    Type
REMARK                         _______ _______ _______ _____ _____    ______ ____
ROOT
ATOM      1  C   UNL     1       5.377   5.620  17.626  0.00  0.00    +0.000 C 
ATOM      2  C   UNL     1       4.854   4.796  16.464  0.00  0.00    +0.000 C 
ATOM      3  C   UNL     1       3.550   4.220  17.015  0.00  0.00    +0.000 C 
ATOM      4  C   UNL     1       3.123   5.262  18.078  0.00  0.00    +0.000 C 
ATOM      5  N   UNL     1       4.175   6.314  18.177  0.00  0.00    +0.000 NA
ENDROOT
BRANCH   1   7
ATOM      6  O   UNL     1       7.252   6.314  16.264  0.00  0.00    +0.000 OA
ATOM      7  C   UNL     1       6.605   6.468  17.298  0.00  0.00    +0.000 C 
ATOM      8  N   UNL     1       7.020   7.314  18.305  0.00  0.00    +0.000 N 
ATOM      9  H   UNL     1       6.451   7.358  19.145  0.00  0.00    +0.000 HD
BRANCH   8  10
ATOM     10  C   UNL     1       8.276   8.043  18.231  0.00  0.00    +0.000 C 
BRANCH  10  11
ATOM     11  C   UNL     1       8.103   9.505  17.799  0.00  0.00    +0.000 C 
BRANCH  11  12
ATOM     12  C   UNL     1       9.130  10.416  18.436  0.00  0.00    +0.000 A 
ATOM     13  C   UNL     1       9.283  10.445  19.840  0.00  0.00    +0.000 A 
ATOM     14  C   UNL     1      10.223  11.286  20.449  0.00  0.00    +0.000 A 
ATOM     15  C   UNL     1      10.983  12.095  19.632  0.00  0.00    +0.000 A 
ATOM     16  C   UNL     1      10.838  12.078  18.267  0.00  0.00    +0.000 A 
ATOM     17  C   UNL     1       9.928  11.253  17.639  0.00  0.00    +0.000 A 
ATOM     18  O   UNL     1      11.676  12.953  17.645  0.00  0.00    +0.000 OA
ATOM     19  C   UNL     1      12.333  13.550  18.782  0.00  0.00    +0.000 C 
ATOM     20  O   UNL     1      11.928  12.983  20.044  0.00  0.00    +0.000 OA
ENDBRANCH  11  12
ENDBRANCH  10  11
ENDBRANCH   8  10
ENDBRANCH   1   7
BRANCH   3  21
ATOM     21  N   UNL     1       3.793   2.878  17.570  0.00  0.00    +0.000 NA
ATOM     22  H   UNL     1       4.534   2.414  17.046  0.00  0.00    +0.000 HD
BRANCH  21  23
ATOM     23  C   UNL     1       4.138   2.889  18.994  0.00  0.00    +0.000 C 
BRANCH  23  24
ATOM     24  C   UNL     1       3.169   2.002  19.814  0.00  0.00    +0.000 C 
ATOM     25  C   UNL     1       2.950   2.578  21.225  0.00  0.00    +0.000 C 
ATOM     26  C   UNL     1       2.076   3.830  21.229  0.00  0.00    +0.000 C 
ATOM     27  C   UNL     1       0.741   3.586  20.532  0.00  0.00    +0.000 C 
ATOM     28  C   UNL     1       0.918   3.011  19.130  0.00  0.00    +0.000 C 
ATOM     29  C   UNL     1       1.808   1.770  19.132  0.00  0.00    +0.000 C 
ENDBRANCH  23  24
ENDBRANCH  21  23
ENDBRANCH   3  21
BRANCH   5  30
ATOM     30  C   UNL     1       3.745   7.539  17.467  0.00  0.00    +0.000 C 
BRANCH  30  31
ATOM     31  C   UNL     1       2.558   8.189  18.170  0.00  0.00    +0.000 A 
ATOM     32  C   UNL     1       1.720   9.086  17.482  0.00  0.00    +0.000 A 
ATOM     33  C   UNL     1       0.736   9.809  18.153  0.00  0.00    +0.000 A 
ATOM     34  C   UNL     1       0.553   9.626  19.524  0.00  0.00    +0.000 A 
ATOM     35  C   UNL     1       1.334   8.699  20.206  0.00  0.00    +0.000 A 
ATOM     36 CL   UNL     1       1.092   8.462  21.895  0.00  0.00    +0.000 Cl
ATOM     37  C   UNL     1       2.332   7.977  19.545  0.00  0.00    +0.000 A 
ENDBRANCH  30  31
ENDBRANCH   5  30
TORSDOF 9
ENDMDL
MODEL 2
REMARK VINA RESULT:      -9.2      3.132      4.895
REMARK  Name = 
REMARK  9 active torsions:
REMARK  status: ('A' for Active; 'I' for Inactive)
REMARK    1  A    between atoms: C_2  and  C_15
REMARK    2  A    between atoms: N_3  and  C_4
REMARK    3  A    between atoms: C_4  and  C_5
REMARK    4  A    between atoms: C_5  and  C_6
REMARK    5  A    between atoms: C_17  and  N_18
REMARK    6  A    between atoms: N_18  and  C_19
REMARK    7  A    between atoms: C_19  and  C_20
REMARK    8  A    between atoms: N_27  and  C_28
REMARK    9  A    between atoms: C_28  and  C_29
REMARK                            x       y       z     vdW  Elec       q    Type
REMARK                         _______ _______ _______ _____ _____    ______ ____
ROOT
ATOM      1  C   UNL     1       5.971   6.217  17.761  0.00  0.00    +0.000 C 
ATOM      2  C   UNL     1       5.597   5.180  18.804  0.00  0.00    +0.000 C 
ATOM      3  C   UNL     1       4.399   4.477  18.170  0.00  0.00    +0.000 C 
ATOM      4  C   UNL     1       4.637   4.667  16.652  0.00  0.00    +0.000 C 
ATOM      5  N   UNL     1       5.854   5.507  16.453  0.00  0.00    +0.000 NA
ENDROOT
BRANCH   1   7
ATOM      6  O   UNL     1       8.102   6.553  18.856  0.00  0.00    +0.000 OA
ATOM      7  C   UNL     1       7.270   6.968  18.053  0.00  0.00    +0.000 C 
ATOM      8  N   UNL     1       7.374   8.210  17.463  0.00  0.00    +0.000 N 
ATOM      9  H   UNL     1       6.627   8.498  16.839  0.00  0.00    +0.000 HD
BRANCH   8  10
ATOM     10  C   UNL     1       8.450   9.132  17.790  0.00  0.00    +0.000 C 
BRANCH  10  11
ATOM     11  C   UNL     1       7.988  10.590  17.901  0.00  0.00    +0.000 C 
BRANCH  11  12
ATOM     12  C   UNL     1       9.150  11.554  17.997  0.00  0.00    +0.000 A 
ATOM     13  C   UNL     1      10.477  11.084  17.878  0.00  0.00    +0.000 A 
ATOM     14  C   UNL     1      11.566  11.960  17.970  0.00  0.00    +0.000 A 
ATOM     15  C   UNL     1      11.299  13.294  18.195  0.00  0.00    +0.000 A 
ATOM     16  C   UNL     1      10.013  13.759  18.316  0.00  0.00    +0.000 A 
ATOM     17  C   UNL     1       8.921  12.922  18.220  0.00  0.00    +0.000 A 
ATOM     18  O   UNL     1       9.967  15.101  18.540  0.00  0.00    +0.000 OA
ATOM     19  C   UNL     1      11.374  15.416  18.586  0.00  0.00    +0.000 C 
ATOM     20  O   UNL     1      12.225  14.282  18.327  0.00  0.00    +0.000 OA
ENDBRANCH  11  12
ENDBRANCH  10  11
ENDBRANCH   8  10
ENDBRANCH   1   7
BRANCH   3  21
ATOM     21  N   UNL     1       3.149   5.089  18.651  0.00  0.00    +0.000 NA
ATOM     22  H   UNL     1       3.180   6.099  18.510  0.00  0.00    +0.000 HD
BRANCH  21  23
ATOM     23  C   UNL     1       1.948   4.545  18.011  0.00  0.00    +0.000 C 
BRANCH  23  24
ATOM     24  C   UNL     1       0.979   3.940  19.057  0.00  0.00    +0.000 C 
ATOM     25  C   UNL     1       1.174   2.418  19.177  0.00  0.00    +0.000 C 
ATOM     26  C   UNL     1       2.462   2.036  19.902  0.00  0.00    +0.000 C 
ATOM     27  C   UNL     1       2.556   2.702  21.272  0.00  0.00    +0.000 C 
ATOM     28  C   UNL     1       2.365   4.213  21.192  0.00  0.00    +0.000 C 
ATOM     29  C   UNL     1       1.083   4.588  20.450  0.00  0.00    +0.000 C 
ENDBRANCH  23  24
ENDBRANCH  21  23
ENDBRANCH   3  21
BRANCH   5  30
ATOM     30  C   UNL     1       7.003   4.661  16.063  0.00  0.00    +0.000 C 
BRANCH  30  31
ATOM     31  C   UNL     1       7.090   4.524  14.546  0.00  0.00    +0.000 A 
ATOM     32  C   UNL     1       7.918   5.379  13.796  0.00  0.00    +0.000 A 
ATOM     33  C   UNL     1       7.883   5.373  12.403  0.00  0.00    +0.000 A 
ATOM     34  C   UNL     1       7.036   4.490  11.733  0.00  0.00    +0.000 A 
ATOM     35  C   UNL     1       6.256   3.597  12.461  0.00  0.00    +0.000 A 
ATOM     36 CL   UNL     1       5.226   2.495  11.630  0.00  0.00    +0.000 Cl
ATOM     37  C   UNL     1       6.275   3.603  13.859  0.00  0.00    +0.000 A 
ENDBRANCH  30  31
ENDBRANCH   5  30
TORSDOF 9
ENDMDL
MODEL 3
REMARK VINA RESULT:      -9.2      5.006      7.581
REMARK  Name = 
REMARK  9 active torsions:
REMARK  status: ('A' for Active; 'I' for Inactive)
REMARK    1  A    between atoms: C_2  and  C_15
REMARK    2  A    between atoms: N_3  and  C_4
REMARK    3  A    between atoms: C_4  and  C_5
REMARK    4  A    between atoms: C_5  and  C_6
REMARK    5  A    between atoms: C_17  and  N_18
REMARK    6  A    between atoms: N_18  and  C_19
REMARK    7  A    between atoms: C_19  and  C_20
REMARK    8  A    between atoms: N_27  and  C_28
REMARK    9  A    between atoms: C_28  and  C_29
REMARK                            x       y       z     vdW  Elec       q    Type
REMARK                         _______ _______ _______ _____ _____    ______ ____
ROOT
ATOM      1  C   UNL     1       4.251   5.267  17.430  0.00  0.00    +0.000 C 
ATOM      2  C   UNL     1       4.949   4.650  18.628  0.00  0.00    +0.000 C 
ATOM      3  C   UNL     1       5.090   3.184  18.221  0.00  0.00    +0.000 C 
ATOM      4  C   UNL     1       5.120   3.245  16.674  0.00  0.00    +0.000 C 
ATOM      5  N   UNL     1       4.917   4.658  16.240  0.00  0.00    +0.000 NA
ENDROOT
BRANCH   1   7
ATOM      6  O   UNL     1       5.116   7.526  17.445  0.00  0.00    +0.000 OA
ATOM      7  C   UNL     1       4.133   6.790  17.482  0.00  0.00    +0.000 C 
ATOM      8  N   UNL     1       2.862   7.271  17.719  0.00  0.00    +0.000 N 
ATOM      9  H   UNL     1       2.106   6.595  17.773  0.00  0.00    +0.000 HD
BRANCH   8  10
ATOM     10  C   UNL     1       2.608   8.677  17.989  0.00  0.00    +0.000 C 
BRANCH  10  11
ATOM     11  C   UNL     1       1.119   9.003  18.156  0.00  0.00    +0.000 C 
BRANCH  11  12
ATOM     12  C   UNL     1       0.766   9.360  19.584  0.00  0.00    +0.000 A 
ATOM     13  C   UNL     1       1.331   8.639  20.659  0.00  0.00    +0.000 A 
ATOM     14  C   UNL     1       1.013   8.951  21.987  0.00  0.00    +0.000 A 
ATOM     15  C   UNL     1       0.118   9.975  22.208  0.00  0.00    +0.000 A 
ATOM     16  C   UNL     1      -0.441  10.679  21.169  0.00  0.00    +0.000 A 
ATOM     17  C   UNL     1      -0.137  10.401  19.852  0.00  0.00    +0.000 A 
ATOM     18  O   UNL     1      -1.300  11.643  21.599  0.00  0.00    +0.000 OA
ATOM     19  C   UNL     1      -1.248  11.434  23.025  0.00  0.00    +0.000 C 
ATOM     20  O   UNL     1      -0.319  10.405  23.422  0.00  0.00    +0.000 OA
ENDBRANCH  11  12
ENDBRANCH  10  11
ENDBRANCH   8  10
ENDBRANCH   1   7
BRANCH   3  21
ATOM     21  N   UNL     1       3.960   2.406  18.758  0.00  0.00    +0.000 NA
ATOM     22  H   UNL     1       4.020   1.440  18.435  0.00  0.00    +0.000 HD
BRANCH  21  23
ATOM     23  C   UNL     1       3.880   2.426  20.221  0.00  0.00    +0.000 C 
BRANCH  23  24
ATOM     24  C   UNL     1       2.408   2.417  20.703  0.00  0.00    +0.000 C 
ATOM     25  C   UNL     1       2.149   3.551  21.711  0.00  0.00    +0.000 C 
ATOM     26  C   UNL     1       2.102   4.931  21.058  0.00  0.00    +0.000 C 
ATOM     27  C   UNL     1       1.090   4.980  19.918  0.00  0.00    +0.000 C 
ATOM     28  C   UNL     1       1.315   3.867  18.899  0.00  0.00    +0.000 C 
ATOM     29  C   UNL     1       1.378   2.492  19.561  0.00  0.00    +0.000 C 
ENDBRANCH  23  24
ENDBRANCH  21  23
ENDBRANCH   3  21
BRANCH   5  30
ATOM     30  C   UNL     1       6.206   5.260  15.834  0.00  0.00    +0.000 C 
BRANCH  30  31
ATOM     31  C   UNL     1       6.599   4.812  14.429  0.00  0.00    +0.000 A 
ATOM     32  C   UNL     1       7.665   5.430  13.752  0.00  0.00    +0.000 A 
ATOM     33  C   UNL     1       7.928   5.145  12.413  0.00  0.00    +0.000 A 
ATOM     34  C   UNL     1       7.143   4.212  11.735  0.00  0.00    +0.000 A 
ATOM     35  C   UNL     1       6.123   3.549  12.409  0.00  0.00    +0.000 A 
ATOM     36 CL   UNL     1       5.168   2.385  11.573  0.00  0.00    +0.000 Cl
ATOM     37  C   UNL     1       5.843   3.837  13.748  0.00  0.00    +0.000 A 
ENDBRANCH  30  31
ENDBRANCH   5  30
TORSDOF 9
ENDMDL
MODEL 4
REMARK VINA RESULT:      -9.0      0.866      1.180
REMARK  Name = 
REMARK  9 active torsions:
REMARK  status: ('A' for Active; 'I' for Inactive)
REMARK    1  A    between atoms: C_2  and  C_15
REMARK    2  A    between atoms: N_3  and  C_4
REMARK    3  A    between atoms: C_4  and  C_5
REMARK    4  A    between atoms: C_5  and  C_6
REMARK    5  A    between atoms: C_17  and  N_18
REMARK    6  A    between atoms: N_18  and  C_19
REMARK    7  A    between atoms: C_19  and  C_20
REMARK    8  A    between atoms: N_27  and  C_28
REMARK    9  A    between atoms: C_28  and  C_29
REMARK                            x       y       z     vdW  Elec       q    Type
REMARK                         _______ _______ _______ _____ _____    ______ ____
ROOT
ATOM      1  C   UNL     1       5.284   5.779  17.638  0.00  0.00    +0.000 C 
ATOM      2  C   UNL     1       4.793   4.864  16.531  0.00  0.00    +0.000 C 
ATOM      3  C   UNL     1       3.618   4.140  17.185  0.00  0.00    +0.000 C 
ATOM      4  C   UNL     1       3.133   5.144  18.259  0.00  0.00    +0.000 C 
ATOM      5  N   UNL     1       4.044   6.326  18.263  0.00  0.00    +0.000 NA
ENDROOT
BRANCH   1   7
ATOM      6  O   UNL     1       6.645   6.963  16.025  0.00  0.00    +0.000 OA
ATOM      7  C   UNL     1       6.365   6.770  17.206  0.00  0.00    +0.000 C 
ATOM      8  N   UNL     1       7.099   7.321  18.235  0.00  0.00    +0.000 N 
ATOM      9  H   UNL     1       6.828   7.084  19.185  0.00  0.00    +0.000 HD
BRANCH   8  10
ATOM     10  C   UNL     1       8.283   8.128  17.992  0.00  0.00    +0.000 C 
BRANCH  10  11
ATOM     11  C   UNL     1       7.977   9.623  17.836  0.00  0.00    +0.000 C 
BRANCH  11  12
ATOM     12  C   UNL     1       9.049  10.495  18.455  0.00  0.00    +0.000 A 
ATOM     13  C   UNL     1       9.257  10.483  19.852  0.00  0.00    +0.000 A 
ATOM     14  C   UNL     1      10.239  11.288  20.444  0.00  0.00    +0.000 A 
ATOM     15  C   UNL     1      10.984  12.102  19.619  0.00  0.00    +0.000 A 
ATOM     16  C   UNL     1      10.785  12.124  18.260  0.00  0.00    +0.000 A 
ATOM     17  C   UNL     1       9.833  11.335  17.648  0.00  0.00    +0.000 A 
ATOM     18  O   UNL     1      11.618  12.997  17.628  0.00  0.00    +0.000 OA
ATOM     19  C   UNL     1      12.332  13.549  18.753  0.00  0.00    +0.000 C 
ATOM     20  O   UNL     1      11.965  12.958  20.015  0.00  0.00    +0.000 OA
ENDBRANCH  11  12
ENDBRANCH  10  11
ENDBRANCH   8  10
ENDBRANCH   1   7
BRANCH   3  21
ATOM     21  N   UNL     1       4.072   2.855  17.743  0.00  0.00    +0.000 NA
ATOM     22  H   UNL     1       4.953   2.580  17.309  0.00  0.00    +0.000 HD
BRANCH  21  23
ATOM     23  C   UNL     1       4.232   2.874  19.199  0.00  0.00    +0.000 C 
BRANCH  23  24
ATOM     24  C   UNL     1       3.237   1.907  19.887  0.00  0.00    +0.000 C 
ATOM     25  C   UNL     1       2.947   2.348  21.333  0.00  0.00    +0.000 C 
ATOM     26  C   UNL     1       2.057   3.587  21.412  0.00  0.00    +0.000 C 
ATOM     27  C   UNL     1       0.759   3.398  20.634  0.00  0.00    +0.000 C 
ATOM     28  C   UNL     1       1.008   2.957  19.194  0.00  0.00    +0.000 C 
ATOM     29  C   UNL     1       1.913   1.729  19.123  0.00  0.00    +0.000 C 
ENDBRANCH  23  24
ENDBRANCH  21  23
ENDBRANCH   3  21
BRANCH   5  30
ATOM     30  C   UNL     1       3.408   7.466  17.567  0.00  0.00    +0.000 C 
BRANCH  30  31
ATOM     31  C   UNL     1       2.465   8.219  18.500  0.00  0.00    +0.000 A 
ATOM     32  C   UNL     1       2.202   7.737  19.795  0.00  0.00    +0.000 A 
ATOM     33  C   UNL     1       1.221   8.323  20.594  0.00  0.00    +0.000 A 
ATOM     34  C   UNL     1       0.504   9.421  20.120  0.00  0.00    +0.000 A 
ATOM     35  C   UNL     1       0.794   9.945  18.865  0.00  0.00    +0.000 A 
ATOM     36 CL   UNL     1      -0.081  11.313  18.292  0.00  0.00    +0.000 Cl
ATOM     37  C   UNL     1       1.768   9.359  18.051  0.00  0.00    +0.000 A 
ENDBRANCH  30  31
ENDBRANCH   5  30
TORSDOF 9
ENDMDL
MODEL 5
REMARK VINA RESULT:      -8.8      3.073      4.776
REMARK  Name = 
REMARK  9 active torsions:
REMARK  status: ('A' for Active; 'I' for Inactive)
REMARK    1  A    between atoms: C_2  and  C_15
REMARK    2  A    between atoms: N_3  and  C_4
REMARK    3  A    between atoms: C_4  and  C_5
REMARK    4  A    between atoms: C_5  and  C_6
REMARK    5  A    between atoms: C_17  and  N_18
REMARK    6  A    between atoms: N_18  and  C_19
REMARK    7  A    between atoms: C_19  and  C_20
REMARK    8  A    between atoms: N_27  and  C_28
REMARK    9  A    between atoms: C_28  and  C_29
REMARK                            x       y       z     vdW  Elec       q    Type
REMARK                         _______ _______ _______ _____ _____    ______ ____
ROOT
ATOM      1  C   UNL     1       6.142   6.518  17.469  0.00  0.00    +0.000 C 
ATOM      2  C   UNL     1       5.678   5.488  18.483  0.00  0.00    +0.000 C 
ATOM      3  C   UNL     1       4.468   4.857  17.797  0.00  0.00    +0.000 C 
ATOM      4  C   UNL     1       4.770   5.055  16.291  0.00  0.00    +0.000 C 
ATOM      5  N   UNL     1       6.035   5.832  16.147  0.00  0.00    +0.000 NA
ENDROOT
BRANCH   1   7
ATOM      6  O   UNL     1       8.192   6.795  18.725  0.00  0.00    +0.000 OA
ATOM      7  C   UNL     1       7.467   7.197  17.817  0.00  0.00    +0.000 C 
ATOM      8  N   UNL     1       7.718   8.372  17.141  0.00  0.00    +0.000 N 
ATOM      9  H   UNL     1       7.053   8.657  16.430  0.00  0.00    +0.000 HD
BRANCH   8  10
ATOM     10  C   UNL     1       8.833   9.239  17.490  0.00  0.00    +0.000 C 
BRANCH  10  11
ATOM     11  C   UNL     1       8.664   9.926  18.851  0.00  0.00    +0.000 C 
BRANCH  11  12
ATOM     12  C   UNL     1       9.636  11.072  19.038  0.00  0.00    +0.000 A 
ATOM     13  C   UNL     1      10.027  11.468  20.336  0.00  0.00    +0.000 A 
ATOM     14  C   UNL     1      10.921  12.529  20.531  0.00  0.00    +0.000 A 
ATOM     15  C   UNL     1      11.392  13.183  19.413  0.00  0.00    +0.000 A 
ATOM     16  C   UNL     1      11.013  12.809  18.147  0.00  0.00    +0.000 A 
ATOM     17  C   UNL     1      10.143  11.761  17.925  0.00  0.00    +0.000 A 
ATOM     18  O   UNL     1      11.584  13.583  17.184  0.00  0.00    +0.000 OA
ATOM     19  C   UNL     1      12.333  14.512  17.995  0.00  0.00    +0.000 C 
ATOM     20  O   UNL     1      12.248  14.240  19.409  0.00  0.00    +0.000 OA
ENDBRANCH  11  12
ENDBRANCH  10  11
ENDBRANCH   8  10
ENDBRANCH   1   7
BRANCH   3  21
ATOM     21  N   UNL     1       3.236   5.527  18.243  0.00  0.00    +0.000 NA
ATOM     22  H   UNL     1       3.115   6.405  17.739  0.00  0.00    +0.000 HD
BRANCH  21  23
ATOM     23  C   UNL     1       2.033   4.705  18.082  0.00  0.00    +0.000 C 
BRANCH  23  24
ATOM     24  C   UNL     1       2.283   3.246  18.537  0.00  0.00    +0.000 C 
ATOM     25  C   UNL     1       3.190   3.203  19.781  0.00  0.00    +0.000 C 
ATOM     26  C   UNL     1       2.478   3.656  21.054  0.00  0.00    +0.000 C 
ATOM     27  C   UNL     1       1.195   2.867  21.293  0.00  0.00    +0.000 C 
ATOM     28  C   UNL     1       0.272   2.885  20.079  0.00  0.00    +0.000 C 
ATOM     29  C   UNL     1       0.995   2.448  18.806  0.00  0.00    +0.000 C 
ENDBRANCH  23  24
ENDBRANCH  21  23
ENDBRANCH   3  21
BRANCH   5  30
ATOM     30  C   UNL     1       7.152   4.933  15.784  0.00  0.00    +0.000 C 
BRANCH  30  31
ATOM     31  C   UNL     1       7.192   4.692  14.279  0.00  0.00    +0.000 A 
ATOM     32  C   UNL     1       7.984   5.501  13.444  0.00  0.00    +0.000 A 
ATOM     33  C   UNL     1       7.903   5.397  12.056  0.00  0.00    +0.000 A 
ATOM     34  C   UNL     1       7.047   4.460  11.478  0.00  0.00    +0.000 A 
ATOM     35  C   UNL     1       6.302   3.612  12.292  0.00  0.00    +0.000 A 
ATOM     36 CL   UNL     1       5.260   2.444  11.574  0.00  0.00    +0.000 Cl
ATOM     37  C   UNL     1       6.366   3.716  13.685  0.00  0.00    +0.000 A 
ENDBRANCH  30  31
ENDBRANCH   5  30
TORSDOF 9
ENDMDL
MODEL 6
REMARK VINA RESULT:      -8.7      5.251      9.634
REMARK  Name = 
REMARK  9 active torsions:
REMARK  status: ('A' for Active; 'I' for Inactive)
REMARK    1  A    between atoms: C_2  and  C_15
REMARK    2  A    between atoms: N_3  and  C_4
REMARK    3  A    between atoms: C_4  and  C_5
REMARK    4  A    between atoms: C_5  and  C_6
REMARK    5  A    between atoms: C_17  and  N_18
REMARK    6  A    between atoms: N_18  and  C_19
REMARK    7  A    between atoms: C_19  and  C_20
REMARK    8  A    between atoms: N_27  and  C_28
REMARK    9  A    between atoms: C_28  and  C_29
REMARK                            x       y       z     vdW  Elec       q    Type
REMARK                         _______ _______ _______ _____ _____    ______ ____
ROOT
ATOM      1  C   UNL     1       1.126  11.096  19.242  0.00  0.00    +0.000 C 
ATOM      2  C   UNL     1       1.338  11.680  20.626  0.00  0.00    +0.000 C 
ATOM      3  C   UNL     1       0.965  13.150  20.436  0.00  0.00    +0.000 C 
ATOM      4  C   UNL     1      -0.036  13.112  19.255  0.00  0.00    +0.000 C 
ATOM      5  N   UNL     1      -0.145  11.711  18.756  0.00  0.00    +0.000 NA
ENDROOT
BRANCH   1   7
ATOM      6  O   UNL     1       1.110   8.856  20.155  0.00  0.00    +0.000 OA
ATOM      7  C   UNL     1       1.258   9.575  19.170  0.00  0.00    +0.000 C 
ATOM      8  N   UNL     1       1.697   9.082  17.959  0.00  0.00    +0.000 N 
ATOM      9  H   UNL     1       1.831   9.745  17.202  0.00  0.00    +0.000 HD
BRANCH   8  10
ATOM     10  C   UNL     1       2.059   7.685  17.781  0.00  0.00    +0.000 C 
BRANCH  10  11
ATOM     11  C   UNL     1       3.492   7.369  18.227  0.00  0.00    +0.000 C 
BRANCH  11  12
ATOM     12  C   UNL     1       4.132   6.290  17.379  0.00  0.00    +0.000 A 
ATOM     13  C   UNL     1       3.820   4.931  17.603  0.00  0.00    +0.000 A 
ATOM     14  C   UNL     1       4.407   3.918  16.832  0.00  0.00    +0.000 A 
ATOM     15  C   UNL     1       5.309   4.293  15.860  0.00  0.00    +0.000 A 
ATOM     16  C   UNL     1       5.622   5.612  15.639  0.00  0.00    +0.000 A 
ATOM     17  C   UNL     1       5.052   6.630  16.375  0.00  0.00    +0.000 A 
ATOM     18  O   UNL     1       6.535   5.768  14.641  0.00  0.00    +0.000 OA
ATOM     19  C   UNL     1       6.789   4.392  14.291  0.00  0.00    +0.000 C 
ATOM     20  O   UNL     1       5.985   3.452  15.031  0.00  0.00    +0.000 OA
ENDBRANCH  11  12
ENDBRANCH  10  11
ENDBRANCH   8  10
ENDBRANCH   1   7
BRANCH   3  21
ATOM     21  N   UNL     1       2.175  13.941  20.158  0.00  0.00    +0.000 NA
ATOM     22  H   UNL     1       2.982  13.322  20.072  0.00  0.00    +0.000 HD
BRANCH  21  23
ATOM     23  C   UNL     1       2.067  14.770  18.955  0.00  0.00    +0.000 C 
BRANCH  23  24
ATOM     24  C   UNL     1       2.389  16.253  19.264  0.00  0.00    +0.000 C 
ATOM     25  C   UNL     1       3.364  16.836  18.225  0.00  0.00    +0.000 C 
ATOM     26  C   UNL     1       2.709  17.086  16.868  0.00  0.00    +0.000 C 
ATOM     27  C   UNL     1       1.467  17.963  16.995  0.00  0.00    +0.000 C 
ATOM     28  C   UNL     1       0.478  17.417  18.021  0.00  0.00    +0.000 C 
ATOM     29  C   UNL     1       1.144  17.152  19.370  0.00  0.00    +0.000 C 
ENDBRANCH  23  24
ENDBRANCH  21  23
ENDBRANCH   3  21
BRANCH   5  30
ATOM     30  C   UNL     1      -1.398  11.090  19.239  0.00  0.00    +0.000 C 
BRANCH  30  31
ATOM     31  C   UNL     1      -2.392  10.906  18.097  0.00  0.00    +0.000 A 
ATOM     32  C   UNL     1      -2.069  10.104  16.988  0.00  0.00    +0.000 A 
ATOM     33  C   UNL     1      -2.898  10.060  15.868  0.00  0.00    +0.000 A 
ATOM     34  C   UNL     1      -4.082  10.797  15.850  0.00  0.00    +0.000 A 
ATOM     35  C   UNL     1      -4.444  11.547  16.964  0.00  0.00    +0.000 A 
ATOM     36 CL   UNL     1      -5.916  12.440  16.946  0.00  0.00    +0.000 Cl
ATOM     37  C   UNL     1      -3.614  11.608  18.088  0.00  0.00    +0.000 A 
ENDBRANCH  30  31
ENDBRANCH   5  30
TORSDOF 9
ENDMDL
MODEL 7
REMARK VINA RESULT:      -8.7      5.149      7.766
REMARK  Name = 
REMARK  9 active torsions:
REMARK  status: ('A' for Active; 'I' for Inactive)
REMARK    1  A    between atoms: C_2  and  C_15
REMARK    2  A    between atoms: N_3  and  C_4
REMARK    3  A    between atoms: C_4  and  C_5
REMARK    4  A    between atoms: C_5  and  C_6
REMARK    5  A    between atoms: C_17  and  N_18
REMARK    6  A    between atoms: N_18  and  C_19
REMARK    7  A    between atoms: C_19  and  C_20
REMARK    8  A    between atoms: N_27  and  C_28
REMARK    9  A    between atoms: C_28  and  C_29
REMARK                            x       y       z     vdW  Elec       q    Type
REMARK                         _______ _______ _______ _____ _____    ______ ____
ROOT
ATOM      1  C   UNL     1       3.969   5.193  17.578  0.00  0.00    +0.000 C 
ATOM      2  C   UNL     1       4.922   4.659  18.632  0.00  0.00    +0.000 C 
ATOM      3  C   UNL     1       5.238   3.254  18.123  0.00  0.00    +0.000 C 
ATOM      4  C   UNL     1       5.036   3.376  16.592  0.00  0.00    +0.000 C 
ATOM      5  N   UNL     1       4.548   4.750  16.275  0.00  0.00    +0.000 NA
ENDROOT
BRANCH   1   7
ATOM      6  O   UNL     1       4.437   7.567  17.554  0.00  0.00    +0.000 OA
ATOM      7  C   UNL     1       3.615   6.672  17.737  0.00  0.00    +0.000 C 
ATOM      8  N   UNL     1       2.355   6.922  18.239  0.00  0.00    +0.000 N 
ATOM      9  H   UNL     1       1.746   6.125  18.398  0.00  0.00    +0.000 HD
BRANCH   8  10
ATOM     10  C   UNL     1       1.932   8.256  18.630  0.00  0.00    +0.000 C 
BRANCH  10  11
ATOM     11  C   UNL     1       1.723   8.407  20.142  0.00  0.00    +0.000 C 
BRANCH  11  12
ATOM     12  C   UNL     1       0.726   9.497  20.477  0.00  0.00    +0.000 A 
ATOM     13  C   UNL     1      -0.011  10.127  19.451  0.00  0.00    +0.000 A 
ATOM     14  C   UNL     1      -0.933  11.141  19.741  0.00  0.00    +0.000 A 
ATOM     15  C   UNL     1      -1.084  11.513  21.059  0.00  0.00    +0.000 A 
ATOM     16  C   UNL     1      -0.368  10.909  22.063  0.00  0.00    +0.000 A 
ATOM     17  C   UNL     1       0.539   9.901  21.809  0.00  0.00    +0.000 A 
ATOM     18  O   UNL     1      -0.659  11.424  23.290  0.00  0.00    +0.000 OA
ATOM     19  C   UNL     1      -1.610  12.448  22.933  0.00  0.00    +0.000 C 
ATOM     20  O   UNL     1      -1.916  12.484  21.525  0.00  0.00    +0.000 OA
ENDBRANCH  11  12
ENDBRANCH  10  11
ENDBRANCH   8  10
ENDBRANCH   1   7
BRANCH   3  21
ATOM     21  N   UNL     1       4.338   2.278  18.759  0.00  0.00    +0.000 NA
ATOM     22  H   UNL     1       4.688   1.332  18.608  0.00  0.00    +0.000 HD
BRANCH  21  23
ATOM     23  C   UNL     1       4.153   2.504  20.195  0.00  0.00    +0.000 C 
BRANCH  23  24
ATOM     24  C   UNL     1       2.714   2.145  20.640  0.00  0.00    +0.000 C 
ATOM     25  C   UNL     1       2.209   3.117  21.721  0.00  0.00    +0.000 C 
ATOM     26  C   UNL     1       1.874   4.501  21.170  0.00  0.00    +0.000 C 
ATOM     27  C   UNL     1       0.884   4.422  20.013  0.00  0.00    +0.000 C 
ATOM     28  C   UNL     1       1.350   3.463  18.921  0.00  0.00    +0.000 C 
ATOM     29  C   UNL     1       1.700   2.087  19.482  0.00  0.00    +0.000 C 
ENDBRANCH  23  24
ENDBRANCH  21  23
ENDBRANCH   3  21
BRANCH   5  30
ATOM     30  C   UNL     1       5.651   5.574  15.735  0.00  0.00    +0.000 C 
BRANCH  30  31
ATOM     31  C   UNL     1       6.216   4.962  14.457  0.00  0.00    +0.000 A 
ATOM     32  C   UNL     1       7.469   5.364  13.963  0.00  0.00    +0.000 A 
ATOM     33  C   UNL     1       7.921   4.935  12.716  0.00  0.00    +0.000 A 
ATOM     34  C   UNL     1       7.136   4.072  11.952  0.00  0.00    +0.000 A 
ATOM     35  C   UNL     1       5.921   3.618  12.454  0.00  0.00    +0.000 A 
ATOM     36 CL   UNL     1       4.963   2.537  11.516  0.00  0.00    +0.000 Cl
ATOM     37  C   UNL     1       5.453   4.051  13.699  0.00  0.00    +0.000 A 
ENDBRANCH  30  31
ENDBRANCH   5  30
TORSDOF 9
ENDMDL
MODEL 8
REMARK VINA RESULT:      -8.6      3.129      4.964
REMARK  Name = 
REMARK  9 active torsions:
REMARK  status: ('A' for Active; 'I' for Inactive)
REMARK    1  A    between atoms: C_2  and  C_15
REMARK    2  A    between atoms: N_3  and  C_4
REMARK    3  A    between atoms: C_4  and  C_5
REMARK    4  A    between atoms: C_5  and  C_6
REMARK    5  A    between atoms: C_17  and  N_18
REMARK    6  A    between atoms: N_18  and  C_19
REMARK    7  A    between atoms: C_19  and  C_20
REMARK    8  A    between atoms: N_27  and  C_28
REMARK    9  A    between atoms: C_28  and  C_29
REMARK                            x       y       z     vdW  Elec       q    Type
REMARK                         _______ _______ _______ _____ _____    ______ ____
ROOT
ATOM      1  C   UNL     1       5.492   5.648  17.348  0.00  0.00    +0.000 C 
ATOM      2  C   UNL     1       5.968   4.966  18.618  0.00  0.00    +0.000 C 
ATOM      3  C   UNL     1       5.391   3.558  18.484  0.00  0.00    +0.000 C 
ATOM      4  C   UNL     1       5.272   3.366  16.951  0.00  0.00    +0.000 C 
ATOM      5  N   UNL     1       5.677   4.631  16.271  0.00  0.00    +0.000 NA
ENDROOT
BRANCH   1   7
ATOM      6  O   UNL     1       5.740   7.750  16.176  0.00  0.00    +0.000 OA
ATOM      7  C   UNL     1       6.076   7.043  17.123  0.00  0.00    +0.000 C 
ATOM      8  N   UNL     1       7.107   7.390  17.971  0.00  0.00    +0.000 N 
ATOM      9  H   UNL     1       7.350   6.736  18.707  0.00  0.00    +0.000 HD
BRANCH   8  10
ATOM     10  C   UNL     1       7.897   8.594  17.771  0.00  0.00    +0.000 C 
BRANCH  10  11
ATOM     11  C   UNL     1       8.907   8.851  18.896  0.00  0.00    +0.000 C 
BRANCH  11  12
ATOM     12  C   UNL     1       9.216  10.323  19.064  0.00  0.00    +0.000 A 
ATOM     13  C   UNL     1       9.355  11.156  17.932  0.00  0.00    +0.000 A 
ATOM     14  C   UNL     1       9.647  12.519  18.067  0.00  0.00    +0.000 A 
ATOM     15  C   UNL     1       9.809  13.016  19.343  0.00  0.00    +0.000 A 
ATOM     16  C   UNL     1       9.681  12.213  20.449  0.00  0.00    +0.000 A 
ATOM     17  C   UNL     1       9.383  10.870  20.347  0.00  0.00    +0.000 A 
ATOM     18  O   UNL     1       9.883  12.895  21.610  0.00  0.00    +0.000 OA
ATOM     19  C   UNL     1      10.194  14.208  21.101  0.00  0.00    +0.000 C 
ATOM     20  O   UNL     1      10.109  14.304  19.665  0.00  0.00    +0.000 OA
ENDBRANCH  11  12
ENDBRANCH  10  11
ENDBRANCH   8  10
ENDBRANCH   1   7
BRANCH   3  21
ATOM     21  N   UNL     1       4.100   3.478  19.188  0.00  0.00    +0.000 NA
ATOM     22  H   UNL     1       3.681   4.406  19.251  0.00  0.00    +0.000 HD
BRANCH  21  23
ATOM     23  C   UNL     1       3.149   2.556  18.563  0.00  0.00    +0.000 C 
BRANCH  23  24
ATOM     24  C   UNL     1       1.796   3.254  18.275  0.00  0.00    +0.000 C 
ATOM     25  C   UNL     1       0.766   2.937  19.374  0.00  0.00    +0.000 C 
ATOM     26  C   UNL     1       1.052   3.661  20.688  0.00  0.00    +0.000 C 
ATOM     27  C   UNL     1       1.178   5.168  20.484  0.00  0.00    +0.000 C 
ATOM     28  C   UNL     1       2.191   5.520  19.399  0.00  0.00    +0.000 C 
ATOM     29  C   UNL     1       1.908   4.779  18.094  0.00  0.00    +0.000 C 
ENDBRANCH  23  24
ENDBRANCH  21  23
ENDBRANCH   3  21
BRANCH   5  30
ATOM     30  C   UNL     1       7.044   4.502  15.722  0.00  0.00    +0.000 C 
BRANCH  30  31
ATOM     31  C   UNL     1       7.013   4.398  14.200  0.00  0.00    +0.000 A 
ATOM     32  C   UNL     1       7.866   5.189  13.410  0.00  0.00    +0.000 A 
ATOM     33  C   UNL     1       7.734   5.223  12.022  0.00  0.00    +0.000 A 
ATOM     34  C   UNL     1       6.761   4.442  11.398  0.00  0.00    +0.000 A 
ATOM     35  C   UNL     1       5.951   3.609  12.162  0.00  0.00    +0.000 A 
ATOM     36 CL   UNL     1       4.764   2.632  11.386  0.00  0.00    +0.000 Cl
ATOM     37  C   UNL     1       6.067   3.576  13.555  0.00  0.00    +0.000 A 
ENDBRANCH  30  31
ENDBRANCH   5  30
TORSDOF 9
ENDMDL
MODEL 9
REMARK VINA RESULT:      -8.6      3.122      8.528
REMARK  Name = 
REMARK  9 active torsions:
REMARK  status: ('A' for Active; 'I' for Inactive)
REMARK    1  A    between atoms: C_2  and  C_15
REMARK    2  A    between atoms: N_3  and  C_4
REMARK    3  A    between atoms: C_4  and  C_5
REMARK    4  A    between atoms: C_5  and  C_6
REMARK    5  A    between atoms: C_17  and  N_18
REMARK    6  A    between atoms: N_18  and  C_19
REMARK    7  A    between atoms: C_19  and  C_20
REMARK    8  A    between atoms: N_27  and  C_28
REMARK    9  A    between atoms: C_28  and  C_29
REMARK                            x       y       z     vdW  Elec       q    Type
REMARK                         _______ _______ _______ _____ _____    ______ ____
ROOT
ATOM      1  C   UNL     1       5.743   6.994  18.220  0.00  0.00    +0.000 C 
ATOM      2  C   UNL     1       6.921   7.434  17.371  0.00  0.00    +0.000 C 
ATOM      3  C   UNL     1       8.124   7.018  18.217  0.00  0.00    +0.000 C 
ATOM      4  C   UNL     1       7.580   5.831  19.049  0.00  0.00    +0.000 C 
ATOM      5  N   UNL     1       6.129   5.652  18.749  0.00  0.00    +0.000 NA
ENDROOT
BRANCH   1   7
ATOM      6  O   UNL     1       4.252   7.038  16.315  0.00  0.00    +0.000 OA
ATOM      7  C   UNL     1       4.384   7.128  17.533  0.00  0.00    +0.000 C 
ATOM      8  N   UNL     1       3.344   7.500  18.359  0.00  0.00    +0.000 N 
ATOM      9  H   UNL     1       3.541   7.589  19.351  0.00  0.00    +0.000 HD
BRANCH   8  10
ATOM     10  C   UNL     1       2.035   7.858  17.838  0.00  0.00    +0.000 C 
BRANCH  10  11
ATOM     11  C   UNL     1       1.802   9.372  17.768  0.00  0.00    +0.000 C 
BRANCH  11  12
ATOM     12  C   UNL     1       1.063   9.895  18.981  0.00  0.00    +0.000 A 
ATOM     13  C   UNL     1       0.508  11.194  18.971  0.00  0.00    +0.000 A 
ATOM     14  C   UNL     1      -0.174  11.697  20.086  0.00  0.00    +0.000 A 
ATOM     15  C   UNL     1      -0.272  10.888  21.198  0.00  0.00    +0.000 A 
ATOM     16  C   UNL     1       0.270   9.627  21.219  0.00  0.00    +0.000 A 
ATOM     17  C   UNL     1       0.937   9.100  20.132  0.00  0.00    +0.000 A 
ATOM     18  O   UNL     1       0.069   8.996  22.409  0.00  0.00    +0.000 OA
ATOM     19  C   UNL     1      -0.624  10.025  23.145  0.00  0.00    +0.000 C 
ATOM     20  O   UNL     1      -0.880  11.214  22.371  0.00  0.00    +0.000 OA
ENDBRANCH  11  12
ENDBRANCH  10  11
ENDBRANCH   8  10
ENDBRANCH   1   7
BRANCH   3  21
ATOM     21  N   UNL     1       8.574   8.155  19.037  0.00  0.00    +0.000 NA
ATOM     22  H   UNL     1       9.517   7.981  19.384  0.00  0.00    +0.000 HD
BRANCH  21  23
ATOM     23  C   UNL     1       8.546   9.436  18.326  0.00  0.00    +0.000 C 
BRANCH  23  24
ATOM     24  C   UNL     1       9.804  10.282  18.644  0.00  0.00    +0.000 C 
ATOM     25  C   UNL     1       9.876  11.526  17.740  0.00  0.00    +0.000 C 
ATOM     26  C   UNL     1       8.854  12.597  18.117  0.00  0.00    +0.000 C 
ATOM     27  C   UNL     1       8.966  12.990  19.586  0.00  0.00    +0.000 C 
ATOM     28  C   UNL     1       8.901  11.780  20.513  0.00  0.00    +0.000 C 
ATOM     29  C   UNL     1       9.914  10.706  20.120  0.00  0.00    +0.000 C 
ENDBRANCH  23  24
ENDBRANCH  21  23
ENDBRANCH   3  21
BRANCH   5  30
ATOM     30  C   UNL     1       5.932   4.507  17.833  0.00  0.00    +0.000 C 
BRANCH  30  31
ATOM     31  C   UNL     1       4.640   3.764  18.158  0.00  0.00    +0.000 A 
ATOM     32  C   UNL     1       3.734   3.421  17.138  0.00  0.00    +0.000 A 
ATOM     33  C   UNL     1       2.481   2.891  17.439  0.00  0.00    +0.000 A 
ATOM     34  C   UNL     1       2.122   2.668  18.768  0.00  0.00    +0.000 A 
ATOM     35  C   UNL     1       3.030   2.947  19.784  0.00  0.00    +0.000 A 
ATOM     36 CL   UNL     1       2.590   2.652  21.423  0.00  0.00    +0.000 Cl
ATOM     37  C   UNL     1       4.286   3.490  19.494  0.00  0.00    +0.000 A 
ENDBRANCH  30  31
ENDBRANCH   5  30
TORSDOF 9
ENDMDL
