MODEL 1
REMARK VINA RESULT:      -7.9      0.000      0.000
REMARK  Name = 
REMARK  5 active torsions:
REMARK  status: ('A' for Active; 'I' for Inactive)
REMARK    1  A    between atoms: C_1  and  C_2
REMARK    2  A    between atoms: C_5  and  C_6
REMARK    3  A    between atoms: C_14  and  C_15
REMARK    4  A    between atoms: N_17  and  C_18
REMARK    5  A    between atoms: C_18  and  C_19
REMARK                            x       y       z     vdW  Elec       q    Type
REMARK                         _______ _______ _______ _____ _____    ______ ____
ROOT
ATOM      1  C   UNL     1       1.760   3.303  21.489  0.00  0.00    +0.000 C 
ATOM      2  C   UNL     1       2.906   3.419  20.562  0.00  0.00    +0.000 A 
ATOM      3  O   UNL     1       3.876   2.485  20.709  0.00  0.00    +0.000 OA
ATOM      4  N   UNL     1       4.862   2.689  19.776  0.00  0.00    +0.000 NA
ATOM      5  C   UNL     1       4.477   3.731  19.019  0.00  0.00    +0.000 A 
ATOM      6  C   UNL     1       3.232   4.253  19.512  0.00  0.00    +0.000 A 
ENDROOT
BRANCH   5   7
ATOM      7  C   UNL     1       5.319   4.212  17.917  0.00  0.00    +0.000 A 
ATOM      8  C   UNL     1       4.958   3.910  16.594  0.00  0.00    +0.000 A 
ATOM      9  F   UNL     1       3.809   3.267  16.329  0.00  0.00    +0.000 F 
ATOM     10  C   UNL     1       5.745   4.283  15.505  0.00  0.00    +0.000 A 
ATOM     11  C   UNL     1       6.903   5.023  15.707  0.00  0.00    +0.000 A 
ATOM     12  C   UNL     1       7.259   5.388  17.004  0.00  0.00    +0.000 A 
ATOM     13  C   UNL     1       6.484   4.980  18.103  0.00  0.00    +0.000 A 
ATOM     14 CL   UNL     1       7.081   5.458  19.658  0.00  0.00    +0.000 Cl
ENDBRANCH   5   7
BRANCH   6  15
ATOM     15  C   UNL     1       2.457   5.372  19.014  0.00  0.00    +0.000 C 
ATOM     16  O   UNL     1       1.646   5.246  18.103  0.00  0.00    +0.000 OA
ATOM     17  N   UNL     1       2.725   6.586  19.611  0.00  0.00    +0.000 N 
ATOM     18  H   UNL     1       3.542   6.665  20.200  0.00  0.00    +0.000 HD
BRANCH  17  19
ATOM     19  C   UNL     1       2.215   7.815  19.049  0.00  0.00    +0.000 C 
BRANCH  19  20
ATOM     20  C   UNL     1       1.397   8.507  20.092  0.00  0.00    +0.000 A 
ATOM     21  C   UNL     1       1.084   8.057  21.360  0.00  0.00    +0.000 A 
ATOM     22  C   UNL     1       0.263   8.974  22.078  0.00  0.00    +0.000 A 
ATOM     23  C   UNL     1      -0.020  10.099  21.334  0.00  0.00    +0.000 A 
ATOM     24  S   UNL     1       0.702  10.043  19.784  0.00  0.00    +0.000 S 
ENDBRANCH  19  20
ENDBRANCH  17  19
ENDBRANCH   6  15
TORSDOF 4
ENDMDL
MODEL 2
REMARK VINA RESULT:      -7.7      2.395      4.133
REMARK  Name = 
REMARK  5 active torsions:
REMARK  status: ('A' for Active; 'I' for Inactive)
REMARK    1  A    between atoms: C_1  and  C_2
REMARK    2  A    between atoms: C_5  and  C_6
REMARK    3  A    between atoms: C_14  and  C_15
REMARK    4  A    between atoms: N_17  and  C_18
REMARK    5  A    between atoms: C_18  and  C_19
REMARK                            x       y       z     vdW  Elec       q    Type
REMARK                         _______ _______ _______ _____ _____    ______ ____
ROOT
ATOM      1  C   UNL     1       7.416   6.520  17.851  0.00  0.00    +0.000 C 
ATOM      2  C   UNL     1       6.326   5.638  18.317  0.00  0.00    +0.000 A 
ATOM      3  O   UNL     1       6.710   4.573  19.062  0.00  0.00    +0.000 OA
ATOM      4  N   UNL     1       5.607   3.855  19.450  0.00  0.00    +0.000 NA
ATOM      5  C   UNL     1       4.529   4.505  18.979  0.00  0.00    +0.000 A 
ATOM      6  C   UNL     1       4.949   5.647  18.213  0.00  0.00    +0.000 A 
ENDROOT
BRANCH   5   7
ATOM      7  C   UNL     1       3.175   3.994  19.223  0.00  0.00    +0.000 A 
ATOM      8  C   UNL     1       2.409   4.542  20.264  0.00  0.00    +0.000 A 
ATOM      9  F   UNL     1       2.871   5.584  20.975  0.00  0.00    +0.000 F 
ATOM     10  C   UNL     1       1.141   4.061  20.589  0.00  0.00    +0.000 A 
ATOM     11  C   UNL     1       0.574   3.040  19.837  0.00  0.00    +0.000 A 
ATOM     12  C   UNL     1       1.284   2.513  18.760  0.00  0.00    +0.000 A 
ATOM     13  C   UNL     1       2.577   2.974  18.458  0.00  0.00    +0.000 A 
ATOM     14 CL   UNL     1       3.360   2.185  17.128  0.00  0.00    +0.000 Cl
ENDBRANCH   5   7
BRANCH   6  15
ATOM     15  C   UNL     1       4.134   6.623  17.517  0.00  0.00    +0.000 C 
ATOM     16  O   UNL     1       4.341   6.926  16.348  0.00  0.00    +0.000 OA
ATOM     17  N   UNL     1       3.141   7.208  18.275  0.00  0.00    +0.000 N 
ATOM     18  H   UNL     1       3.154   7.074  19.276  0.00  0.00    +0.000 HD
BRANCH  17  19
ATOM     19  C   UNL     1       2.425   8.364  17.788  0.00  0.00    +0.000 C 
BRANCH  19  20
ATOM     20  C   UNL     1       1.562   8.885  18.893  0.00  0.00    +0.000 A 
ATOM     21  C   UNL     1       1.461   8.408  20.185  0.00  0.00    +0.000 A 
ATOM     22  C   UNL     1       0.520   9.140  20.966  0.00  0.00    +0.000 A 
ATOM     23  C   UNL     1      -0.065  10.157  20.242  0.00  0.00    +0.000 A 
ATOM     24  S   UNL     1       0.523  10.223  18.637  0.00  0.00    +0.000 S 
ENDBRANCH  19  20
ENDBRANCH  17  19
ENDBRANCH   6  15
TORSDOF 4
ENDMDL
MODEL 3
REMARK VINA RESULT:      -7.6      2.144      3.769
REMARK  Name = 
REMARK  5 active torsions:
REMARK  status: ('A' for Active; 'I' for Inactive)
REMARK    1  A    between atoms: C_1  and  C_2
REMARK    2  A    between atoms: C_5  and  C_6
REMARK    3  A    between atoms: C_14  and  C_15
REMARK    4  A    between atoms: N_17  and  C_18
REMARK    5  A    between atoms: C_18  and  C_19
REMARK                            x       y       z     vdW  Elec       q    Type
REMARK                         _______ _______ _______ _____ _____    ______ ____
ROOT
ATOM      1  C   UNL     1       7.412   6.784  18.169  0.00  0.00    +0.000 C 
ATOM      2  C   UNL     1       6.360   5.793  18.480  0.00  0.00    +0.000 A 
ATOM      3  O   UNL     1       6.759   4.724  19.211  0.00  0.00    +0.000 OA
ATOM      4  N   UNL     1       5.688   3.900  19.449  0.00  0.00    +0.000 NA
ATOM      5  C   UNL     1       4.611   4.485  18.899  0.00  0.00    +0.000 A 
ATOM      6  C   UNL     1       5.005   5.696  18.234  0.00  0.00    +0.000 A 
ENDROOT
BRANCH   5   7
ATOM      7  C   UNL     1       3.288   3.854  18.977  0.00  0.00    +0.000 A 
ATOM      8  C   UNL     1       2.964   2.820  18.084  0.00  0.00    +0.000 A 
ATOM      9  F   UNL     1       3.883   2.348  17.225  0.00  0.00    +0.000 F 
ATOM     10  C   UNL     1       1.705   2.220  18.064  0.00  0.00    +0.000 A 
ATOM     11  C   UNL     1       0.739   2.606  18.983  0.00  0.00    +0.000 A 
ATOM     12  C   UNL     1       1.047   3.590  19.921  0.00  0.00    +0.000 A 
ATOM     13  C   UNL     1       2.304   4.219  19.916  0.00  0.00    +0.000 A 
ATOM     14 CL   UNL     1       2.522   5.463  21.103  0.00  0.00    +0.000 Cl
ENDBRANCH   5   7
BRANCH   6  15
ATOM     15  C   UNL     1       4.183   6.639  17.501  0.00  0.00    +0.000 C 
ATOM     16  O   UNL     1       4.410   6.927  16.332  0.00  0.00    +0.000 OA
ATOM     17  N   UNL     1       3.158   7.211  18.225  0.00  0.00    +0.000 N 
ATOM     18  H   UNL     1       3.151   7.095  19.228  0.00  0.00    +0.000 HD
BRANCH  17  19
ATOM     19  C   UNL     1       2.425   8.341  17.701  0.00  0.00    +0.000 C 
BRANCH  19  20
ATOM     20  C   UNL     1       1.571   8.898  18.795  0.00  0.00    +0.000 A 
ATOM     21  C   UNL     1       1.501   8.482  20.110  0.00  0.00    +0.000 A 
ATOM     22  C   UNL     1       0.559   9.233  20.871  0.00  0.00    +0.000 A 
ATOM     23  C   UNL     1      -0.058  10.203  20.110  0.00  0.00    +0.000 A 
ATOM     24  S   UNL     1       0.501  10.202  18.493  0.00  0.00    +0.000 S 
ENDBRANCH  19  20
ENDBRANCH  17  19
ENDBRANCH   6  15
TORSDOF 4
ENDMDL
MODEL 4
REMARK VINA RESULT:      -7.3      1.590      1.895
REMARK  Name = 
REMARK  5 active torsions:
REMARK  status: ('A' for Active; 'I' for Inactive)
REMARK    1  A    between atoms: C_1  and  C_2
REMARK    2  A    between atoms: C_5  and  C_6
REMARK    3  A    between atoms: C_14  and  C_15
REMARK    4  A    between atoms: N_17  and  C_18
REMARK    5  A    between atoms: C_18  and  C_19
REMARK                            x       y       z     vdW  Elec       q    Type
REMARK                         _______ _______ _______ _____ _____    ______ ____
ROOT
ATOM      1  C   UNL     1       1.671   3.233  21.370  0.00  0.00    +0.000 C 
ATOM      2  C   UNL     1       2.897   3.505  20.590  0.00  0.00    +0.000 A 
ATOM      3  O   UNL     1       3.923   2.643  20.791  0.00  0.00    +0.000 OA
ATOM      4  N   UNL     1       4.984   2.991  19.993  0.00  0.00    +0.000 NA
ATOM      5  C   UNL     1       4.596   4.050  19.262  0.00  0.00    +0.000 A 
ATOM      6  C   UNL     1       3.263   4.436  19.639  0.00  0.00    +0.000 A 
ENDROOT
BRANCH   5   7
ATOM      7  C   UNL     1       5.509   4.674  18.297  0.00  0.00    +0.000 A 
ATOM      8  C   UNL     1       6.580   5.452  18.765  0.00  0.00    +0.000 A 
ATOM      9  F   UNL     1       6.825   5.553  20.082  0.00  0.00    +0.000 F 
ATOM     10  C   UNL     1       7.446   6.122  17.902  0.00  0.00    +0.000 A 
ATOM     11  C   UNL     1       7.296   5.989  16.528  0.00  0.00    +0.000 A 
ATOM     12  C   UNL     1       6.277   5.179  16.030  0.00  0.00    +0.000 A 
ATOM     13  C   UNL     1       5.383   4.533  16.901  0.00  0.00    +0.000 A 
ATOM     14 CL   UNL     1       4.133   3.606  16.138  0.00  0.00    +0.000 Cl
ENDBRANCH   5   7
BRANCH   6  15
ATOM     15  C   UNL     1       2.453   5.523  19.124  0.00  0.00    +0.000 C 
ATOM     16  O   UNL     1       1.688   5.371  18.179  0.00  0.00    +0.000 OA
ATOM     17  N   UNL     1       2.635   6.738  19.749  0.00  0.00    +0.000 N 
ATOM     18  H   UNL     1       3.421   6.849  20.373  0.00  0.00    +0.000 HD
BRANCH  17  19
ATOM     19  C   UNL     1       2.086   7.949  19.184  0.00  0.00    +0.000 C 
BRANCH  19  20
ATOM     20  C   UNL     1       1.326   8.667  20.252  0.00  0.00    +0.000 A 
ATOM     21  C   UNL     1       1.125   8.272  21.561  0.00  0.00    +0.000 A 
ATOM     22  C   UNL     1       0.332   9.199  22.296  0.00  0.00    +0.000 A 
ATOM     23  C   UNL     1      -0.045  10.277  21.524  0.00  0.00    +0.000 A 
ATOM     24  S   UNL     1       0.559  10.165  19.927  0.00  0.00    +0.000 S 
ENDBRANCH  19  20
ENDBRANCH  17  19
ENDBRANCH   6  15
TORSDOF 4
ENDMDL
MODEL 5
REMARK VINA RESULT:      -7.1      1.800      2.192
REMARK  Name = 
REMARK  5 active torsions:
REMARK  status: ('A' for Active; 'I' for Inactive)
REMARK    1  A    between atoms: C_1  and  C_2
REMARK    2  A    between atoms: C_5  and  C_6
REMARK    3  A    between atoms: C_14  and  C_15
REMARK    4  A    between atoms: N_17  and  C_18
REMARK    5  A    between atoms: C_18  and  C_19
REMARK                            x       y       z     vdW  Elec       q    Type
REMARK                         _______ _______ _______ _____ _____    ______ ____
ROOT
ATOM      1  C   UNL     1       1.670   2.757  20.679  0.00  0.00    +0.000 C 
ATOM      2  C   UNL     1       2.954   3.209  20.104  0.00  0.00    +0.000 A 
ATOM      3  O   UNL     1       4.038   2.465  20.431  0.00  0.00    +0.000 OA
ATOM      4  N   UNL     1       5.153   2.974  19.815  0.00  0.00    +0.000 NA
ATOM      5  C   UNL     1       4.749   4.015  19.067  0.00  0.00    +0.000 A 
ATOM      6  C   UNL     1       3.339   4.222  19.248  0.00  0.00    +0.000 A 
ENDROOT
BRANCH   5   7
ATOM      7  C   UNL     1       5.710   4.788  18.271  0.00  0.00    +0.000 A 
ATOM      8  C   UNL     1       6.700   5.538  18.925  0.00  0.00    +0.000 A 
ATOM      9  F   UNL     1       6.829   5.479  20.261  0.00  0.00    +0.000 F 
ATOM     10  C   UNL     1       7.604   6.343  18.232  0.00  0.00    +0.000 A 
ATOM     11  C   UNL     1       7.576   6.380  16.844  0.00  0.00    +0.000 A 
ATOM     12  C   UNL     1       6.641   5.604  16.161  0.00  0.00    +0.000 A 
ATOM     13  C   UNL     1       5.708   4.821  16.863  0.00  0.00    +0.000 A 
ATOM     14 CL   UNL     1       4.571   3.955  15.883  0.00  0.00    +0.000 Cl
ENDBRANCH   5   7
BRANCH   6  15
ATOM     15  C   UNL     1       2.484   5.230  18.651  0.00  0.00    +0.000 C 
ATOM     16  O   UNL     1       1.570   4.937  17.889  0.00  0.00    +0.000 OA
ATOM     17  N   UNL     1       2.801   6.533  18.971  0.00  0.00    +0.000 N 
ATOM     18  H   UNL     1       3.682   6.719  19.427  0.00  0.00    +0.000 HD
BRANCH  17  19
ATOM     19  C   UNL     1       2.199   7.636  18.257  0.00  0.00    +0.000 C 
BRANCH  19  20
ATOM     20  C   UNL     1       1.591   8.569  19.255  0.00  0.00    +0.000 A 
ATOM     21  C   UNL     1       1.131   9.854  19.042  0.00  0.00    +0.000 A 
ATOM     22  C   UNL     1       0.630  10.459  20.231  0.00  0.00    +0.000 A 
ATOM     23  C   UNL     1       0.719   9.611  21.314  0.00  0.00    +0.000 A 
ATOM     24  S   UNL     1       1.402   8.100  20.892  0.00  0.00    +0.000 S 
ENDBRANCH  19  20
ENDBRANCH  17  19
ENDBRANCH   6  15
TORSDOF 4
ENDMDL
MODEL 6
REMARK VINA RESULT:      -7.1      2.219      2.737
REMARK  Name = 
REMARK  5 active torsions:
REMARK  status: ('A' for Active; 'I' for Inactive)
REMARK    1  A    between atoms: C_1  and  C_2
REMARK    2  A    between atoms: C_5  and  C_6
REMARK    3  A    between atoms: C_14  and  C_15
REMARK    4  A    between atoms: N_17  and  C_18
REMARK    5  A    between atoms: C_18  and  C_19
REMARK                            x       y       z     vdW  Elec       q    Type
REMARK                         _______ _______ _______ _____ _____    ______ ____
ROOT
ATOM      1  C   UNL     1       0.730   3.283  18.347  0.00  0.00    +0.000 C 
ATOM      2  C   UNL     1       2.109   3.743  18.080  0.00  0.00    +0.000 A 
ATOM      3  O   UNL     1       2.706   3.206  16.989  0.00  0.00    +0.000 OA
ATOM      4  N   UNL     1       3.964   3.733  16.842  0.00  0.00    +0.000 NA
ATOM      5  C   UNL     1       4.130   4.635  17.825  0.00  0.00    +0.000 A 
ATOM      6  C   UNL     1       2.966   4.652  18.668  0.00  0.00    +0.000 A 
ENDROOT
BRANCH   5   7
ATOM      7  C   UNL     1       5.384   5.389  17.952  0.00  0.00    +0.000 A 
ATOM      8  C   UNL     1       6.244   5.117  19.028  0.00  0.00    +0.000 A 
ATOM      9  F   UNL     1       5.971   4.118  19.884  0.00  0.00    +0.000 F 
ATOM     10  C   UNL     1       7.418   5.837  19.243  0.00  0.00    +0.000 A 
ATOM     11  C   UNL     1       7.798   6.827  18.346  0.00  0.00    +0.000 A 
ATOM     12  C   UNL     1       6.995   7.083  17.236  0.00  0.00    +0.000 A 
ATOM     13  C   UNL     1       5.793   6.381  17.041  0.00  0.00    +0.000 A 
ATOM     14 CL   UNL     1       4.872   6.847  15.649  0.00  0.00    +0.000 Cl
ENDBRANCH   5   7
BRANCH   6  15
ATOM     15  C   UNL     1       2.710   5.457  19.846  0.00  0.00    +0.000 C 
ATOM     16  O   UNL     1       2.703   4.975  20.973  0.00  0.00    +0.000 OA
ATOM     17  N   UNL     1       2.438   6.786  19.601  0.00  0.00    +0.000 N 
ATOM     18  H   UNL     1       2.252   7.076  18.652  0.00  0.00    +0.000 HD
BRANCH  17  19
ATOM     19  C   UNL     1       1.924   7.640  20.647  0.00  0.00    +0.000 C 
BRANCH  19  20
ATOM     20  C   UNL     1       1.145   8.748  20.013  0.00  0.00    +0.000 A 
ATOM     21  C   UNL     1       0.103   9.472  20.559  0.00  0.00    +0.000 A 
ATOM     22  C   UNL     1      -0.419  10.444  19.658  0.00  0.00    +0.000 A 
ATOM     23  C   UNL     1       0.248  10.433  18.451  0.00  0.00    +0.000 A 
ATOM     24  S   UNL     1       1.491   9.259  18.415  0.00  0.00    +0.000 S 
ENDBRANCH  19  20
ENDBRANCH  17  19
ENDBRANCH   6  15
TORSDOF 4
ENDMDL
MODEL 7
REMARK VINA RESULT:      -6.8      3.073      5.710
REMARK  Name = 
REMARK  5 active torsions:
REMARK  status: ('A' for Active; 'I' for Inactive)
REMARK    1  A    between atoms: C_1  and  C_2
REMARK    2  A    between atoms: C_5  and  C_6
REMARK    3  A    between atoms: C_14  and  C_15
REMARK    4  A    between atoms: N_17  and  C_18
REMARK    5  A    between atoms: C_18  and  C_19
REMARK                            x       y       z     vdW  Elec       q    Type
REMARK                         _______ _______ _______ _____ _____    ______ ____
ROOT
ATOM      1  C   UNL     1       6.082   4.390  14.912  0.00  0.00    +0.000 C 
ATOM      2  C   UNL     1       5.435   5.192  15.972  0.00  0.00    +0.000 A 
ATOM      3  O   UNL     1       5.900   6.457  16.116  0.00  0.00    +0.000 OA
ATOM      4  N   UNL     1       5.202   7.097  17.110  0.00  0.00    +0.000 NA
ATOM      5  C   UNL     1       4.270   6.236  17.553  0.00  0.00    +0.000 A 
ATOM      6  C   UNL     1       4.405   4.981  16.866  0.00  0.00    +0.000 A 
ENDROOT
BRANCH   5   7
ATOM      7  C   UNL     1       3.345   6.616  18.627  0.00  0.00    +0.000 A 
ATOM      8  C   UNL     1       3.301   5.846  19.801  0.00  0.00    +0.000 A 
ATOM      9  F   UNL     1       4.157   4.828  19.982  0.00  0.00    +0.000 F 
ATOM     10  C   UNL     1       2.402   6.115  20.834  0.00  0.00    +0.000 A 
ATOM     11  C   UNL     1       1.548   7.206  20.743  0.00  0.00    +0.000 A 
ATOM     12  C   UNL     1       1.606   8.023  19.616  0.00  0.00    +0.000 A 
ATOM     13  C   UNL     1       2.486   7.730  18.560  0.00  0.00    +0.000 A 
ATOM     14 CL   UNL     1       2.406   8.801  17.200  0.00  0.00    +0.000 Cl
ENDBRANCH   5   7
BRANCH   6  15
ATOM     15  C   UNL     1       3.625   3.769  17.027  0.00  0.00    +0.000 C 
ATOM     16  O   UNL     1       2.537   3.620  16.482  0.00  0.00    +0.000 OA
ATOM     17  N   UNL     1       4.177   2.822  17.863  0.00  0.00    +0.000 N 
ATOM     18  H   UNL     1       4.962   3.085  18.441  0.00  0.00    +0.000 HD
BRANCH  17  19
ATOM     19  C   UNL     1       3.401   1.687  18.307  0.00  0.00    +0.000 C 
BRANCH  19  20
ATOM     20  C   UNL     1       2.582   2.107  19.486  0.00  0.00    +0.000 A 
ATOM     21  C   UNL     1       1.270   2.538  19.496  0.00  0.00    +0.000 A 
ATOM     22  C   UNL     1       0.815   2.877  20.803  0.00  0.00    +0.000 A 
ATOM     23  C   UNL     1       1.798   2.689  21.751  0.00  0.00    +0.000 A 
ATOM     24  S   UNL     1       3.252   2.107  21.063  0.00  0.00    +0.000 S 
ENDBRANCH  19  20
ENDBRANCH  17  19
ENDBRANCH   6  15
TORSDOF 4
ENDMDL
MODEL 8
REMARK VINA RESULT:      -6.7      1.541      1.855
REMARK  Name = 
REMARK  5 active torsions:
REMARK  status: ('A' for Active; 'I' for Inactive)
REMARK    1  A    between atoms: C_1  and  C_2
REMARK    2  A    between atoms: C_5  and  C_6
REMARK    3  A    between atoms: C_14  and  C_15
REMARK    4  A    between atoms: N_17  and  C_18
REMARK    5  A    between atoms: C_18  and  C_19
REMARK                            x       y       z     vdW  Elec       q    Type
REMARK                         _______ _______ _______ _____ _____    ______ ____
ROOT
ATOM      1  C   UNL     1       1.395   5.960  20.847  0.00  0.00    +0.000 C 
ATOM      2  C   UNL     1       2.529   5.400  20.082  0.00  0.00    +0.000 A 
ATOM      3  O   UNL     1       2.972   4.187  20.494  0.00  0.00    +0.000 OA
ATOM      4  N   UNL     1       4.003   3.772  19.689  0.00  0.00    +0.000 NA
ATOM      5  C   UNL     1       4.171   4.715  18.746  0.00  0.00    +0.000 A 
ATOM      6  C   UNL     1       3.259   5.801  18.981  0.00  0.00    +0.000 A 
ENDROOT
BRANCH   5   7
ATOM      7  C   UNL     1       5.206   4.575  17.715  0.00  0.00    +0.000 A 
ATOM      8  C   UNL     1       4.862   4.047  16.461  0.00  0.00    +0.000 A 
ATOM      9  F   UNL     1       3.583   3.756  16.170  0.00  0.00    +0.000 F 
ATOM     10  C   UNL     1       5.808   3.829  15.459  0.00  0.00    +0.000 A 
ATOM     11  C   UNL     1       7.133   4.187  15.669  0.00  0.00    +0.000 A 
ATOM     12  C   UNL     1       7.498   4.767  16.883  0.00  0.00    +0.000 A 
ATOM     13  C   UNL     1       6.550   4.951  17.904  0.00  0.00    +0.000 A 
ATOM     14 CL   UNL     1       7.160   5.629  19.377  0.00  0.00    +0.000 Cl
ENDBRANCH   5   7
BRANCH   6  15
ATOM     15  C   UNL     1       3.094   7.028  18.226  0.00  0.00    +0.000 C 
ATOM     16  O   UNL     1       3.895   7.373  17.365  0.00  0.00    +0.000 OA
ATOM     17  N   UNL     1       1.999   7.790  18.575  0.00  0.00    +0.000 N 
ATOM     18  H   UNL     1       1.502   7.562  19.424  0.00  0.00    +0.000 HD
BRANCH  17  19
ATOM     19  C   UNL     1       1.854   9.142  18.086  0.00  0.00    +0.000 C 
BRANCH  19  20
ATOM     20  C   UNL     1       0.750   9.804  18.847  0.00  0.00    +0.000 A 
ATOM     21  C   UNL     1      -0.394  10.390  18.342  0.00  0.00    +0.000 A 
ATOM     22  C   UNL     1      -1.221  10.943  19.361  0.00  0.00    +0.000 A 
ATOM     23  C   UNL     1      -0.681  10.757  20.616  0.00  0.00    +0.000 A 
ATOM     24  S   UNL     1       0.810   9.920  20.556  0.00  0.00    +0.000 S 
ENDBRANCH  19  20
ENDBRANCH  17  19
ENDBRANCH   6  15
TORSDOF 4
ENDMDL
MODEL 9
REMARK VINA RESULT:      -6.6      2.523      3.970
REMARK  Name = 
REMARK  5 active torsions:
REMARK  status: ('A' for Active; 'I' for Inactive)
REMARK    1  A    between atoms: C_1  and  C_2
REMARK    2  A    between atoms: C_5  and  C_6
REMARK    3  A    between atoms: C_14  and  C_15
REMARK    4  A    between atoms: N_17  and  C_18
REMARK    5  A    between atoms: C_18  and  C_19
REMARK                            x       y       z     vdW  Elec       q    Type
REMARK                         _______ _______ _______ _____ _____    ______ ____
ROOT
ATOM      1  C   UNL     1       7.837   7.853  17.649  0.00  0.00    +0.000 C 
ATOM      2  C   UNL     1       7.083   6.610  17.917  0.00  0.00    +0.000 A 
ATOM      3  O   UNL     1       7.785   5.616  18.513  0.00  0.00    +0.000 OA
ATOM      4  N   UNL     1       6.967   4.535  18.727  0.00  0.00    +0.000 NA
ATOM      5  C   UNL     1       5.740   4.879  18.300  0.00  0.00    +0.000 A 
ATOM      6  C   UNL     1       5.776   6.202  17.740  0.00  0.00    +0.000 A 
ENDROOT
BRANCH   5   7
ATOM      7  C   UNL     1       4.619   3.936  18.390  0.00  0.00    +0.000 A 
ATOM      8  C   UNL     1       3.776   3.973  19.511  0.00  0.00    +0.000 A 
ATOM      9  F   UNL     1       3.933   4.918  20.452  0.00  0.00    +0.000 F 
ATOM     10  C   UNL     1       2.732   3.065  19.688  0.00  0.00    +0.000 A 
ATOM     11  C   UNL     1       2.465   2.116  18.709  0.00  0.00    +0.000 A 
ATOM     12  C   UNL     1       3.248   2.089  17.557  0.00  0.00    +0.000 A 
ATOM     13  C   UNL     1       4.323   2.981  17.398  0.00  0.00    +0.000 A 
ATOM     14 CL   UNL     1       5.243   2.791  15.941  0.00  0.00    +0.000 Cl
ENDBRANCH   5   7
BRANCH   6  15
ATOM     15  C   UNL     1       4.695   6.971  17.155  0.00  0.00    +0.000 C 
ATOM     16  O   UNL     1       4.728   7.357  15.992  0.00  0.00    +0.000 OA
ATOM     17  N   UNL     1       3.653   7.263  18.009  0.00  0.00    +0.000 N 
ATOM     18  H   UNL     1       3.778   7.102  18.998  0.00  0.00    +0.000 HD
BRANCH  17  19
ATOM     19  C   UNL     1       2.640   8.223  17.636  0.00  0.00    +0.000 C 
BRANCH  19  20
ATOM     20  C   UNL     1       1.850   8.575  18.856  0.00  0.00    +0.000 A 
ATOM     21  C   UNL     1       1.789   7.888  20.053  0.00  0.00    +0.000 A 
ATOM     22  C   UNL     1       0.915   8.506  20.993  0.00  0.00    +0.000 A 
ATOM     23  C   UNL     1       0.339   9.649  20.483  0.00  0.00    +0.000 A 
ATOM     24  S   UNL     1       0.855   9.970  18.884  0.00  0.00    +0.000 S 
ENDBRANCH  19  20
ENDBRANCH  17  19
ENDBRANCH   6  15
TORSDOF 4
ENDMDL
