MODEL 1
REMARK VINA RESULT:      -6.2      0.000      0.000
REMARK  Name = 
REMARK  14 active torsions:
REMARK  status: ('A' for Active; 'I' for Inactive)
REMARK    1  A    between atoms: C_1  and  C_2
REMARK    2  A    between atoms: C_2  and  N_3
REMARK    3  A    between atoms: N_3  and  C_4
REMARK    4  A    between atoms: N_3  and  C_6
REMARK    5  A    between atoms: C_4  and  C_5
REMARK    6  A    between atoms: C_6  and  C_7
REMARK    7  A    between atoms: C_6  and  C_18
REMARK    8  A    between atoms: C_7  and  O_8
REMARK    9  A    between atoms: O_8  and  C_9
REMARK   10  A    between atoms: C_9  and  C_11
REMARK   11  A    between atoms: C_14  and  N_15
REMARK   12  A    between atoms: C_18  and  C_19
REMARK   13  A    between atoms: C_19  and  C_20
REMARK   14  A    between atoms: C_19  and  C_21
REMARK                            x       y       z     vdW  Elec       q    Type
REMARK                         _______ _______ _______ _____ _____    ______ ____
ROOT
ATOM      1  O   UNL     1       3.952   6.758  16.915  0.00  0.00    +0.000 OA
ENDROOT
BRANCH   1   2
ATOM      2  C   UNL     1       3.145   7.301  17.862  0.00  0.00    +0.000 C 
ATOM      3  O   UNL     1       2.839   8.487  17.936  0.00  0.00    +0.000 OA
BRANCH   2   4
ATOM      4  C   UNL     1       2.479   6.212  18.622  0.00  0.00    +0.000 A 
ATOM      5  C   UNL     1       2.097   5.057  17.930  0.00  0.00    +0.000 A 
ATOM      6  C   UNL     1       1.541   3.976  18.621  0.00  0.00    +0.000 A 
ATOM      7  C   UNL     1       1.396   4.013  20.012  0.00  0.00    +0.000 A 
ATOM      8  C   UNL     1       1.721   5.193  20.685  0.00  0.00    +0.000 A 
ATOM      9  C   UNL     1       2.280   6.279  20.003  0.00  0.00    +0.000 A 
BRANCH   7  10
ATOM     10  N   UNL     1       0.726   2.980  20.679  0.00  0.00    +0.000 N 
ATOM     11  H   UNL     1       1.215   2.624  21.488  0.00  0.00    +0.000 HD
ATOM     12  H   UNL     1      -0.252   3.172  20.873  0.00  0.00    +0.000 HD
ENDBRANCH   7  10
ENDBRANCH   2   4
ENDBRANCH   1   2
BRANCH   1  13
ATOM     13  C   UNL     1       5.259   7.345  16.896  0.00  0.00    +0.000 C 
BRANCH  13  14
ATOM     14  C   UNL     1       6.427   6.315  16.985  0.00  0.00    +0.000 C 
BRANCH  14  15
ATOM     15  N   UNL     1       7.685   6.912  17.563  0.00  0.00    +0.000 NA
BRANCH  15  17
ATOM     16  C   UNL     1       8.625   9.153  18.435  0.00  0.00    +0.000 C 
ATOM     17  C   UNL     1       7.600   8.394  17.596  0.00  0.00    +0.000 C 
ENDBRANCH  15  17
BRANCH  15  18
ATOM     18  C   UNL     1       8.014   6.364  18.904  0.00  0.00    +0.000 C 
ATOM     19  C   UNL     1       6.985   5.406  19.510  0.00  0.00    +0.000 C 
ENDBRANCH  15  18
ENDBRANCH  14  15
BRANCH  14  20
ATOM     20  C   UNL     1       6.624   5.656  15.586  0.00  0.00    +0.000 C 
BRANCH  20  21
ATOM     21  C   UNL     1       6.335   4.144  15.439  0.00  0.00    +0.000 C 
ATOM     22  C   UNL     1       5.140   3.664  16.265  0.00  0.00    +0.000 C 
ATOM     23  C   UNL     1       6.063   3.850  13.955  0.00  0.00    +0.000 C 
ENDBRANCH  20  21
ENDBRANCH  14  20
ENDBRANCH  13  14
ENDBRANCH   1  13
TORSDOF 10
ENDMDL
MODEL 2
REMARK VINA RESULT:      -6.2      1.404      1.778
REMARK  Name = 
REMARK  14 active torsions:
REMARK  status: ('A' for Active; 'I' for Inactive)
REMARK    1  A    between atoms: C_1  and  C_2
REMARK    2  A    between atoms: C_2  and  N_3
REMARK    3  A    between atoms: N_3  and  C_4
REMARK    4  A    between atoms: N_3  and  C_6
REMARK    5  A    between atoms: C_4  and  C_5
REMARK    6  A    between atoms: C_6  and  C_7
REMARK    7  A    between atoms: C_6  and  C_18
REMARK    8  A    between atoms: C_7  and  O_8
REMARK    9  A    between atoms: O_8  and  C_9
REMARK   10  A    between atoms: C_9  and  C_11
REMARK   11  A    between atoms: C_14  and  N_15
REMARK   12  A    between atoms: C_18  and  C_19
REMARK   13  A    between atoms: C_19  and  C_20
REMARK   14  A    between atoms: C_19  and  C_21
REMARK                            x       y       z     vdW  Elec       q    Type
REMARK                         _______ _______ _______ _____ _____    ______ ____
ROOT
ATOM      1  O   UNL     1       3.873   5.200  16.894  0.00  0.00    +0.000 OA
ENDROOT
BRANCH   1   2
ATOM      2  C   UNL     1       3.586   5.918  18.010  0.00  0.00    +0.000 C 
ATOM      3  O   UNL     1       3.557   7.143  18.076  0.00  0.00    +0.000 OA
BRANCH   2   4
ATOM      4  C   UNL     1       3.052   5.008  19.056  0.00  0.00    +0.000 A 
ATOM      5  C   UNL     1       3.708   3.791  19.276  0.00  0.00    +0.000 A 
ATOM      6  C   UNL     1       3.287   2.943  20.305  0.00  0.00    +0.000 A 
ATOM      7  C   UNL     1       2.238   3.312  21.154  0.00  0.00    +0.000 A 
ATOM      8  C   UNL     1       1.549   4.497  20.886  0.00  0.00    +0.000 A 
ATOM      9  C   UNL     1       1.964   5.354  19.861  0.00  0.00    +0.000 A 
BRANCH   7  10
ATOM     10  N   UNL     1       1.743   2.405  22.099  0.00  0.00    +0.000 N 
ATOM     11  H   UNL     1       0.857   2.672  22.505  0.00  0.00    +0.000 HD
ATOM     12  H   UNL     1       1.752   1.436  21.795  0.00  0.00    +0.000 HD
ENDBRANCH   7  10
ENDBRANCH   2   4
ENDBRANCH   1   2
BRANCH   1  13
ATOM     13  C   UNL     1       5.043   5.672  16.215  0.00  0.00    +0.000 C 
BRANCH  13  14
ATOM     14  C   UNL     1       6.347   4.890  16.564  0.00  0.00    +0.000 C 
BRANCH  14  15
ATOM     15  N   UNL     1       7.430   5.784  17.112  0.00  0.00    +0.000 NA
BRANCH  15  17
ATOM     16  C   UNL     1       7.964   8.252  17.654  0.00  0.00    +0.000 C 
ATOM     17  C   UNL     1       6.985   7.201  17.135  0.00  0.00    +0.000 C 
ENDBRANCH  15  17
BRANCH  15  18
ATOM     18  C   UNL     1       7.906   5.350  18.451  0.00  0.00    +0.000 C 
ATOM     19  C   UNL     1       6.885   5.435  19.588  0.00  0.00    +0.000 C 
ENDBRANCH  15  18
ENDBRANCH  14  15
BRANCH  14  20
ATOM     20  C   UNL     1       6.782   4.057  15.320  0.00  0.00    +0.000 C 
BRANCH  20  21
ATOM     21  C   UNL     1       6.568   4.668  13.916  0.00  0.00    +0.000 C 
ATOM     22  C   UNL     1       7.815   5.347  13.345  0.00  0.00    +0.000 C 
ATOM     23  C   UNL     1       6.134   3.542  12.964  0.00  0.00    +0.000 C 
ENDBRANCH  20  21
ENDBRANCH  14  20
ENDBRANCH  13  14
ENDBRANCH   1  13
TORSDOF 10
ENDMDL
MODEL 3
REMARK VINA RESULT:      -6.1      2.983      4.566
REMARK  Name = 
REMARK  14 active torsions:
REMARK  status: ('A' for Active; 'I' for Inactive)
REMARK    1  A    between atoms: C_1  and  C_2
REMARK    2  A    between atoms: C_2  and  N_3
REMARK    3  A    between atoms: N_3  and  C_4
REMARK    4  A    between atoms: N_3  and  C_6
REMARK    5  A    between atoms: C_4  and  C_5
REMARK    6  A    between atoms: C_6  and  C_7
REMARK    7  A    between atoms: C_6  and  C_18
REMARK    8  A    between atoms: C_7  and  O_8
REMARK    9  A    between atoms: O_8  and  C_9
REMARK   10  A    between atoms: C_9  and  C_11
REMARK   11  A    between atoms: C_14  and  N_15
REMARK   12  A    between atoms: C_18  and  C_19
REMARK   13  A    between atoms: C_19  and  C_20
REMARK   14  A    between atoms: C_19  and  C_21
REMARK                            x       y       z     vdW  Elec       q    Type
REMARK                         _______ _______ _______ _____ _____    ______ ____
ROOT
ATOM      1  O   UNL     1       3.426   6.160  18.527  0.00  0.00    +0.000 OA
ENDROOT
BRANCH   1   2
ATOM      2  C   UNL     1       2.526   6.441  19.503  0.00  0.00    +0.000 C 
ATOM      3  O   UNL     1       2.326   5.757  20.502  0.00  0.00    +0.000 OA
BRANCH   2   4
ATOM      4  C   UNL     1       2.021   7.827  19.320  0.00  0.00    +0.000 A 
ATOM      5  C   UNL     1       2.203   8.441  18.076  0.00  0.00    +0.000 A 
ATOM      6  C   UNL     1       1.671   9.712  17.835  0.00  0.00    +0.000 A 
ATOM      7  C   UNL     1       0.917  10.370  18.813  0.00  0.00    +0.000 A 
ATOM      8  C   UNL     1       0.795   9.777  20.072  0.00  0.00    +0.000 A 
ATOM      9  C   UNL     1       1.321   8.504  20.321  0.00  0.00    +0.000 A 
BRANCH   7  10
ATOM     10  N   UNL     1       0.496  11.690  18.610  0.00  0.00    +0.000 N 
ATOM     11  H   UNL     1       0.535  11.992  17.646  0.00  0.00    +0.000 HD
ATOM     12  H   UNL     1      -0.389  11.921  19.051  0.00  0.00    +0.000 HD
ENDBRANCH   7  10
ENDBRANCH   2   4
ENDBRANCH   1   2
BRANCH   1  13
ATOM     13  C   UNL     1       4.248   5.028  18.840  0.00  0.00    +0.000 C 
BRANCH  13  14
ATOM     14  C   UNL     1       4.495   4.063  17.640  0.00  0.00    +0.000 C 
BRANCH  14  15
ATOM     15  N   UNL     1       5.382   4.669  16.582  0.00  0.00    +0.000 NA
BRANCH  15  17
ATOM     16  C   UNL     1       7.707   4.600  17.703  0.00  0.00    +0.000 C 
ATOM     17  C   UNL     1       6.513   5.408  17.199  0.00  0.00    +0.000 C 
ENDBRANCH  15  17
BRANCH  15  18
ATOM     18  C   UNL     1       5.869   3.665  15.601  0.00  0.00    +0.000 C 
ATOM     19  C   UNL     1       5.989   4.142  14.152  0.00  0.00    +0.000 C 
ENDBRANCH  15  18
ENDBRANCH  14  15
BRANCH  14  20
ATOM     20  C   UNL     1       3.119   3.565  17.104  0.00  0.00    +0.000 C 
BRANCH  20  21
ATOM     21  C   UNL     1       2.508   2.287  17.724  0.00  0.00    +0.000 C 
ATOM     22  C   UNL     1       3.500   1.475  18.560  0.00  0.00    +0.000 C 
ATOM     23  C   UNL     1       1.329   2.704  18.617  0.00  0.00    +0.000 C 
ENDBRANCH  20  21
ENDBRANCH  14  20
ENDBRANCH  13  14
ENDBRANCH   1  13
TORSDOF 10
ENDMDL
MODEL 4
REMARK VINA RESULT:      -6.0      0.458      1.381
REMARK  Name = 
REMARK  14 active torsions:
REMARK  status: ('A' for Active; 'I' for Inactive)
REMARK    1  A    between atoms: C_1  and  C_2
REMARK    2  A    between atoms: C_2  and  N_3
REMARK    3  A    between atoms: N_3  and  C_4
REMARK    4  A    between atoms: N_3  and  C_6
REMARK    5  A    between atoms: C_4  and  C_5
REMARK    6  A    between atoms: C_6  and  C_7
REMARK    7  A    between atoms: C_6  and  C_18
REMARK    8  A    between atoms: C_7  and  O_8
REMARK    9  A    between atoms: O_8  and  C_9
REMARK   10  A    between atoms: C_9  and  C_11
REMARK   11  A    between atoms: C_14  and  N_15
REMARK   12  A    between atoms: C_18  and  C_19
REMARK   13  A    between atoms: C_19  and  C_20
REMARK   14  A    between atoms: C_19  and  C_21
REMARK                            x       y       z     vdW  Elec       q    Type
REMARK                         _______ _______ _______ _____ _____    ______ ____
ROOT
ATOM      1  O   UNL     1       4.499   7.331  18.060  0.00  0.00    +0.000 OA
ENDROOT
BRANCH   1   2
ATOM      2  C   UNL     1       3.149   7.397  17.944  0.00  0.00    +0.000 C 
ATOM      3  O   UNL     1       2.536   8.192  17.238  0.00  0.00    +0.000 OA
BRANCH   2   4
ATOM      4  C   UNL     1       2.542   6.198  18.579  0.00  0.00    +0.000 A 
ATOM      5  C   UNL     1       2.303   6.227  19.958  0.00  0.00    +0.000 A 
ATOM      6  C   UNL     1       1.659   5.153  20.582  0.00  0.00    +0.000 A 
ATOM      7  C   UNL     1       1.208   4.058  19.837  0.00  0.00    +0.000 A 
ATOM      8  C   UNL     1       1.508   4.010  18.474  0.00  0.00    +0.000 A 
ATOM      9  C   UNL     1       2.149   5.080  17.840  0.00  0.00    +0.000 A 
BRANCH   7  10
ATOM     10  N   UNL     1       0.679   2.935  20.485  0.00  0.00    +0.000 N 
ATOM     11  H   UNL     1       1.201   2.644  21.301  0.00  0.00    +0.000 HD
ATOM     12  H   UNL     1      -0.319   2.986  20.664  0.00  0.00    +0.000 HD
ENDBRANCH   7  10
ENDBRANCH   2   4
ENDBRANCH   1   2
BRANCH   1  13
ATOM     13  C   UNL     1       5.155   7.114  16.805  0.00  0.00    +0.000 C 
BRANCH  13  14
ATOM     14  C   UNL     1       6.381   6.153  16.878  0.00  0.00    +0.000 C 
BRANCH  14  15
ATOM     15  N   UNL     1       7.601   6.814  17.471  0.00  0.00    +0.000 NA
BRANCH  15  17
ATOM     16  C   UNL     1       8.461   9.120  18.250  0.00  0.00    +0.000 C 
ATOM     17  C   UNL     1       7.473   8.293  17.431  0.00  0.00    +0.000 C 
ENDBRANCH  15  17
BRANCH  15  18
ATOM     18  C   UNL     1       7.895   6.338  18.847  0.00  0.00    +0.000 C 
ATOM     19  C   UNL     1       6.884   5.360  19.452  0.00  0.00    +0.000 C 
ENDBRANCH  15  18
ENDBRANCH  14  15
BRANCH  14  20
ATOM     20  C   UNL     1       6.621   5.534  15.468  0.00  0.00    +0.000 C 
BRANCH  20  21
ATOM     21  C   UNL     1       5.543   4.588  14.889  0.00  0.00    +0.000 C 
ATOM     22  C   UNL     1       6.013   3.796  13.667  0.00  0.00    +0.000 C 
ATOM     23  C   UNL     1       5.127   3.602  15.992  0.00  0.00    +0.000 C 
ENDBRANCH  20  21
ENDBRANCH  14  20
ENDBRANCH  13  14
ENDBRANCH   1  13
TORSDOF 10
ENDMDL
MODEL 5
REMARK VINA RESULT:      -6.0      2.443      6.334
REMARK  Name = 
REMARK  14 active torsions:
REMARK  status: ('A' for Active; 'I' for Inactive)
REMARK    1  A    between atoms: C_1  and  C_2
REMARK    2  A    between atoms: C_2  and  N_3
REMARK    3  A    between atoms: N_3  and  C_4
REMARK    4  A    between atoms: N_3  and  C_6
REMARK    5  A    between atoms: C_4  and  C_5
REMARK    6  A    between atoms: C_6  and  C_7
REMARK    7  A    between atoms: C_6  and  C_18
REMARK    8  A    between atoms: C_7  and  O_8
REMARK    9  A    between atoms: O_8  and  C_9
REMARK   10  A    between atoms: C_9  and  C_11
REMARK   11  A    between atoms: C_14  and  N_15
REMARK   12  A    between atoms: C_18  and  C_19
REMARK   13  A    between atoms: C_19  and  C_20
REMARK   14  A    between atoms: C_19  and  C_21
REMARK                            x       y       z     vdW  Elec       q    Type
REMARK                         _______ _______ _______ _____ _____    ______ ____
ROOT
ATOM      1  O   UNL     1       3.463   2.603  18.100  0.00  0.00    +0.000 OA
ENDROOT
BRANCH   1   2
ATOM      2  C   UNL     1       4.524   3.268  18.623  0.00  0.00    +0.000 C 
ATOM      3  O   UNL     1       4.901   3.195  19.789  0.00  0.00    +0.000 OA
BRANCH   2   4
ATOM      4  C   UNL     1       5.314   3.876  17.522  0.00  0.00    +0.000 A 
ATOM      5  C   UNL     1       6.516   4.518  17.843  0.00  0.00    +0.000 A 
ATOM      6  C   UNL     1       7.331   5.031  16.829  0.00  0.00    +0.000 A 
ATOM      7  C   UNL     1       6.982   4.878  15.482  0.00  0.00    +0.000 A 
ATOM      8  C   UNL     1       5.751   4.293  15.176  0.00  0.00    +0.000 A 
ATOM      9  C   UNL     1       4.931   3.773  16.183  0.00  0.00    +0.000 A 
BRANCH   7  10
ATOM     10  N   UNL     1       7.737   5.502  14.483  0.00  0.00    +0.000 N 
ATOM     11  H   UNL     1       7.206   6.127  13.892  0.00  0.00    +0.000 HD
ATOM     12  H   UNL     1       8.601   5.923  14.811  0.00  0.00    +0.000 HD
ENDBRANCH   7  10
ENDBRANCH   2   4
ENDBRANCH   1   2
BRANCH   1  13
ATOM     13  C   UNL     1       2.340   3.458  17.851  0.00  0.00    +0.000 C 
BRANCH  13  14
ATOM     14  C   UNL     1       2.322   4.761  18.708  0.00  0.00    +0.000 C 
BRANCH  14  15
ATOM     15  N   UNL     1       1.291   4.718  19.808  0.00  0.00    +0.000 NA
BRANCH  15  17
ATOM     16  C   UNL     1       1.494   2.755  21.473  0.00  0.00    +0.000 C 
ATOM     17  C   UNL     1       0.952   3.315  20.160  0.00  0.00    +0.000 C 
ENDBRANCH  15  17
BRANCH  15  18
ATOM     18  C   UNL     1       1.704   5.488  21.009  0.00  0.00    +0.000 C 
ATOM     19  C   UNL     1       1.189   6.927  21.096  0.00  0.00    +0.000 C 
ENDBRANCH  15  18
ENDBRANCH  14  15
BRANCH  14  20
ATOM     20  C   UNL     1       2.182   5.988  17.757  0.00  0.00    +0.000 C 
BRANCH  20  21
ATOM     21  C   UNL     1       3.088   7.216  18.005  0.00  0.00    +0.000 C 
ATOM     22  C   UNL     1       4.302   7.281  17.076  0.00  0.00    +0.000 C 
ATOM     23  C   UNL     1       2.242   8.484  17.807  0.00  0.00    +0.000 C 
ENDBRANCH  20  21
ENDBRANCH  14  20
ENDBRANCH  13  14
ENDBRANCH   1  13
TORSDOF 10
ENDMDL
MODEL 6
REMARK VINA RESULT:      -6.0      0.880      2.150
REMARK  Name = 
REMARK  14 active torsions:
REMARK  status: ('A' for Active; 'I' for Inactive)
REMARK    1  A    between atoms: C_1  and  C_2
REMARK    2  A    between atoms: C_2  and  N_3
REMARK    3  A    between atoms: N_3  and  C_4
REMARK    4  A    between atoms: N_3  and  C_6
REMARK    5  A    between atoms: C_4  and  C_5
REMARK    6  A    between atoms: C_6  and  C_7
REMARK    7  A    between atoms: C_6  and  C_18
REMARK    8  A    between atoms: C_7  and  O_8
REMARK    9  A    between atoms: O_8  and  C_9
REMARK   10  A    between atoms: C_9  and  C_11
REMARK   11  A    between atoms: C_14  and  N_15
REMARK   12  A    between atoms: C_18  and  C_19
REMARK   13  A    between atoms: C_19  and  C_20
REMARK   14  A    between atoms: C_19  and  C_21
REMARK                            x       y       z     vdW  Elec       q    Type
REMARK                         _______ _______ _______ _____ _____    ______ ____
ROOT
ATOM      1  O   UNL     1       3.913   7.673  17.895  0.00  0.00    +0.000 OA
ENDROOT
BRANCH   1   2
ATOM      2  C   UNL     1       2.565   7.613  18.041  0.00  0.00    +0.000 C 
ATOM      3  O   UNL     1       1.761   8.380  17.520  0.00  0.00    +0.000 OA
BRANCH   2   4
ATOM      4  C   UNL     1       2.199   6.330  18.695  0.00  0.00    +0.000 A 
ATOM      5  C   UNL     1       2.128   6.294  20.092  0.00  0.00    +0.000 A 
ATOM      6  C   UNL     1       1.707   5.130  20.744  0.00  0.00    +0.000 A 
ATOM      7  C   UNL     1       1.313   4.003  20.015  0.00  0.00    +0.000 A 
ATOM      8  C   UNL     1       1.448   4.028  18.625  0.00  0.00    +0.000 A 
ATOM      9  C   UNL     1       1.865   5.188  17.963  0.00  0.00    +0.000 A 
BRANCH   7  10
ATOM     10  N   UNL     1       1.014   2.805  20.675  0.00  0.00    +0.000 N 
ATOM     11  H   UNL     1       1.354   1.977  20.205  0.00  0.00    +0.000 HD
ATOM     12  H   UNL     1       1.238   2.805  21.666  0.00  0.00    +0.000 HD
ENDBRANCH   7  10
ENDBRANCH   2   4
ENDBRANCH   1   2
BRANCH   1  13
ATOM     13  C   UNL     1       4.377   6.983  16.728  0.00  0.00    +0.000 C 
BRANCH  13  14
ATOM     14  C   UNL     1       5.507   5.944  17.002  0.00  0.00    +0.000 C 
BRANCH  14  15
ATOM     15  N   UNL     1       6.351   6.308  18.198  0.00  0.00    +0.000 NA
BRANCH  15  17
ATOM     16  C   UNL     1       5.209   4.255  19.268  0.00  0.00    +0.000 C 
ATOM     17  C   UNL     1       6.419   5.180  19.161  0.00  0.00    +0.000 C 
ENDBRANCH  15  17
BRANCH  15  18
ATOM     18  C   UNL     1       7.711   6.771  17.817  0.00  0.00    +0.000 C 
ATOM     19  C   UNL     1       7.908   8.287  17.736  0.00  0.00    +0.000 C 
ENDBRANCH  15  18
ENDBRANCH  14  15
BRANCH  14  20
ATOM     20  C   UNL     1       6.324   5.731  15.692  0.00  0.00    +0.000 C 
BRANCH  20  21
ATOM     21  C   UNL     1       6.557   4.284  15.200  0.00  0.00    +0.000 C 
ATOM     22  C   UNL     1       5.545   3.277  15.751  0.00  0.00    +0.000 C 
ATOM     23  C   UNL     1       6.476   4.280  13.665  0.00  0.00    +0.000 C 
ENDBRANCH  20  21
ENDBRANCH  14  20
ENDBRANCH  13  14
ENDBRANCH   1  13
TORSDOF 10
ENDMDL
MODEL 7
REMARK VINA RESULT:      -6.0      3.234      4.971
REMARK  Name = 
REMARK  14 active torsions:
REMARK  status: ('A' for Active; 'I' for Inactive)
REMARK    1  A    between atoms: C_1  and  C_2
REMARK    2  A    between atoms: C_2  and  N_3
REMARK    3  A    between atoms: N_3  and  C_4
REMARK    4  A    between atoms: N_3  and  C_6
REMARK    5  A    between atoms: C_4  and  C_5
REMARK    6  A    between atoms: C_6  and  C_7
REMARK    7  A    between atoms: C_6  and  C_18
REMARK    8  A    between atoms: C_7  and  O_8
REMARK    9  A    between atoms: O_8  and  C_9
REMARK   10  A    between atoms: C_9  and  C_11
REMARK   11  A    between atoms: C_14  and  N_15
REMARK   12  A    between atoms: C_18  and  C_19
REMARK   13  A    between atoms: C_19  and  C_20
REMARK   14  A    between atoms: C_19  and  C_21
REMARK                            x       y       z     vdW  Elec       q    Type
REMARK                         _______ _______ _______ _____ _____    ______ ____
ROOT
ATOM      1  O   UNL     1       2.483   7.620  19.020  0.00  0.00    +0.000 OA
ENDROOT
BRANCH   1   2
ATOM      2  C   UNL     1       1.854   8.769  18.668  0.00  0.00    +0.000 C 
ATOM      3  O   UNL     1       1.787   9.220  17.529  0.00  0.00    +0.000 OA
BRANCH   2   4
ATOM      4  C   UNL     1       1.035   9.251  19.810  0.00  0.00    +0.000 A 
ATOM      5  C   UNL     1       1.140   8.578  21.033  0.00  0.00    +0.000 A 
ATOM      6  C   UNL     1       0.450   9.048  22.155  0.00  0.00    +0.000 A 
ATOM      7  C   UNL     1      -0.320  10.215  22.086  0.00  0.00    +0.000 A 
ATOM      8  C   UNL     1      -0.469  10.843  20.847  0.00  0.00    +0.000 A 
ATOM      9  C   UNL     1       0.220  10.382  19.720  0.00  0.00    +0.000 A 
BRANCH   7  10
ATOM     10  N   UNL     1      -1.105  10.607  23.177  0.00  0.00    +0.000 N 
ATOM     11  H   UNL     1      -0.739  10.320  24.075  0.00  0.00    +0.000 HD
ATOM     12  H   UNL     1      -1.379  11.585  23.167  0.00  0.00    +0.000 HD
ENDBRANCH   7  10
ENDBRANCH   2   4
ENDBRANCH   1   2
BRANCH   1  13
ATOM     13  C   UNL     1       2.660   6.723  17.917  0.00  0.00    +0.000 C 
BRANCH  13  14
ATOM     14  C   UNL     1       2.932   5.244  18.329  0.00  0.00    +0.000 C 
BRANCH  14  15
ATOM     15  N   UNL     1       4.259   4.735  17.823  0.00  0.00    +0.000 NA
BRANCH  15  17
ATOM     16  C   UNL     1       5.400   5.239  15.563  0.00  0.00    +0.000 C 
ATOM     17  C   UNL     1       4.894   5.726  16.918  0.00  0.00    +0.000 C 
ENDBRANCH  15  17
BRANCH  15  18
ATOM     18  C   UNL     1       5.178   4.347  18.923  0.00  0.00    +0.000 C 
ATOM     19  C   UNL     1       6.313   5.328  19.229  0.00  0.00    +0.000 C 
ENDBRANCH  15  18
ENDBRANCH  14  15
BRANCH  14  20
ATOM     20  C   UNL     1       1.715   4.369  17.900  0.00  0.00    +0.000 C 
BRANCH  20  21
ATOM     21  C   UNL     1       1.106   3.398  18.938  0.00  0.00    +0.000 C 
ATOM     22  C   UNL     1       1.875   2.083  19.074  0.00  0.00    +0.000 C 
ATOM     23  C   UNL     1       1.085   4.106  20.302  0.00  0.00    +0.000 C 
ENDBRANCH  20  21
ENDBRANCH  14  20
ENDBRANCH  13  14
ENDBRANCH   1  13
TORSDOF 10
ENDMDL
MODEL 8
REMARK VINA RESULT:      -6.0      2.468      6.311
REMARK  Name = 
REMARK  14 active torsions:
REMARK  status: ('A' for Active; 'I' for Inactive)
REMARK    1  A    between atoms: C_1  and  C_2
REMARK    2  A    between atoms: C_2  and  N_3
REMARK    3  A    between atoms: N_3  and  C_4
REMARK    4  A    between atoms: N_3  and  C_6
REMARK    5  A    between atoms: C_4  and  C_5
REMARK    6  A    between atoms: C_6  and  C_7
REMARK    7  A    between atoms: C_6  and  C_18
REMARK    8  A    between atoms: C_7  and  O_8
REMARK    9  A    between atoms: O_8  and  C_9
REMARK   10  A    between atoms: C_9  and  C_11
REMARK   11  A    between atoms: C_14  and  N_15
REMARK   12  A    between atoms: C_18  and  C_19
REMARK   13  A    between atoms: C_19  and  C_20
REMARK   14  A    between atoms: C_19  and  C_21
REMARK                            x       y       z     vdW  Elec       q    Type
REMARK                         _______ _______ _______ _____ _____    ______ ____
ROOT
ATOM      1  O   UNL     1       3.683   2.625  17.891  0.00  0.00    +0.000 OA
ENDROOT
BRANCH   1   2
ATOM      2  C   UNL     1       4.707   3.353  18.403  0.00  0.00    +0.000 C 
ATOM      3  O   UNL     1       5.032   3.386  19.586  0.00  0.00    +0.000 OA
BRANCH   2   4
ATOM      4  C   UNL     1       5.536   3.885  17.290  0.00  0.00    +0.000 A 
ATOM      5  C   UNL     1       5.044   3.775  15.984  0.00  0.00    +0.000 A 
ATOM      6  C   UNL     1       5.755   4.334  14.917  0.00  0.00    +0.000 A 
ATOM      7  C   UNL     1       6.939   5.045  15.139  0.00  0.00    +0.000 A 
ATOM      8  C   UNL     1       7.454   5.094  16.436  0.00  0.00    +0.000 A 
ATOM      9  C   UNL     1       6.750   4.540  17.511  0.00  0.00    +0.000 A 
BRANCH   7  10
ATOM     10  N   UNL     1       7.706   5.492  14.056  0.00  0.00    +0.000 N 
ATOM     11  H   UNL     1       7.174   5.967  13.340  0.00  0.00    +0.000 HD
ATOM     12  H   UNL     1       8.543   6.004  14.317  0.00  0.00    +0.000 HD
ENDBRANCH   7  10
ENDBRANCH   2   4
ENDBRANCH   1   2
BRANCH   1  13
ATOM     13  C   UNL     1       2.463   3.370  17.799  0.00  0.00    +0.000 C 
BRANCH  13  14
ATOM     14  C   UNL     1       2.424   4.650  18.689  0.00  0.00    +0.000 C 
BRANCH  14  15
ATOM     15  N   UNL     1       1.411   4.550  19.803  0.00  0.00    +0.000 NA
BRANCH  15  17
ATOM     16  C   UNL     1       1.538   2.675  21.572  0.00  0.00    +0.000 C 
ATOM     17  C   UNL     1       1.161   3.132  20.165  0.00  0.00    +0.000 C 
ENDBRANCH  15  17
BRANCH  15  18
ATOM     18  C   UNL     1       1.793   5.349  20.995  0.00  0.00    +0.000 C 
ATOM     19  C   UNL     1       1.270   6.787  21.038  0.00  0.00    +0.000 C 
ENDBRANCH  15  18
ENDBRANCH  14  15
BRANCH  14  20
ATOM     20  C   UNL     1       2.235   5.896  17.772  0.00  0.00    +0.000 C 
BRANCH  20  21
ATOM     21  C   UNL     1       3.125   7.135  18.025  0.00  0.00    +0.000 C 
ATOM     22  C   UNL     1       4.320   7.237  17.075  0.00  0.00    +0.000 C 
ATOM     23  C   UNL     1       2.254   8.392  17.865  0.00  0.00    +0.000 C 
ENDBRANCH  20  21
ENDBRANCH  14  20
ENDBRANCH  13  14
ENDBRANCH   1  13
TORSDOF 10
ENDMDL
MODEL 9
REMARK VINA RESULT:      -6.0      2.460      6.348
REMARK  Name = 
REMARK  14 active torsions:
REMARK  status: ('A' for Active; 'I' for Inactive)
REMARK    1  A    between atoms: C_1  and  C_2
REMARK    2  A    between atoms: C_2  and  N_3
REMARK    3  A    between atoms: N_3  and  C_4
REMARK    4  A    between atoms: N_3  and  C_6
REMARK    5  A    between atoms: C_4  and  C_5
REMARK    6  A    between atoms: C_6  and  C_7
REMARK    7  A    between atoms: C_6  and  C_18
REMARK    8  A    between atoms: C_7  and  O_8
REMARK    9  A    between atoms: O_8  and  C_9
REMARK   10  A    between atoms: C_9  and  C_11
REMARK   11  A    between atoms: C_14  and  N_15
REMARK   12  A    between atoms: C_18  and  C_19
REMARK   13  A    between atoms: C_19  and  C_20
REMARK   14  A    between atoms: C_19  and  C_21
REMARK                            x       y       z     vdW  Elec       q    Type
REMARK                         _______ _______ _______ _____ _____    ______ ____
ROOT
ATOM      1  O   UNL     1       5.890   5.751  18.263  0.00  0.00    +0.000 OA
ENDROOT
BRANCH   1   2
ATOM      2  C   UNL     1       6.941   5.039  17.782  0.00  0.00    +0.000 C 
ATOM      3  O   UNL     1       7.868   4.602  18.456  0.00  0.00    +0.000 OA
BRANCH   2   4
ATOM      4  C   UNL     1       6.662   4.638  16.379  0.00  0.00    +0.000 A 
ATOM      5  C   UNL     1       5.509   3.886  16.120  0.00  0.00    +0.000 A 
ATOM      6  C   UNL     1       5.167   3.558  14.804  0.00  0.00    +0.000 A 
ATOM      7  C   UNL     1       5.941   4.007  13.728  0.00  0.00    +0.000 A 
ATOM      8  C   UNL     1       7.122   4.700  14.001  0.00  0.00    +0.000 A 
ATOM      9  C   UNL     1       7.472   5.036  15.314  0.00  0.00    +0.000 A 
BRANCH   7  10
ATOM     10  N   UNL     1       5.661   3.569  12.428  0.00  0.00    +0.000 N 
ATOM     11  H   UNL     1       4.676   3.458  12.232  0.00  0.00    +0.000 HD
ATOM     12  H   UNL     1       6.144   4.086  11.699  0.00  0.00    +0.000 HD
ENDBRANCH   7  10
ENDBRANCH   2   4
ENDBRANCH   1   2
BRANCH   1  13
ATOM     13  C   UNL     1       5.339   5.189  19.460  0.00  0.00    +0.000 C 
BRANCH  13  14
ATOM     14  C   UNL     1       3.783   5.252  19.543  0.00  0.00    +0.000 C 
BRANCH  14  15
ATOM     15  N   UNL     1       3.158   3.895  19.752  0.00  0.00    +0.000 NA
BRANCH  15  17
ATOM     16  C   UNL     1       1.968   2.889  21.810  0.00  0.00    +0.000 C 
ATOM     17  C   UNL     1       2.048   3.970  20.736  0.00  0.00    +0.000 C 
ENDBRANCH  15  17
BRANCH  15  18
ATOM     18  C   UNL     1       2.707   3.272  18.481  0.00  0.00    +0.000 C 
ATOM     19  C   UNL     1       1.203   3.012  18.356  0.00  0.00    +0.000 C 
ENDBRANCH  15  18
ENDBRANCH  14  15
BRANCH  14  20
ATOM     20  C   UNL     1       3.243   6.011  18.294  0.00  0.00    +0.000 C 
BRANCH  20  21
ATOM     21  C   UNL     1       2.216   7.146  18.512  0.00  0.00    +0.000 C 
ATOM     22  C   UNL     1       2.029   7.532  19.981  0.00  0.00    +0.000 C 
ATOM     23  C   UNL     1       2.692   8.381  17.731  0.00  0.00    +0.000 C 
ENDBRANCH  20  21
ENDBRANCH  14  20
ENDBRANCH  13  14
ENDBRANCH   1  13
TORSDOF 10
ENDMDL
