MODEL 1
REMARK VINA RESULT:      -6.7      0.000      0.000
REMARK  Name = 
REMARK  6 active torsions:
REMARK  status: ('A' for Active; 'I' for Inactive)
REMARK    1  A    between atoms: C_2  and  C_3
REMARK    2  A    between atoms: C_2  and  C_10
REMARK    3  A    between atoms: C_3  and  S_4
REMARK    4  A    between atoms: S_4  and  C_5
REMARK    5  A    between atoms: C_13  and  O_14
REMARK    6  A    between atoms: C_15  and  O_16
REMARK                            x       y       z     vdW  Elec       q    Type
REMARK                         _______ _______ _______ _____ _____    ______ ____
ROOT
ATOM      1  O   UNL     1       4.533   6.641  17.716  0.00  0.00    +0.000 OA
ATOM      2  C   UNL     1       4.445   5.629  17.006  0.00  0.00    +0.000 C 
ENDROOT
BRANCH   2   3
ATOM      3  C   UNL     1       3.591   4.516  17.494  0.00  0.00    +0.000 A 
ATOM      4  C   UNL     1       2.237   4.779  17.769  0.00  0.00    +0.000 A 
ATOM      5  C   UNL     1       1.385   3.757  18.197  0.00  0.00    +0.000 A 
ATOM      6  C   UNL     1       1.895   2.474  18.343  0.00  0.00    +0.000 A 
ATOM      7  C   UNL     1       3.240   2.218  18.083  0.00  0.00    +0.000 A 
ATOM      8  C   UNL     1       4.098   3.226  17.664  0.00  0.00    +0.000 A 
BRANCH   6   9
ATOM      9  O   UNL     1       1.116   1.426  18.746  0.00  0.00    +0.000 OA
ATOM     10  H   UNL     1       0.371   1.777  19.262  0.00  0.00    +0.000 HD
ENDBRANCH   6   9
BRANCH   7  11
ATOM     11  O   UNL     1       3.737   0.956  18.248  0.00  0.00    +0.000 OA
ATOM     12  H   UNL     1       4.138   0.732  17.383  0.00  0.00    +0.000 HD
ENDBRANCH   7  11
ENDBRANCH   2   3
BRANCH   2  13
ATOM     13  C   UNL     1       5.114   5.487  15.651  0.00  0.00    +0.000 C 
BRANCH  13  14
ATOM     14  S   UNL     1       6.729   4.641  15.759  0.00  0.00    +0.000 S 
BRANCH  14  15
ATOM     15  C   UNL     1       7.385   5.337  17.194  0.00  0.00    +0.000 A 
ATOM     16  N   UNL     1       7.520   4.762  18.366  0.00  0.00    +0.000 NA
ATOM     17  C   UNL     1       7.877   5.779  19.218  0.00  0.00    +0.000 A 
ATOM     18  C   UNL     1       8.004   6.971  18.539  0.00  0.00    +0.000 A 
ATOM     19  N   UNL     1       7.711   6.665  17.236  0.00  0.00    +0.000 N 
ATOM     20  H   UNL     1       7.643   7.310  16.462  0.00  0.00    +0.000 HD
ENDBRANCH  14  15
ENDBRANCH  13  14
ENDBRANCH   2  13
TORSDOF 6
ENDMDL
MODEL 2
REMARK VINA RESULT:      -6.7      1.594      1.951
REMARK  Name = 
REMARK  6 active torsions:
REMARK  status: ('A' for Active; 'I' for Inactive)
REMARK    1  A    between atoms: C_2  and  C_3
REMARK    2  A    between atoms: C_2  and  C_10
REMARK    3  A    between atoms: C_3  and  S_4
REMARK    4  A    between atoms: S_4  and  C_5
REMARK    5  A    between atoms: C_13  and  O_14
REMARK    6  A    between atoms: C_15  and  O_16
REMARK                            x       y       z     vdW  Elec       q    Type
REMARK                         _______ _______ _______ _____ _____    ______ ____
ROOT
ATOM      1  O   UNL     1       4.532   6.348  16.642  0.00  0.00    +0.000 OA
ATOM      2  C   UNL     1       4.359   5.135  16.824  0.00  0.00    +0.000 C 
ENDROOT
BRANCH   2   3
ATOM      3  C   UNL     1       3.339   4.726  17.823  0.00  0.00    +0.000 A 
ATOM      4  C   UNL     1       2.358   3.795  17.440  0.00  0.00    +0.000 A 
ATOM      5  C   UNL     1       1.397   3.353  18.354  0.00  0.00    +0.000 A 
ATOM      6  C   UNL     1       1.428   3.845  19.652  0.00  0.00    +0.000 A 
ATOM      7  C   UNL     1       2.394   4.778  20.027  0.00  0.00    +0.000 A 
ATOM      8  C   UNL     1       3.349   5.230  19.126  0.00  0.00    +0.000 A 
BRANCH   6   9
ATOM      9  O   UNL     1       0.529   3.448  20.600  0.00  0.00    +0.000 OA
ATOM     10  H   UNL     1       0.724   2.527  20.842  0.00  0.00    +0.000 HD
ENDBRANCH   6   9
BRANCH   7  11
ATOM     11  O   UNL     1       2.404   5.271  21.301  0.00  0.00    +0.000 OA
ATOM     12  H   UNL     1       3.198   4.874  21.714  0.00  0.00    +0.000 HD
ENDBRANCH   7  11
ENDBRANCH   2   3
BRANCH   2  13
ATOM     13  C   UNL     1       5.088   4.051  16.050  0.00  0.00    +0.000 C 
BRANCH  13  14
ATOM     14  S   UNL     1       6.754   4.580  15.518  0.00  0.00    +0.000 S 
BRANCH  14  15
ATOM     15  C   UNL     1       7.367   5.289  16.966  0.00  0.00    +0.000 A 
ATOM     16  N   UNL     1       7.550   4.697  18.124  0.00  0.00    +0.000 NA
ATOM     17  C   UNL     1       7.838   5.718  18.998  0.00  0.00    +0.000 A 
ATOM     18  C   UNL     1       7.874   6.931  18.347  0.00  0.00    +0.000 A 
ATOM     19  N   UNL     1       7.595   6.635  17.038  0.00  0.00    +0.000 N 
ATOM     20  H   UNL     1       7.476   7.292  16.280  0.00  0.00    +0.000 HD
ENDBRANCH  14  15
ENDBRANCH  13  14
ENDBRANCH   2  13
TORSDOF 6
ENDMDL
MODEL 3
REMARK VINA RESULT:      -6.4      2.244      3.010
REMARK  Name = 
REMARK  6 active torsions:
REMARK  status: ('A' for Active; 'I' for Inactive)
REMARK    1  A    between atoms: C_2  and  C_3
REMARK    2  A    between atoms: C_2  and  C_10
REMARK    3  A    between atoms: C_3  and  S_4
REMARK    4  A    between atoms: S_4  and  C_5
REMARK    5  A    between atoms: C_13  and  O_14
REMARK    6  A    between atoms: C_15  and  O_16
REMARK                            x       y       z     vdW  Elec       q    Type
REMARK                         _______ _______ _______ _____ _____    ______ ____
ROOT
ATOM      1  O   UNL     1       6.149   5.089  19.855  0.00  0.00    +0.000 OA
ATOM      2  C   UNL     1       5.250   5.172  19.005  0.00  0.00    +0.000 C 
ENDROOT
BRANCH   2   3
ATOM      3  C   UNL     1       3.936   4.561  19.332  0.00  0.00    +0.000 A 
ATOM      4  C   UNL     1       3.015   5.313  20.083  0.00  0.00    +0.000 A 
ATOM      5  C   UNL     1       1.752   4.796  20.386  0.00  0.00    +0.000 A 
ATOM      6  C   UNL     1       1.417   3.528  19.930  0.00  0.00    +0.000 A 
ATOM      7  C   UNL     1       2.337   2.780  19.196  0.00  0.00    +0.000 A 
ATOM      8  C   UNL     1       3.597   3.279  18.895  0.00  0.00    +0.000 A 
BRANCH   6   9
ATOM      9  O   UNL     1       0.197   2.966  20.178  0.00  0.00    +0.000 OA
ATOM     10  H   UNL     1       0.212   2.583  21.072  0.00  0.00    +0.000 HD
ENDBRANCH   6   9
BRANCH   7  11
ATOM     11  O   UNL     1       2.006   1.525  18.769  0.00  0.00    +0.000 OA
ATOM     12  H   UNL     1       2.672   0.939  19.182  0.00  0.00    +0.000 HD
ENDBRANCH   7  11
ENDBRANCH   2   3
BRANCH   2  13
ATOM     13  C   UNL     1       5.401   5.902  17.683  0.00  0.00    +0.000 C 
BRANCH  13  14
ATOM     14  S   UNL     1       7.132   5.936  17.103  0.00  0.00    +0.000 S 
BRANCH  14  15
ATOM     15  C   UNL     1       7.001   5.126  15.585  0.00  0.00    +0.000 A 
ATOM     16  N   UNL     1       7.646   5.406  14.477  0.00  0.00    +0.000 NA
ATOM     17  C   UNL     1       7.041   4.635  13.514  0.00  0.00    +0.000 A 
ATOM     18  C   UNL     1       6.051   3.848  14.060  0.00  0.00    +0.000 A 
ATOM     19  N   UNL     1       6.055   4.156  15.396  0.00  0.00    +0.000 N 
ATOM     20  H   UNL     1       5.416   3.814  16.098  0.00  0.00    +0.000 HD
ENDBRANCH  14  15
ENDBRANCH  13  14
ENDBRANCH   2  13
TORSDOF 6
ENDMDL
MODEL 4
REMARK VINA RESULT:      -6.4      2.224      3.257
REMARK  Name = 
REMARK  6 active torsions:
REMARK  status: ('A' for Active; 'I' for Inactive)
REMARK    1  A    between atoms: C_2  and  C_3
REMARK    2  A    between atoms: C_2  and  C_10
REMARK    3  A    between atoms: C_3  and  S_4
REMARK    4  A    between atoms: S_4  and  C_5
REMARK    5  A    between atoms: C_13  and  O_14
REMARK    6  A    between atoms: C_15  and  O_16
REMARK                            x       y       z     vdW  Elec       q    Type
REMARK                         _______ _______ _______ _____ _____    ______ ____
ROOT
ATOM      1  O   UNL     1       4.623   6.822  16.289  0.00  0.00    +0.000 OA
ATOM      2  C   UNL     1       4.861   6.312  17.393  0.00  0.00    +0.000 C 
ENDROOT
BRANCH   2   3
ATOM      3  C   UNL     1       3.739   5.640  18.098  0.00  0.00    +0.000 A 
ATOM      4  C   UNL     1       3.135   4.525  17.489  0.00  0.00    +0.000 A 
ATOM      5  C   UNL     1       2.099   3.838  18.129  0.00  0.00    +0.000 A 
ATOM      6  C   UNL     1       1.676   4.270  19.378  0.00  0.00    +0.000 A 
ATOM      7  C   UNL     1       2.267   5.383  19.974  0.00  0.00    +0.000 A 
ATOM      8  C   UNL     1       3.292   6.079  19.346  0.00  0.00    +0.000 A 
BRANCH   6   9
ATOM      9  O   UNL     1       0.678   3.639  20.065  0.00  0.00    +0.000 OA
ATOM     10  H   UNL     1      -0.008   3.368  19.431  0.00  0.00    +0.000 HD
ENDBRANCH   6   9
BRANCH   7  11
ATOM     11  O   UNL     1       1.831   5.813  21.195  0.00  0.00    +0.000 OA
ATOM     12  H   UNL     1       1.201   5.124  21.489  0.00  0.00    +0.000 HD
ENDBRANCH   7  11
ENDBRANCH   2   3
BRANCH   2  13
ATOM     13  C   UNL     1       6.236   6.289  18.035  0.00  0.00    +0.000 C 
BRANCH  13  14
ATOM     14  S   UNL     1       7.088   4.691  17.795  0.00  0.00    +0.000 S 
BRANCH  14  15
ATOM     15  C   UNL     1       6.989   4.504  16.083  0.00  0.00    +0.000 A 
ATOM     16  N   UNL     1       7.528   5.276  15.168  0.00  0.00    +0.000 NA
ATOM     17  C   UNL     1       6.986   4.844  13.981  0.00  0.00    +0.000 A 
ATOM     18  C   UNL     1       6.147   3.770  14.183  0.00  0.00    +0.000 A 
ATOM     19  N   UNL     1       6.181   3.547  15.535  0.00  0.00    +0.000 N 
ATOM     20  H   UNL     1       5.635   2.874  16.052  0.00  0.00    +0.000 HD
ENDBRANCH  14  15
ENDBRANCH  13  14
ENDBRANCH   2  13
TORSDOF 6
ENDMDL
MODEL 5
REMARK VINA RESULT:      -6.4      2.199      3.086
REMARK  Name = 
REMARK  6 active torsions:
REMARK  status: ('A' for Active; 'I' for Inactive)
REMARK    1  A    between atoms: C_2  and  C_3
REMARK    2  A    between atoms: C_2  and  C_10
REMARK    3  A    between atoms: C_3  and  S_4
REMARK    4  A    between atoms: S_4  and  C_5
REMARK    5  A    between atoms: C_13  and  O_14
REMARK    6  A    between atoms: C_15  and  O_16
REMARK                            x       y       z     vdW  Elec       q    Type
REMARK                         _______ _______ _______ _____ _____    ______ ____
ROOT
ATOM      1  O   UNL     1       5.972   4.226  19.518  0.00  0.00    +0.000 OA
ATOM      2  C   UNL     1       5.083   4.715  18.806  0.00  0.00    +0.000 C 
ENDROOT
BRANCH   2   3
ATOM      3  C   UNL     1       3.792   3.985  18.717  0.00  0.00    +0.000 A 
ATOM      4  C   UNL     1       3.660   2.968  17.756  0.00  0.00    +0.000 A 
ATOM      5  C   UNL     1       2.477   2.230  17.657  0.00  0.00    +0.000 A 
ATOM      6  C   UNL     1       1.433   2.513  18.527  0.00  0.00    +0.000 A 
ATOM      7  C   UNL     1       1.562   3.531  19.471  0.00  0.00    +0.000 A 
ATOM      8  C   UNL     1       2.729   4.276  19.574  0.00  0.00    +0.000 A 
BRANCH   6   9
ATOM      9  O   UNL     1       0.255   1.823  18.495  0.00  0.00    +0.000 OA
ATOM     10  H   UNL     1      -0.048   1.689  19.409  0.00  0.00    +0.000 HD
ENDBRANCH   6   9
BRANCH   7  11
ATOM     11  O   UNL     1       0.522   3.815  20.310  0.00  0.00    +0.000 OA
ATOM     12  H   UNL     1      -0.275   3.511  19.828  0.00  0.00    +0.000 HD
ENDBRANCH   7  11
ENDBRANCH   2   3
BRANCH   2  13
ATOM     13  C   UNL     1       5.221   6.034  18.068  0.00  0.00    +0.000 C 
BRANCH  13  14
ATOM     14  S   UNL     1       6.881   6.251  17.338  0.00  0.00    +0.000 S 
BRANCH  14  15
ATOM     15  C   UNL     1       6.726   5.367  15.865  0.00  0.00    +0.000 A 
ATOM     16  N   UNL     1       7.634   5.218  14.929  0.00  0.00    +0.000 NA
ATOM     17  C   UNL     1       6.965   4.630  13.881  0.00  0.00    +0.000 A 
ATOM     18  C   UNL     1       5.651   4.382  14.211  0.00  0.00    +0.000 A 
ATOM     19  N   UNL     1       5.520   4.836  15.497  0.00  0.00    +0.000 N 
ATOM     20  H   UNL     1       4.672   4.872  16.044  0.00  0.00    +0.000 HD
ENDBRANCH  14  15
ENDBRANCH  13  14
ENDBRANCH   2  13
TORSDOF 6
ENDMDL
MODEL 6
REMARK VINA RESULT:      -6.4      3.225      5.797
REMARK  Name = 
REMARK  6 active torsions:
REMARK  status: ('A' for Active; 'I' for Inactive)
REMARK    1  A    between atoms: C_2  and  C_3
REMARK    2  A    between atoms: C_2  and  C_10
REMARK    3  A    between atoms: C_3  and  S_4
REMARK    4  A    between atoms: S_4  and  C_5
REMARK    5  A    between atoms: C_13  and  O_14
REMARK    6  A    between atoms: C_15  and  O_16
REMARK                            x       y       z     vdW  Elec       q    Type
REMARK                         _______ _______ _______ _____ _____    ______ ____
ROOT
ATOM      1  O   UNL     1       5.225   3.793  15.592  0.00  0.00    +0.000 OA
ATOM      2  C   UNL     1       4.926   4.342  16.663  0.00  0.00    +0.000 C 
ENDROOT
BRANCH   2   3
ATOM      3  C   UNL     1       5.958   5.188  17.315  0.00  0.00    +0.000 A 
ATOM      4  C   UNL     1       6.411   6.336  16.641  0.00  0.00    +0.000 A 
ATOM      5  C   UNL     1       7.356   7.182  17.229  0.00  0.00    +0.000 A 
ATOM      6  C   UNL     1       7.839   6.874  18.494  0.00  0.00    +0.000 A 
ATOM      7  C   UNL     1       7.399   5.729  19.155  0.00  0.00    +0.000 A 
ATOM      8  C   UNL     1       6.466   4.876  18.578  0.00  0.00    +0.000 A 
BRANCH   6   9
ATOM      9  O   UNL     1       8.753   7.663  19.132  0.00  0.00    +0.000 OA
ATOM     10  H   UNL     1       9.571   7.673  18.606  0.00  0.00    +0.000 HD
ENDBRANCH   6   9
BRANCH   7  11
ATOM     11  O   UNL     1       7.895   5.424  20.391  0.00  0.00    +0.000 OA
ATOM     12  H   UNL     1       7.598   6.159  20.965  0.00  0.00    +0.000 HD
ENDBRANCH   7  11
ENDBRANCH   2   3
BRANCH   2  13
ATOM     13  C   UNL     1       3.557   4.242  17.310  0.00  0.00    +0.000 C 
BRANCH  13  14
ATOM     14  S   UNL     1       3.199   2.558  17.920  0.00  0.00    +0.000 S 
BRANCH  14  15
ATOM     15  C   UNL     1       2.608   2.886  19.507  0.00  0.00    +0.000 A 
ATOM     16  N   UNL     1       1.683   2.224  20.162  0.00  0.00    +0.000 NA
ATOM     17  C   UNL     1       1.416   2.995  21.268  0.00  0.00    +0.000 A 
ATOM     18  C   UNL     1       2.224   4.110  21.300  0.00  0.00    +0.000 A 
ATOM     19  N   UNL     1       3.002   4.012  20.175  0.00  0.00    +0.000 N 
ATOM     20  H   UNL     1       3.670   4.690  19.840  0.00  0.00    +0.000 HD
ENDBRANCH  14  15
ENDBRANCH  13  14
ENDBRANCH   2  13
TORSDOF 6
ENDMDL
MODEL 7
REMARK VINA RESULT:      -6.4      1.464      2.334
REMARK  Name = 
REMARK  6 active torsions:
REMARK  status: ('A' for Active; 'I' for Inactive)
REMARK    1  A    between atoms: C_2  and  C_3
REMARK    2  A    between atoms: C_2  and  C_10
REMARK    3  A    between atoms: C_3  and  S_4
REMARK    4  A    between atoms: S_4  and  C_5
REMARK    5  A    between atoms: C_13  and  O_14
REMARK    6  A    between atoms: C_15  and  O_16
REMARK                            x       y       z     vdW  Elec       q    Type
REMARK                         _______ _______ _______ _____ _____    ______ ____
ROOT
ATOM      1  O   UNL     1       4.457   6.755  17.747  0.00  0.00    +0.000 OA
ATOM      2  C   UNL     1       4.691   5.722  18.391  0.00  0.00    +0.000 C 
ENDROOT
BRANCH   2   3
ATOM      3  C   UNL     1       3.654   4.658  18.387  0.00  0.00    +0.000 A 
ATOM      4  C   UNL     1       2.307   5.033  18.232  0.00  0.00    +0.000 A 
ATOM      5  C   UNL     1       1.299   4.066  18.187  0.00  0.00    +0.000 A 
ATOM      6  C   UNL     1       1.646   2.727  18.294  0.00  0.00    +0.000 A 
ATOM      7  C   UNL     1       2.980   2.358  18.461  0.00  0.00    +0.000 A 
ATOM      8  C   UNL     1       3.991   3.309  18.514  0.00  0.00    +0.000 A 
BRANCH   6   9
ATOM      9  O   UNL     1       0.714   1.729  18.246  0.00  0.00    +0.000 OA
ATOM     10  H   UNL     1       0.831   1.162  19.027  0.00  0.00    +0.000 HD
ENDBRANCH   6   9
BRANCH   7  11
ATOM     11  O   UNL     1       3.311   1.038  18.585  0.00  0.00    +0.000 OA
ATOM     12  H   UNL     1       4.286   1.034  18.670  0.00  0.00    +0.000 HD
ENDBRANCH   7  11
ENDBRANCH   2   3
BRANCH   2  13
ATOM     13  C   UNL     1       5.989   5.464  19.132  0.00  0.00    +0.000 C 
BRANCH  13  14
ATOM     14  S   UNL     1       7.453   5.988  18.173  0.00  0.00    +0.000 S 
BRANCH  14  15
ATOM     15  C   UNL     1       7.141   5.253  16.643  0.00  0.00    +0.000 A 
ATOM     16  N   UNL     1       7.171   5.829  15.465  0.00  0.00    +0.000 NA
ATOM     17  C   UNL     1       6.643   4.897  14.604  0.00  0.00    +0.000 A 
ATOM     18  C   UNL     1       6.336   3.730  15.268  0.00  0.00    +0.000 A 
ATOM     19  N   UNL     1       6.686   3.965  16.572  0.00  0.00    +0.000 N 
ATOM     20  H   UNL     1       6.543   3.348  17.359  0.00  0.00    +0.000 HD
ENDBRANCH  14  15
ENDBRANCH  13  14
ENDBRANCH   2  13
TORSDOF 6
ENDMDL
MODEL 8
REMARK VINA RESULT:      -6.3      1.912      2.637
REMARK  Name = 
REMARK  6 active torsions:
REMARK  status: ('A' for Active; 'I' for Inactive)
REMARK    1  A    between atoms: C_2  and  C_3
REMARK    2  A    between atoms: C_2  and  C_10
REMARK    3  A    between atoms: C_3  and  S_4
REMARK    4  A    between atoms: S_4  and  C_5
REMARK    5  A    between atoms: C_13  and  O_14
REMARK    6  A    between atoms: C_15  and  O_16
REMARK                            x       y       z     vdW  Elec       q    Type
REMARK                         _______ _______ _______ _____ _____    ______ ____
ROOT
ATOM      1  O   UNL     1       4.499   6.550  16.638  0.00  0.00    +0.000 OA
ATOM      2  C   UNL     1       4.763   5.978  17.706  0.00  0.00    +0.000 C 
ENDROOT
BRANCH   2   3
ATOM      3  C   UNL     1       3.683   5.185  18.348  0.00  0.00    +0.000 A 
ATOM      4  C   UNL     1       2.996   5.746  19.439  0.00  0.00    +0.000 A 
ATOM      5  C   UNL     1       1.950   5.053  20.055  0.00  0.00    +0.000 A 
ATOM      6  C   UNL     1       1.594   3.802  19.570  0.00  0.00    +0.000 A 
ATOM      7  C   UNL     1       2.286   3.243  18.496  0.00  0.00    +0.000 A 
ATOM      8  C   UNL     1       3.332   3.917  17.881  0.00  0.00    +0.000 A 
BRANCH   6   9
ATOM      9  O   UNL     1       0.574   3.076  20.115  0.00  0.00    +0.000 OA
ATOM     10  H   UNL     1       0.632   3.144  21.084  0.00  0.00    +0.000 HD
ENDBRANCH   6   9
BRANCH   7  11
ATOM     11  O   UNL     1       1.941   2.002  18.039  0.00  0.00    +0.000 OA
ATOM     12  H   UNL     1       2.552   1.390  18.499  0.00  0.00    +0.000 HD
ENDBRANCH   7  11
ENDBRANCH   2   3
BRANCH   2  13
ATOM     13  C   UNL     1       6.132   6.000  18.360  0.00  0.00    +0.000 C 
BRANCH  13  14
ATOM     14  S   UNL     1       7.187   4.615  17.808  0.00  0.00    +0.000 S 
BRANCH  14  15
ATOM     15  C   UNL     1       6.798   4.535  16.130  0.00  0.00    +0.000 A 
ATOM     16  N   UNL     1       6.093   3.610  15.521  0.00  0.00    +0.000 NA
ATOM     17  C   UNL     1       6.254   3.871  14.181  0.00  0.00    +0.000 A 
ATOM     18  C   UNL     1       7.027   4.994  13.986  0.00  0.00    +0.000 A 
ATOM     19  N   UNL     1       7.347   5.424  15.247  0.00  0.00    +0.000 N 
ATOM     20  H   UNL     1       7.958   6.190  15.489  0.00  0.00    +0.000 HD
ENDBRANCH  14  15
ENDBRANCH  13  14
ENDBRANCH   2  13
TORSDOF 6
ENDMDL
MODEL 9
REMARK VINA RESULT:      -6.3      3.083      5.310
REMARK  Name = 
REMARK  6 active torsions:
REMARK  status: ('A' for Active; 'I' for Inactive)
REMARK    1  A    between atoms: C_2  and  C_3
REMARK    2  A    between atoms: C_2  and  C_10
REMARK    3  A    between atoms: C_3  and  S_4
REMARK    4  A    between atoms: S_4  and  C_5
REMARK    5  A    between atoms: C_13  and  O_14
REMARK    6  A    between atoms: C_15  and  O_16
REMARK                            x       y       z     vdW  Elec       q    Type
REMARK                         _______ _______ _______ _____ _____    ______ ____
ROOT
ATOM      1  O   UNL     1       2.054   3.620  16.946  0.00  0.00    +0.000 OA
ATOM      2  C   UNL     1       3.207   3.359  17.319  0.00  0.00    +0.000 C 
ENDROOT
BRANCH   2   3
ATOM      3  C   UNL     1       4.251   4.394  17.109  0.00  0.00    +0.000 A 
ATOM      4  C   UNL     1       3.933   5.736  17.386  0.00  0.00    +0.000 A 
ATOM      5  C   UNL     1       4.892   6.741  17.237  0.00  0.00    +0.000 A 
ATOM      6  C   UNL     1       6.168   6.396  16.814  0.00  0.00    +0.000 A 
ATOM      7  C   UNL     1       6.478   5.067  16.528  0.00  0.00    +0.000 A 
ATOM      8  C   UNL     1       5.532   4.060  16.665  0.00  0.00    +0.000 A 
BRANCH   6   9
ATOM      9  O   UNL     1       7.157   7.325  16.659  0.00  0.00    +0.000 OA
ATOM     10  H   UNL     1       7.319   7.748  17.520  0.00  0.00    +0.000 HD
ENDBRANCH   6   9
BRANCH   7  11
ATOM     11  O   UNL     1       7.731   4.740  16.094  0.00  0.00    +0.000 OA
ATOM     12  H   UNL     1       7.597   3.964  15.511  0.00  0.00    +0.000 HD
ENDBRANCH   7  11
ENDBRANCH   2   3
BRANCH   2  13
ATOM     13  C   UNL     1       3.596   2.071  18.023  0.00  0.00    +0.000 C 
BRANCH  13  14
ATOM     14  S   UNL     1       4.023   2.341  19.778  0.00  0.00    +0.000 S 
BRANCH  14  15
ATOM     15  C   UNL     1       2.776   3.426  20.271  0.00  0.00    +0.000 A 
ATOM     16  N   UNL     1       1.486   3.188  20.310  0.00  0.00    +0.000 NA
ATOM     17  C   UNL     1       0.910   4.412  20.552  0.00  0.00    +0.000 A 
ATOM     18  C   UNL     1       1.870   5.387  20.707  0.00  0.00    +0.000 A 
ATOM     19  N   UNL     1       3.064   4.733  20.551  0.00  0.00    +0.000 N 
ATOM     20  H   UNL     1       3.985   5.147  20.538  0.00  0.00    +0.000 HD
ENDBRANCH  14  15
ENDBRANCH  13  14
ENDBRANCH   2  13
TORSDOF 6
ENDMDL
