MODEL 1
REMARK VINA RESULT:      -9.1      0.000      0.000
REMARK  Name = 
REMARK  8 active torsions:
REMARK  status: ('A' for Active; 'I' for Inactive)
REMARK    1  A    between atoms: N_4  and  C_5
REMARK    2  A    between atoms: C_8  and  C_9
REMARK    3  A    between atoms: C_9  and  O_11
REMARK    4  A    between atoms: O_11  and  C_12
REMARK    5  A    between atoms: C_12  and  C_13
REMARK    6  A    between atoms: N_15  and  C_16
REMARK    7  A    between atoms: C_22  and  C_23
REMARK    8  A    between atoms: C_23  and  C_25
REMARK                            x       y       z     vdW  Elec       q    Type
REMARK                         _______ _______ _______ _____ _____    ______ ____
ROOT
ATOM      1  C   UNL     1       7.568   7.538  17.812  0.00  0.00    +0.000 C 
ATOM      2  O   UNL     1       7.788   6.780  18.756  0.00  0.00    +0.000 OA
ATOM      3  N   UNL     1       6.530   7.388  16.906  0.00  0.00    +0.000 N 
ATOM      4  H   UNL     1       6.753   7.640  15.941  0.00  0.00    +0.000 HD
ENDROOT
BRANCH   3   5
ATOM      5  C   UNL     1       5.471   6.471  17.094  0.00  0.00    +0.000 A 
ATOM      6  C   UNL     1       4.302   6.899  17.745  0.00  0.00    +0.000 A 
ATOM      7  C   UNL     1       3.227   6.030  17.932  0.00  0.00    +0.000 A 
ATOM      8  C   UNL     1       3.326   4.717  17.493  0.00  0.00    +0.000 A 
ATOM      9 CL   UNL     1       2.012   3.632  17.730  0.00  0.00    +0.000 Cl
ATOM     10  C   UNL     1       4.481   4.270  16.852  0.00  0.00    +0.000 A 
ATOM     11  C   UNL     1       5.547   5.152  16.603  0.00  0.00    +0.000 A 
BRANCH  11  12
ATOM     12  C   UNL     1       6.779   4.656  15.915  0.00  0.00    +0.000 C 
ATOM     13  O   UNL     1       7.773   4.358  16.576  0.00  0.00    +0.000 OA
BRANCH  12  14
ATOM     14  C   UNL     1       6.845   4.511  14.437  0.00  0.00    +0.000 A 
ATOM     15  C   UNL     1       7.708   5.343  13.715  0.00  0.00    +0.000 A 
ATOM     16  C   UNL     1       7.812   5.204  12.329  0.00  0.00    +0.000 A 
ATOM     17  C   UNL     1       7.051   4.242  11.664  0.00  0.00    +0.000 A 
ATOM     18  C   UNL     1       6.170   3.430  12.378  0.00  0.00    +0.000 A 
ATOM     19  C   UNL     1       6.053   3.574  13.761  0.00  0.00    +0.000 A 
ENDBRANCH  12  14
ENDBRANCH  11  12
ENDBRANCH   3   5
BRANCH   1  20
ATOM     20  C   UNL     1       8.509   8.705  17.513  0.00  0.00    +0.000 C 
BRANCH  20  21
ATOM     21  O   UNL     1       8.158   9.953  18.100  0.00  0.00    +0.000 OA
BRANCH  21  22
ATOM     22  C   UNL     1       9.110  10.496  18.904  0.00  0.00    +0.000 C 
ATOM     23  O   UNL     1       9.578   9.996  19.911  0.00  0.00    +0.000 OA
BRANCH  22  27
ATOM     24  C   UNL     1      10.148  14.395  17.448  0.00  0.00    +0.000 A 
ATOM     25  C   UNL     1       9.050  14.228  18.291  0.00  0.00    +0.000 A 
ATOM     26  C   UNL     1       8.704  12.964  18.768  0.00  0.00    +0.000 A 
ATOM     27  C   UNL     1       9.456  11.846  18.405  0.00  0.00    +0.000 A 
ATOM     28  C   UNL     1      10.549  11.996  17.541  0.00  0.00    +0.000 A 
ATOM     29  C   UNL     1      10.892  13.269  17.065  0.00  0.00    +0.000 A 
BRANCH  24  33
ATOM     30  N   UNL     1      10.775  17.900  16.776  0.00  0.00    +0.000 N 
ATOM     31  C   UNL     1      10.428  16.856  17.580  0.00  0.00    +0.000 C 
ATOM     32  O   UNL     1      10.087  17.079  18.730  0.00  0.00    +0.000 OA
ATOM     33  N   UNL     1      10.537  15.652  16.937  0.00  0.00    +0.000 N 
ATOM     34  H   UNL     1      10.605  18.790  17.231  0.00  0.00    +0.000 HD
ATOM     35  H   UNL     1      10.430  17.864  15.822  0.00  0.00    +0.000 HD
ATOM     36  H   UNL     1      11.087  15.662  16.094  0.00  0.00    +0.000 HD
ENDBRANCH  24  33
ENDBRANCH  22  27
ENDBRANCH  21  22
ENDBRANCH  20  21
ENDBRANCH   1  20
TORSDOF 8
ENDMDL
MODEL 2
REMARK VINA RESULT:      -9.0      6.573      9.770
REMARK  Name = 
REMARK  8 active torsions:
REMARK  status: ('A' for Active; 'I' for Inactive)
REMARK    1  A    between atoms: N_4  and  C_5
REMARK    2  A    between atoms: C_8  and  C_9
REMARK    3  A    between atoms: C_9  and  O_11
REMARK    4  A    between atoms: O_11  and  C_12
REMARK    5  A    between atoms: C_12  and  C_13
REMARK    6  A    between atoms: N_15  and  C_16
REMARK    7  A    between atoms: C_22  and  C_23
REMARK    8  A    between atoms: C_23  and  C_25
REMARK                            x       y       z     vdW  Elec       q    Type
REMARK                         _______ _______ _______ _____ _____    ______ ____
ROOT
ATOM      1  C   UNL     1       2.244   7.795  18.718  0.00  0.00    +0.000 C 
ATOM      2  O   UNL     1       1.789   8.105  17.618  0.00  0.00    +0.000 OA
ATOM      3  N   UNL     1       3.171   6.786  18.932  0.00  0.00    +0.000 N 
ATOM      4  H   UNL     1       3.041   6.249  19.791  0.00  0.00    +0.000 HD
ENDROOT
BRANCH   3   5
ATOM      5  C   UNL     1       3.866   6.146  17.882  0.00  0.00    +0.000 A 
ATOM      6  C   UNL     1       5.011   6.757  17.344  0.00  0.00    +0.000 A 
ATOM      7  C   UNL     1       5.736   6.147  16.321  0.00  0.00    +0.000 A 
ATOM      8  C   UNL     1       5.304   4.931  15.808  0.00  0.00    +0.000 A 
ATOM      9 CL   UNL     1       6.183   4.176  14.538  0.00  0.00    +0.000 Cl
ATOM     10  C   UNL     1       4.166   4.311  16.323  0.00  0.00    +0.000 A 
ATOM     11  C   UNL     1       3.462   4.886  17.395  0.00  0.00    +0.000 A 
BRANCH  11  12
ATOM     12  C   UNL     1       2.241   4.208  17.934  0.00  0.00    +0.000 C 
ATOM     13  O   UNL     1       1.215   4.164  17.257  0.00  0.00    +0.000 OA
BRANCH  12  14
ATOM     14  C   UNL     1       2.227   3.579  19.280  0.00  0.00    +0.000 A 
ATOM     15  C   UNL     1       3.395   2.973  19.755  0.00  0.00    +0.000 A 
ATOM     16  C   UNL     1       3.416   2.403  21.030  0.00  0.00    +0.000 A 
ATOM     17  C   UNL     1       2.272   2.432  21.827  0.00  0.00    +0.000 A 
ATOM     18  C   UNL     1       1.098   3.011  21.345  0.00  0.00    +0.000 A 
ATOM     19  C   UNL     1       1.068   3.569  20.067  0.00  0.00    +0.000 A 
ENDBRANCH  12  14
ENDBRANCH  11  12
ENDBRANCH   3   5
BRANCH   1  20
ATOM     20  C   UNL     1       1.743   8.477  19.991  0.00  0.00    +0.000 C 
BRANCH  20  21
ATOM     21  O   UNL     1       0.461   9.090  19.905  0.00  0.00    +0.000 OA
BRANCH  21  22
ATOM     22  C   UNL     1       0.480  10.421  19.630  0.00  0.00    +0.000 C 
ATOM     23  O   UNL     1       1.392  11.194  19.859  0.00  0.00    +0.000 OA
BRANCH  22  27
ATOM     24  C   UNL     1      -3.322  11.585  18.019  0.00  0.00    +0.000 A 
ATOM     25  C   UNL     1      -2.486  10.730  17.301  0.00  0.00    +0.000 A 
ATOM     26  C   UNL     1      -1.247  10.347  17.816  0.00  0.00    +0.000 A 
ATOM     27  C   UNL     1      -0.828  10.818  19.062  0.00  0.00    +0.000 A 
ATOM     28  C   UNL     1      -1.649  11.695  19.783  0.00  0.00    +0.000 A 
ATOM     29  C   UNL     1      -2.892  12.076  19.261  0.00  0.00    +0.000 A 
BRANCH  24  33
ATOM     30  N   UNL     1      -6.817  12.014  17.167  0.00  0.00    +0.000 N 
ATOM     31  C   UNL     1      -5.797  11.481  17.896  0.00  0.00    +0.000 C 
ATOM     32  O   UNL     1      -6.049  10.650  18.753  0.00  0.00    +0.000 OA
ATOM     33  N   UNL     1      -4.582  12.002  17.540  0.00  0.00    +0.000 N 
ATOM     34  H   UNL     1      -7.698  11.558  17.375  0.00  0.00    +0.000 HD
ATOM     35  H   UNL     1      -6.646  12.125  16.173  0.00  0.00    +0.000 HD
ATOM     36  H   UNL     1      -4.618  12.858  17.012  0.00  0.00    +0.000 HD
ENDBRANCH  24  33
ENDBRANCH  22  27
ENDBRANCH  21  22
ENDBRANCH  20  21
ENDBRANCH   1  20
TORSDOF 8
ENDMDL
MODEL 3
REMARK VINA RESULT:      -9.0      6.681      9.798
REMARK  Name = 
REMARK  8 active torsions:
REMARK  status: ('A' for Active; 'I' for Inactive)
REMARK    1  A    between atoms: N_4  and  C_5
REMARK    2  A    between atoms: C_8  and  C_9
REMARK    3  A    between atoms: C_9  and  O_11
REMARK    4  A    between atoms: O_11  and  C_12
REMARK    5  A    between atoms: C_12  and  C_13
REMARK    6  A    between atoms: N_15  and  C_16
REMARK    7  A    between atoms: C_22  and  C_23
REMARK    8  A    between atoms: C_23  and  C_25
REMARK                            x       y       z     vdW  Elec       q    Type
REMARK                         _______ _______ _______ _____ _____    ______ ____
ROOT
ATOM      1  C   UNL     1       2.451   8.004  18.266  0.00  0.00    +0.000 C 
ATOM      2  O   UNL     1       2.287   8.426  17.122  0.00  0.00    +0.000 OA
ATOM      3  N   UNL     1       3.139   6.845  18.588  0.00  0.00    +0.000 N 
ATOM      4  H   UNL     1       2.751   6.308  19.366  0.00  0.00    +0.000 HD
ENDROOT
BRANCH   3   5
ATOM      5  C   UNL     1       3.925   6.132  17.654  0.00  0.00    +0.000 A 
ATOM      6  C   UNL     1       5.083   6.732  17.133  0.00  0.00    +0.000 A 
ATOM      7  C   UNL     1       5.895   6.054  16.225  0.00  0.00    +0.000 A 
ATOM      8  C   UNL     1       5.538   4.778  15.810  0.00  0.00    +0.000 A 
ATOM      9 CL   UNL     1       6.525   3.937  14.680  0.00  0.00    +0.000 Cl
ATOM     10  C   UNL     1       4.388   4.168  16.309  0.00  0.00    +0.000 A 
ATOM     11  C   UNL     1       3.595   4.817  17.271  0.00  0.00    +0.000 A 
BRANCH  11  12
ATOM     12  C   UNL     1       2.363   4.148  17.794  0.00  0.00    +0.000 C 
ATOM     13  O   UNL     1       1.357   4.078  17.090  0.00  0.00    +0.000 OA
BRANCH  12  14
ATOM     14  C   UNL     1       2.313   3.559  19.158  0.00  0.00    +0.000 A 
ATOM     15  C   UNL     1       3.483   3.018  19.703  0.00  0.00    +0.000 A 
ATOM     16  C   UNL     1       3.470   2.488  20.995  0.00  0.00    +0.000 A 
ATOM     17  C   UNL     1       2.289   2.490  21.739  0.00  0.00    +0.000 A 
ATOM     18  C   UNL     1       1.115   3.003  21.187  0.00  0.00    +0.000 A 
ATOM     19  C   UNL     1       1.121   3.522  19.893  0.00  0.00    +0.000 A 
ENDBRANCH  12  14
ENDBRANCH  11  12
ENDBRANCH   3   5
BRANCH   1  20
ATOM     20  C   UNL     1       1.813   8.716  19.459  0.00  0.00    +0.000 C 
BRANCH  20  21
ATOM     21  O   UNL     1       0.929   9.787  19.145  0.00  0.00    +0.000 OA
BRANCH  21  22
ATOM     22  C   UNL     1      -0.029  10.031  20.077  0.00  0.00    +0.000 C 
ATOM     23  O   UNL     1       0.033   9.770  21.265  0.00  0.00    +0.000 OA
BRANCH  22  27
ATOM     24  C   UNL     1      -3.465  11.691  18.116  0.00  0.00    +0.000 A 
ATOM     25  C   UNL     1      -2.994  12.250  19.303  0.00  0.00    +0.000 A 
ATOM     26  C   UNL     1      -1.878  11.717  19.949  0.00  0.00    +0.000 A 
ATOM     27  C   UNL     1      -1.218  10.610  19.411  0.00  0.00    +0.000 A 
ATOM     28  C   UNL     1      -1.694  10.025  18.231  0.00  0.00    +0.000 A 
ATOM     29  C   UNL     1      -2.815  10.566  17.587  0.00  0.00    +0.000 A 
BRANCH  24  33
ATOM     30  N   UNL     1      -6.747  12.447  16.779  0.00  0.00    +0.000 N 
ATOM     31  C   UNL     1      -5.901  11.906  17.700  0.00  0.00    +0.000 C 
ATOM     32  O   UNL     1      -6.365  11.266  18.630  0.00  0.00    +0.000 OA
ATOM     33  N   UNL     1      -4.590  12.193  17.428  0.00  0.00    +0.000 N 
ATOM     34  H   UNL     1      -7.704  12.155  16.939  0.00  0.00    +0.000 HD
ATOM     35  H   UNL     1      -6.459  12.373  15.809  0.00  0.00    +0.000 HD
ATOM     36  H   UNL     1      -4.440  12.949  16.781  0.00  0.00    +0.000 HD
ENDBRANCH  24  33
ENDBRANCH  22  27
ENDBRANCH  21  22
ENDBRANCH  20  21
ENDBRANCH   1  20
TORSDOF 8
ENDMDL
MODEL 4
REMARK VINA RESULT:      -8.9      6.896      9.520
REMARK  Name = 
REMARK  8 active torsions:
REMARK  status: ('A' for Active; 'I' for Inactive)
REMARK    1  A    between atoms: N_4  and  C_5
REMARK    2  A    between atoms: C_8  and  C_9
REMARK    3  A    between atoms: C_9  and  O_11
REMARK    4  A    between atoms: O_11  and  C_12
REMARK    5  A    between atoms: C_12  and  C_13
REMARK    6  A    between atoms: N_15  and  C_16
REMARK    7  A    between atoms: C_22  and  C_23
REMARK    8  A    between atoms: C_23  and  C_25
REMARK                            x       y       z     vdW  Elec       q    Type
REMARK                         _______ _______ _______ _____ _____    ______ ____
ROOT
ATOM      1  C   UNL     1       2.256   8.175  18.400  0.00  0.00    +0.000 C 
ATOM      2  O   UNL     1       2.245   8.697  17.286  0.00  0.00    +0.000 OA
ATOM      3  N   UNL     1       2.847   6.956  18.694  0.00  0.00    +0.000 N 
ATOM      4  H   UNL     1       2.347   6.381  19.374  0.00  0.00    +0.000 HD
ENDROOT
BRANCH   3   5
ATOM      5  C   UNL     1       3.700   6.278  17.794  0.00  0.00    +0.000 A 
ATOM      6  C   UNL     1       4.840   6.936  17.302  0.00  0.00    +0.000 A 
ATOM      7  C   UNL     1       5.717   6.294  16.428  0.00  0.00    +0.000 A 
ATOM      8  C   UNL     1       5.444   4.996  16.018  0.00  0.00    +0.000 A 
ATOM      9 CL   UNL     1       6.511   4.199  14.930  0.00  0.00    +0.000 Cl
ATOM     10  C   UNL     1       4.314   4.328  16.488  0.00  0.00    +0.000 A 
ATOM     11  C   UNL     1       3.455   4.943  17.416  0.00  0.00    +0.000 A 
BRANCH  11  12
ATOM     12  C   UNL     1       2.246   4.212  17.909  0.00  0.00    +0.000 C 
ATOM     13  O   UNL     1       1.250   4.122  17.193  0.00  0.00    +0.000 OA
BRANCH  12  14
ATOM     14  C   UNL     1       2.206   3.585  19.256  0.00  0.00    +0.000 A 
ATOM     15  C   UNL     1       3.385   3.049  19.786  0.00  0.00    +0.000 A 
ATOM     16  C   UNL     1       3.381   2.483  21.063  0.00  0.00    +0.000 A 
ATOM     17  C   UNL     1       2.201   2.446  21.807  0.00  0.00    +0.000 A 
ATOM     18  C   UNL     1       1.019   2.956  21.270  0.00  0.00    +0.000 A 
ATOM     19  C   UNL     1       1.015   3.509  19.990  0.00  0.00    +0.000 A 
ENDBRANCH  12  14
ENDBRANCH  11  12
ENDBRANCH   3   5
BRANCH   1  20
ATOM     20  C   UNL     1       1.520   8.823  19.573  0.00  0.00    +0.000 C 
BRANCH  20  21
ATOM     21  O   UNL     1       1.117  10.175  19.384  0.00  0.00    +0.000 OA
BRANCH  21  22
ATOM     22  C   UNL     1      -0.209  10.349  19.145  0.00  0.00    +0.000 C 
ATOM     23  O   UNL     1      -0.818   9.994  18.152  0.00  0.00    +0.000 OA
BRANCH  22  27
ATOM     24  C   UNL     1      -1.931  12.542  22.405  0.00  0.00    +0.000 A 
ATOM     25  C   UNL     1      -2.345  12.787  21.096  0.00  0.00    +0.000 A 
ATOM     26  C   UNL     1      -1.790  12.081  20.029  0.00  0.00    +0.000 A 
ATOM     27  C   UNL     1      -0.808  11.115  20.261  0.00  0.00    +0.000 A 
ATOM     28  C   UNL     1      -0.368  10.875  21.569  0.00  0.00    +0.000 A 
ATOM     29  C   UNL     1      -0.929  11.588  22.637  0.00  0.00    +0.000 A 
BRANCH  24  33
ATOM     30  N   UNL     1      -3.939  13.889  25.104  0.00  0.00    +0.000 N 
ATOM     31  C   UNL     1      -3.651  12.969  24.141  0.00  0.00    +0.000 C 
ATOM     32  O   UNL     1      -4.427  12.047  23.948  0.00  0.00    +0.000 OA
ATOM     33  N   UNL     1      -2.461  13.232  23.517  0.00  0.00    +0.000 N 
ATOM     34  H   UNL     1      -4.860  13.737  25.498  0.00  0.00    +0.000 HD
ATOM     35  H   UNL     1      -3.757  14.858  24.866  0.00  0.00    +0.000 HD
ATOM     36  H   UNL     1      -1.852  13.871  24.000  0.00  0.00    +0.000 HD
ENDBRANCH  24  33
ENDBRANCH  22  27
ENDBRANCH  21  22
ENDBRANCH  20  21
ENDBRANCH   1  20
TORSDOF 8
ENDMDL
MODEL 5
REMARK VINA RESULT:      -8.9      6.863      9.526
REMARK  Name = 
REMARK  8 active torsions:
REMARK  status: ('A' for Active; 'I' for Inactive)
REMARK    1  A    between atoms: N_4  and  C_5
REMARK    2  A    between atoms: C_8  and  C_9
REMARK    3  A    between atoms: C_9  and  O_11
REMARK    4  A    between atoms: O_11  and  C_12
REMARK    5  A    between atoms: C_12  and  C_13
REMARK    6  A    between atoms: N_15  and  C_16
REMARK    7  A    between atoms: C_22  and  C_23
REMARK    8  A    between atoms: C_23  and  C_25
REMARK                            x       y       z     vdW  Elec       q    Type
REMARK                         _______ _______ _______ _____ _____    ______ ____
ROOT
ATOM      1  C   UNL     1       2.282   8.053  18.413  0.00  0.00    +0.000 C 
ATOM      2  O   UNL     1       2.353   8.667  17.349  0.00  0.00    +0.000 OA
ATOM      3  N   UNL     1       2.839   6.804  18.641  0.00  0.00    +0.000 N 
ATOM      4  H   UNL     1       2.288   6.182  19.235  0.00  0.00    +0.000 HD
ENDROOT
BRANCH   3   5
ATOM      5  C   UNL     1       3.744   6.191  17.745  0.00  0.00    +0.000 A 
ATOM      6  C   UNL     1       4.843   6.925  17.271  0.00  0.00    +0.000 A 
ATOM      7  C   UNL     1       5.769   6.349  16.402  0.00  0.00    +0.000 A 
ATOM      8  C   UNL     1       5.586   5.040  15.979  0.00  0.00    +0.000 A 
ATOM      9 CL   UNL     1       6.714   4.322  14.897  0.00  0.00    +0.000 Cl
ATOM     10  C   UNL     1       4.497   4.296  16.432  0.00  0.00    +0.000 A 
ATOM     11  C   UNL     1       3.590   4.845  17.355  0.00  0.00    +0.000 A 
BRANCH  11  12
ATOM     12  C   UNL     1       2.426   4.034  17.829  0.00  0.00    +0.000 C 
ATOM     13  O   UNL     1       1.492   3.796  17.065  0.00  0.00    +0.000 OA
BRANCH  12  14
ATOM     14  C   UNL     1       2.359   3.498  19.214  0.00  0.00    +0.000 A 
ATOM     15  C   UNL     1       1.163   3.627  19.930  0.00  0.00    +0.000 A 
ATOM     16  C   UNL     1       1.064   3.103  21.222  0.00  0.00    +0.000 A 
ATOM     17  C   UNL     1       2.159   2.459  21.800  0.00  0.00    +0.000 A 
ATOM     18  C   UNL     1       3.360   2.354  21.098  0.00  0.00    +0.000 A 
ATOM     19  C   UNL     1       3.467   2.887  19.814  0.00  0.00    +0.000 A 
ENDBRANCH  12  14
ENDBRANCH  11  12
ENDBRANCH   3   5
BRANCH   1  20
ATOM     20  C   UNL     1       1.475   8.612  19.586  0.00  0.00    +0.000 C 
BRANCH  20  21
ATOM     21  O   UNL     1       1.160   9.998  19.519  0.00  0.00    +0.000 OA
BRANCH  21  22
ATOM     22  C   UNL     1      -0.136  10.277  19.219  0.00  0.00    +0.000 C 
ATOM     23  O   UNL     1      -0.713  10.005  18.182  0.00  0.00    +0.000 OA
BRANCH  22  27
ATOM     24  C   UNL     1      -1.899  12.515  22.427  0.00  0.00    +0.000 A 
ATOM     25  C   UNL     1      -0.953  11.526  22.695  0.00  0.00    +0.000 A 
ATOM     26  C   UNL     1      -0.375  10.792  21.659  0.00  0.00    +0.000 A 
ATOM     27  C   UNL     1      -0.740  11.040  20.334  0.00  0.00    +0.000 A 
ATOM     28  C   UNL     1      -1.705  12.015  20.052  0.00  0.00    +0.000 A 
ATOM     29  C   UNL     1      -2.282  12.749  21.097  0.00  0.00    +0.000 A 
BRANCH  24  33
ATOM     30  N   UNL     1      -4.043  13.936  24.979  0.00  0.00    +0.000 N 
ATOM     31  C   UNL     1      -3.621  12.929  24.162  0.00  0.00    +0.000 C 
ATOM     32  O   UNL     1      -4.228  11.870  24.162  0.00  0.00    +0.000 OA
ATOM     33  N   UNL     1      -2.513  13.282  23.439  0.00  0.00    +0.000 N 
ATOM     34  H   UNL     1      -4.912  13.698  25.441  0.00  0.00    +0.000 HD
ATOM     35  H   UNL     1      -4.041  14.868  24.577  0.00  0.00    +0.000 HD
ATOM     36  H   UNL     1      -2.014  14.086  23.780  0.00  0.00    +0.000 HD
ENDBRANCH  24  33
ENDBRANCH  22  27
ENDBRANCH  21  22
ENDBRANCH  20  21
ENDBRANCH   1  20
TORSDOF 8
ENDMDL
MODEL 6
REMARK VINA RESULT:      -8.8      6.511      9.592
REMARK  Name = 
REMARK  8 active torsions:
REMARK  status: ('A' for Active; 'I' for Inactive)
REMARK    1  A    between atoms: N_4  and  C_5
REMARK    2  A    between atoms: C_8  and  C_9
REMARK    3  A    between atoms: C_9  and  O_11
REMARK    4  A    between atoms: O_11  and  C_12
REMARK    5  A    between atoms: C_12  and  C_13
REMARK    6  A    between atoms: N_15  and  C_16
REMARK    7  A    between atoms: C_22  and  C_23
REMARK    8  A    between atoms: C_23  and  C_25
REMARK                            x       y       z     vdW  Elec       q    Type
REMARK                         _______ _______ _______ _____ _____    ______ ____
ROOT
ATOM      1  C   UNL     1       2.302   8.174  18.338  0.00  0.00    +0.000 C 
ATOM      2  O   UNL     1       2.226   8.643  17.203  0.00  0.00    +0.000 OA
ATOM      3  N   UNL     1       2.932   6.982  18.658  0.00  0.00    +0.000 N 
ATOM      4  H   UNL     1       2.478   6.430  19.388  0.00  0.00    +0.000 HD
ENDROOT
BRANCH   3   5
ATOM      5  C   UNL     1       3.754   6.279  17.749  0.00  0.00    +0.000 A 
ATOM      6  C   UNL     1       4.889   6.914  17.218  0.00  0.00    +0.000 A 
ATOM      7  C   UNL     1       5.736   6.247  16.334  0.00  0.00    +0.000 A 
ATOM      8  C   UNL     1       5.438   4.946  15.953  0.00  0.00    +0.000 A 
ATOM      9 CL   UNL     1       6.468   4.117  14.853  0.00  0.00    +0.000 Cl
ATOM     10  C   UNL     1       4.312   4.300  16.462  0.00  0.00    +0.000 A 
ATOM     11  C   UNL     1       3.484   4.940  17.400  0.00  0.00    +0.000 A 
BRANCH  11  12
ATOM     12  C   UNL     1       2.279   4.233  17.935  0.00  0.00    +0.000 C 
ATOM     13  O   UNL     1       1.258   4.160  17.253  0.00  0.00    +0.000 OA
BRANCH  12  14
ATOM     14  C   UNL     1       2.272   3.609  19.284  0.00  0.00    +0.000 A 
ATOM     15  C   UNL     1       1.075   3.578  20.008  0.00  0.00    +0.000 A 
ATOM     16  C   UNL     1       1.036   2.969  21.264  0.00  0.00    +0.000 A 
ATOM     17  C   UNL     1       2.191   2.398  21.800  0.00  0.00    +0.000 A 
ATOM     18  C   UNL     1       3.392   2.452  21.092  0.00  0.00    +0.000 A 
ATOM     19  C   UNL     1       3.439   3.072  19.844  0.00  0.00    +0.000 A 
ENDBRANCH  12  14
ENDBRANCH  11  12
ENDBRANCH   3   5
BRANCH   1  20
ATOM     20  C   UNL     1       1.610   8.863  19.515  0.00  0.00    +0.000 C 
BRANCH  20  21
ATOM     21  O   UNL     1       1.406  10.266  19.382  0.00  0.00    +0.000 OA
BRANCH  21  22
ATOM     22  C   UNL     1       0.644  10.828  20.357  0.00  0.00    +0.000 C 
ATOM     23  O   UNL     1       0.959  10.984  21.522  0.00  0.00    +0.000 OA
BRANCH  22  27
ATOM     24  C   UNL     1      -3.217  11.827  18.776  0.00  0.00    +0.000 A 
ATOM     25  C   UNL     1      -2.349  11.012  18.050  0.00  0.00    +0.000 A 
ATOM     26  C   UNL     1      -1.091  10.683  18.555  0.00  0.00    +0.000 A 
ATOM     27  C   UNL     1      -0.685  11.169  19.799  0.00  0.00    +0.000 A 
ATOM     28  C   UNL     1      -1.538  12.007  20.528  0.00  0.00    +0.000 A 
ATOM     29  C   UNL     1      -2.800  12.334  20.016  0.00  0.00    +0.000 A 
BRANCH  24  33
ATOM     30  N   UNL     1      -6.255  12.435  16.896  0.00  0.00    +0.000 N 
ATOM     31  C   UNL     1      -5.057  11.822  17.112  0.00  0.00    +0.000 C 
ATOM     32  O   UNL     1      -4.629  11.041  16.278  0.00  0.00    +0.000 OA
ATOM     33  N   UNL     1      -4.498  12.190  18.307  0.00  0.00    +0.000 N 
ATOM     34  H   UNL     1      -6.617  12.225  15.973  0.00  0.00    +0.000 HD
ATOM     35  H   UNL     1      -6.302  13.420  17.134  0.00  0.00    +0.000 HD
ATOM     36  H   UNL     1      -5.126  12.625  18.961  0.00  0.00    +0.000 HD
ENDBRANCH  24  33
ENDBRANCH  22  27
ENDBRANCH  21  22
ENDBRANCH  20  21
ENDBRANCH   1  20
TORSDOF 8
ENDMDL
MODEL 7
REMARK VINA RESULT:      -8.7      6.803      9.449
REMARK  Name = 
REMARK  8 active torsions:
REMARK  status: ('A' for Active; 'I' for Inactive)
REMARK    1  A    between atoms: N_4  and  C_5
REMARK    2  A    between atoms: C_8  and  C_9
REMARK    3  A    between atoms: C_9  and  O_11
REMARK    4  A    between atoms: O_11  and  C_12
REMARK    5  A    between atoms: C_12  and  C_13
REMARK    6  A    between atoms: N_15  and  C_16
REMARK    7  A    between atoms: C_22  and  C_23
REMARK    8  A    between atoms: C_23  and  C_25
REMARK                            x       y       z     vdW  Elec       q    Type
REMARK                         _______ _______ _______ _____ _____    ______ ____
ROOT
ATOM      1  C   UNL     1       2.248   8.296  18.282  0.00  0.00    +0.000 C 
ATOM      2  O   UNL     1       2.272   8.789  17.155  0.00  0.00    +0.000 OA
ATOM      3  N   UNL     1       2.809   7.075  18.620  0.00  0.00    +0.000 N 
ATOM      4  H   UNL     1       2.284   6.527  19.303  0.00  0.00    +0.000 HD
ENDROOT
BRANCH   3   5
ATOM      5  C   UNL     1       3.669   6.358  17.757  0.00  0.00    +0.000 A 
ATOM      6  C   UNL     1       4.815   6.991  17.248  0.00  0.00    +0.000 A 
ATOM      7  C   UNL     1       5.697   6.311  16.410  0.00  0.00    +0.000 A 
ATOM      8  C   UNL     1       5.425   4.998  16.052  0.00  0.00    +0.000 A 
ATOM      9 CL   UNL     1       6.499   4.154  15.008  0.00  0.00    +0.000 Cl
ATOM     10  C   UNL     1       4.289   4.353  16.539  0.00  0.00    +0.000 A 
ATOM     11  C   UNL     1       3.423   5.008  17.434  0.00  0.00    +0.000 A 
BRANCH  11  12
ATOM     12  C   UNL     1       2.208   4.302  17.946  0.00  0.00    +0.000 C 
ATOM     13  O   UNL     1       1.187   4.263  17.260  0.00  0.00    +0.000 OA
BRANCH  12  14
ATOM     14  C   UNL     1       2.191   3.638  19.276  0.00  0.00    +0.000 A 
ATOM     15  C   UNL     1       3.381   3.098  19.775  0.00  0.00    +0.000 A 
ATOM     16  C   UNL     1       3.399   2.498  21.037  0.00  0.00    +0.000 A 
ATOM     17  C   UNL     1       2.230   2.432  21.795  0.00  0.00    +0.000 A 
ATOM     18  C   UNL     1       1.036   2.945  21.287  0.00  0.00    +0.000 A 
ATOM     19  C   UNL     1       1.011   3.533  20.023  0.00  0.00    +0.000 A 
ENDBRANCH  12  14
ENDBRANCH  11  12
ENDBRANCH   3   5
BRANCH   1  20
ATOM     20  C   UNL     1       1.500   8.989  19.421  0.00  0.00    +0.000 C 
BRANCH  20  21
ATOM     21  O   UNL     1       0.632  10.051  19.040  0.00  0.00    +0.000 OA
BRANCH  21  22
ATOM     22  C   UNL     1       0.840  11.223  19.696  0.00  0.00    +0.000 C 
ATOM     23  O   UNL     1       1.787  11.974  19.553  0.00  0.00    +0.000 OA
BRANCH  22  27
ATOM     24  C   UNL     1      -2.312  11.837  22.540  0.00  0.00    +0.000 A 
ATOM     25  C   UNL     1      -1.160  11.143  22.906  0.00  0.00    +0.000 A 
ATOM     26  C   UNL     1      -0.131  10.936  21.988  0.00  0.00    +0.000 A 
ATOM     27  C   UNL     1      -0.243  11.425  20.685  0.00  0.00    +0.000 A 
ATOM     28  C   UNL     1      -1.404  12.106  20.298  0.00  0.00    +0.000 A 
ATOM     29  C   UNL     1      -2.435  12.310  21.225  0.00  0.00    +0.000 A 
BRANCH  24  33
ATOM     30  N   UNL     1      -4.595  13.015  25.096  0.00  0.00    +0.000 N 
ATOM     31  C   UNL     1      -3.516  13.141  24.273  0.00  0.00    +0.000 C 
ATOM     32  O   UNL     1      -2.822  14.141  24.352  0.00  0.00    +0.000 OA
ATOM     33  N   UNL     1      -3.382  12.069  23.431  0.00  0.00    +0.000 N 
ATOM     34  H   UNL     1      -4.633  13.767  25.774  0.00  0.00    +0.000 HD
ATOM     35  H   UNL     1      -4.741  12.097  25.504  0.00  0.00    +0.000 HD
ATOM     36  H   UNL     1      -4.199  11.489  23.338  0.00  0.00    +0.000 HD
ENDBRANCH  24  33
ENDBRANCH  22  27
ENDBRANCH  21  22
ENDBRANCH  20  21
ENDBRANCH   1  20
TORSDOF 8
ENDMDL
MODEL 8
REMARK VINA RESULT:      -8.7      3.210      4.978
REMARK  Name = 
REMARK  8 active torsions:
REMARK  status: ('A' for Active; 'I' for Inactive)
REMARK    1  A    between atoms: N_4  and  C_5
REMARK    2  A    between atoms: C_8  and  C_9
REMARK    3  A    between atoms: C_9  and  O_11
REMARK    4  A    between atoms: O_11  and  C_12
REMARK    5  A    between atoms: C_12  and  C_13
REMARK    6  A    between atoms: N_15  and  C_16
REMARK    7  A    between atoms: C_22  and  C_23
REMARK    8  A    between atoms: C_23  and  C_25
REMARK                            x       y       z     vdW  Elec       q    Type
REMARK                         _______ _______ _______ _____ _____    ______ ____
ROOT
ATOM      1  C   UNL     1       6.765   5.424  18.841  0.00  0.00    +0.000 C 
ATOM      2  O   UNL     1       6.715   5.289  20.063  0.00  0.00    +0.000 OA
ATOM      3  N   UNL     1       5.822   4.931  17.953  0.00  0.00    +0.000 N 
ATOM      4  H   UNL     1       6.194   4.583  17.068  0.00  0.00    +0.000 HD
ENDROOT
BRANCH   3   5
ATOM      5  C   UNL     1       4.576   4.408  18.368  0.00  0.00    +0.000 A 
ATOM      6  C   UNL     1       4.505   3.079  18.817  0.00  0.00    +0.000 A 
ATOM      7  C   UNL     1       3.299   2.533  19.253  0.00  0.00    +0.000 A 
ATOM      8  C   UNL     1       2.146   3.306  19.216  0.00  0.00    +0.000 A 
ATOM      9 CL   UNL     1       0.649   2.639  19.738  0.00  0.00    +0.000 Cl
ATOM     10  C   UNL     1       2.193   4.625  18.765  0.00  0.00    +0.000 A 
ATOM     11  C   UNL     1       3.414   5.206  18.381  0.00  0.00    +0.000 A 
BRANCH  11  12
ATOM     12  C   UNL     1       3.446   6.622  17.898  0.00  0.00    +0.000 C 
ATOM     13  O   UNL     1       4.219   6.945  16.998  0.00  0.00    +0.000 OA
BRANCH  12  14
ATOM     14  C   UNL     1       2.563   7.666  18.480  0.00  0.00    +0.000 A 
ATOM     15  C   UNL     1       2.145   7.533  19.809  0.00  0.00    +0.000 A 
ATOM     16  C   UNL     1       1.341   8.517  20.389  0.00  0.00    +0.000 A 
ATOM     17  C   UNL     1       0.950   9.629  19.642  0.00  0.00    +0.000 A 
ATOM     18  C   UNL     1       1.342   9.750  18.309  0.00  0.00    +0.000 A 
ATOM     19  C   UNL     1       2.133   8.763  17.722  0.00  0.00    +0.000 A 
ENDBRANCH  12  14
ENDBRANCH  11  12
ENDBRANCH   3   5
BRANCH   1  20
ATOM     20  C   UNL     1       7.962   6.109  18.180  0.00  0.00    +0.000 C 
BRANCH  20  21
ATOM     21  O   UNL     1       8.268   7.417  18.649  0.00  0.00    +0.000 OA
BRANCH  21  22
ATOM     22  C   UNL     1       7.880   8.426  17.825  0.00  0.00    +0.000 C 
ATOM     23  O   UNL     1       7.187   8.322  16.830  0.00  0.00    +0.000 OA
BRANCH  22  27
ATOM     24  C   UNL     1       9.661  12.081  19.194  0.00  0.00    +0.000 A 
ATOM     25  C   UNL     1       8.997  12.038  17.969  0.00  0.00    +0.000 A 
ATOM     26  C   UNL     1       8.416  10.854  17.514  0.00  0.00    +0.000 A 
ATOM     27  C   UNL     1       8.494   9.692  18.285  0.00  0.00    +0.000 A 
ATOM     28  C   UNL     1       9.177   9.717  19.508  0.00  0.00    +0.000 A 
ATOM     29  C   UNL     1       9.758  10.909  19.959  0.00  0.00    +0.000 A 
BRANCH  24  33
ATOM     30  N   UNL     1      10.490  15.395  20.402  0.00  0.00    +0.000 N 
ATOM     31  C   UNL     1       9.620  14.397  20.081  0.00  0.00    +0.000 C 
ATOM     32  O   UNL     1       8.420  14.601  20.174  0.00  0.00    +0.000 OA
ATOM     33  N   UNL     1      10.266  13.253  19.695  0.00  0.00    +0.000 N 
ATOM     34  H   UNL     1      10.003  16.262  20.599  0.00  0.00    +0.000 HD
ATOM     35  H   UNL     1      11.285  15.511  19.782  0.00  0.00    +0.000 HD
ATOM     36  H   UNL     1      11.240  13.204  19.944  0.00  0.00    +0.000 HD
ENDBRANCH  24  33
ENDBRANCH  22  27
ENDBRANCH  21  22
ENDBRANCH  20  21
ENDBRANCH   1  20
TORSDOF 8
ENDMDL
MODEL 9
REMARK VINA RESULT:      -8.7      6.968      9.697
REMARK  Name = 
REMARK  8 active torsions:
REMARK  status: ('A' for Active; 'I' for Inactive)
REMARK    1  A    between atoms: N_4  and  C_5
REMARK    2  A    between atoms: C_8  and  C_9
REMARK    3  A    between atoms: C_9  and  O_11
REMARK    4  A    between atoms: O_11  and  C_12
REMARK    5  A    between atoms: C_12  and  C_13
REMARK    6  A    between atoms: N_15  and  C_16
REMARK    7  A    between atoms: C_22  and  C_23
REMARK    8  A    between atoms: C_23  and  C_25
REMARK                            x       y       z     vdW  Elec       q    Type
REMARK                         _______ _______ _______ _____ _____    ______ ____
ROOT
ATOM      1  C   UNL     1       2.126   8.267  18.445  0.00  0.00    +0.000 C 
ATOM      2  O   UNL     1       2.101   8.805  17.340  0.00  0.00    +0.000 OA
ATOM      3  N   UNL     1       2.734   7.051  18.717  0.00  0.00    +0.000 N 
ATOM      4  H   UNL     1       2.247   6.459  19.392  0.00  0.00    +0.000 HD
ENDROOT
BRANCH   3   5
ATOM      5  C   UNL     1       3.589   6.397  17.800  0.00  0.00    +0.000 A 
ATOM      6  C   UNL     1       4.687   7.095  17.269  0.00  0.00    +0.000 A 
ATOM      7  C   UNL     1       5.564   6.478  16.378  0.00  0.00    +0.000 A 
ATOM      8  C   UNL     1       5.333   5.165  15.989  0.00  0.00    +0.000 A 
ATOM      9 CL   UNL     1       6.401   4.399  14.881  0.00  0.00    +0.000 Cl
ATOM     10  C   UNL     1       4.245   4.458  16.499  0.00  0.00    +0.000 A 
ATOM     11  C   UNL     1       3.388   5.049  17.445  0.00  0.00    +0.000 A 
BRANCH  11  12
ATOM     12  C   UNL     1       2.224   4.276  17.980  0.00  0.00    +0.000 C 
ATOM     13  O   UNL     1       1.202   4.162  17.306  0.00  0.00    +0.000 OA
BRANCH  12  14
ATOM     14  C   UNL     1       2.262   3.633  19.320  0.00  0.00    +0.000 A 
ATOM     15  C   UNL     1       1.068   3.501  20.038  0.00  0.00    +0.000 A 
ATOM     16  C   UNL     1       1.072   2.872  21.286  0.00  0.00    +0.000 A 
ATOM     17  C   UNL     1       2.266   2.382  21.817  0.00  0.00    +0.000 A 
ATOM     18  C   UNL     1       3.461   2.537  21.115  0.00  0.00    +0.000 A 
ATOM     19  C   UNL     1       3.464   3.177  19.876  0.00  0.00    +0.000 A 
ENDBRANCH  12  14
ENDBRANCH  11  12
ENDBRANCH   3   5
BRANCH   1  20
ATOM     20  C   UNL     1       1.391   8.888  19.634  0.00  0.00    +0.000 C 
BRANCH  20  21
ATOM     21  O   UNL     1       0.386   9.843  19.313  0.00  0.00    +0.000 OA
BRANCH  21  22
ATOM     22  C   UNL     1       0.622  11.099  19.773  0.00  0.00    +0.000 C 
ATOM     23  O   UNL     1       1.553  11.821  19.465  0.00  0.00    +0.000 OA
BRANCH  22  27
ATOM     24  C   UNL     1      -2.343  12.076  22.717  0.00  0.00    +0.000 A 
ATOM     25  C   UNL     1      -2.316  12.748  21.496  0.00  0.00    +0.000 A 
ATOM     26  C   UNL     1      -1.354  12.440  20.533  0.00  0.00    +0.000 A 
ATOM     27  C   UNL     1      -0.404  11.448  20.783  0.00  0.00    +0.000 A 
ATOM     28  C   UNL     1      -0.406  10.779  22.014  0.00  0.00    +0.000 A 
ATOM     29  C   UNL     1      -1.374  11.094  22.977  0.00  0.00    +0.000 A 
BRANCH  24  33
ATOM     30  N   UNL     1      -5.276  12.872  24.689  0.00  0.00    +0.000 N 
ATOM     31  C   UNL     1      -4.645  12.480  23.547  0.00  0.00    +0.000 C 
ATOM     32  O   UNL     1      -5.306  12.278  22.541  0.00  0.00    +0.000 OA
ATOM     33  N   UNL     1      -3.293  12.354  23.723  0.00  0.00    +0.000 N 
ATOM     34  H   UNL     1      -6.261  13.049  24.526  0.00  0.00    +0.000 HD
ATOM     35  H   UNL     1      -4.819  13.603  25.224  0.00  0.00    +0.000 HD
ATOM     36  H   UNL     1      -2.986  12.301  24.680  0.00  0.00    +0.000 HD
ENDBRANCH  24  33
ENDBRANCH  22  27
ENDBRANCH  21  22
ENDBRANCH  20  21
ENDBRANCH   1  20
TORSDOF 8
ENDMDL
