MODEL 1
REMARK VINA RESULT:      -7.9      0.000      0.000
REMARK  Name = 
REMARK  11 active torsions:
REMARK  status: ('A' for Active; 'I' for Inactive)
REMARK    1  A    between atoms: C_1  and  O_2
REMARK    2  A    between atoms: O_2  and  C_3
REMARK    3  A    between atoms: C_3  and  C_5
REMARK    4  A    between atoms: C_10  and  C_12
REMARK    5  A    between atoms: C_12  and  N_13
REMARK    6  A    between atoms: C_14  and  C_16
REMARK    7  A    between atoms: C_16  and  C_17
REMARK    8  A    between atoms: C_16  and  N_18
REMARK    9  A    between atoms: C_19  and  O_21
REMARK   10  A    between atoms: O_21  and  C_22
REMARK   11  A    between atoms: C_22  and  C_23
REMARK                            x       y       z     vdW  Elec       q    Type
REMARK                         _______ _______ _______ _____ _____    ______ ____
ROOT
ATOM      1  N   UNL     1       6.348   4.366  18.555  0.00  0.00    +0.000 N 
ATOM      2  C   UNL     1       6.691   5.690  18.360  0.00  0.00    +0.000 C 
ATOM      3  O   UNL     1       5.899   6.504  17.887  0.00  0.00    +0.000 OA
ATOM      4  H   UNL     1       6.889   3.812  19.206  0.00  0.00    +0.000 HD
ENDROOT
BRANCH   2   5
ATOM      5  C   UNL     1       8.096   6.090  18.884  0.00  0.00    +0.000 C 
ATOM      6  C   UNL     1       8.409   5.395  20.206  0.00  0.00    +0.000 C 
BRANCH   5   7
ATOM      7  N   UNL     1       8.282   7.539  18.946  0.00  0.00    +0.000 N 
ATOM      8  C   UNL     1       8.185   8.340  17.843  0.00  0.00    +0.000 C 
ATOM      9  O   UNL     1       8.076   7.935  16.695  0.00  0.00    +0.000 OA
ATOM     10  H   UNL     1       8.237   8.018  19.834  0.00  0.00    +0.000 HD
BRANCH   8  11
ATOM     11  O   UNL     1       8.286   9.641  18.207  0.00  0.00    +0.000 OA
BRANCH  11  12
ATOM     12  C   UNL     1       9.163   9.892  19.317  0.00  0.00    +0.000 C 
BRANCH  12  13
ATOM     13  C   UNL     1      10.073  11.075  19.094  0.00  0.00    +0.000 A 
ATOM     14  C   UNL     1      10.623  11.770  20.180  0.00  0.00    +0.000 A 
ATOM     15  C   UNL     1      11.530  12.813  19.972  0.00  0.00    +0.000 A 
ATOM     16  C   UNL     1      11.890  13.176  18.675  0.00  0.00    +0.000 A 
ATOM     17  C   UNL     1      11.337  12.504  17.587  0.00  0.00    +0.000 A 
ATOM     18  C   UNL     1      10.428  11.463  17.794  0.00  0.00    +0.000 A 
ENDBRANCH  12  13
ENDBRANCH  11  12
ENDBRANCH   8  11
ENDBRANCH   5   7
ENDBRANCH   2   5
BRANCH   1  19
ATOM     19  C   UNL     1       5.054   3.860  18.133  0.00  0.00    +0.000 C 
BRANCH  19  25
ATOM     20  C   UNL     1       2.359   4.301  20.856  0.00  0.00    +0.000 C 
ATOM     21  C   UNL     1       1.382   5.477  20.713  0.00  0.00    +0.000 C 
ATOM     22  C   UNL     1       2.189   6.560  20.019  0.00  0.00    +0.000 C 
ATOM     23  C   UNL     1       3.195   5.801  19.169  0.00  0.00    +0.000 C 
ATOM     24  N   UNL     1       3.163   4.422  19.635  0.00  0.00    +0.000 N 
ATOM     25  C   UNL     1       4.107   3.463  19.283  0.00  0.00    +0.000 C 
ATOM     26  O   UNL     1       4.161   2.360  19.827  0.00  0.00    +0.000 OA
BRANCH  20  27
ATOM     27  C   UNL     1       1.506   3.059  21.122  0.00  0.00    +0.000 C 
ATOM     28  O   UNL     1       1.687   2.329  22.092  0.00  0.00    +0.000 OA
BRANCH  27  30
ATOM     29  C   UNL     1       0.746   2.222  19.081  0.00  0.00    +0.000 C 
ATOM     30  O   UNL     1       0.450   2.957  20.268  0.00  0.00    +0.000 OA
ENDBRANCH  27  30
ENDBRANCH  20  27
ENDBRANCH  19  25
ENDBRANCH   1  19
TORSDOF 9
ENDMDL
MODEL 2
REMARK VINA RESULT:      -7.9      4.733      8.520
REMARK  Name = 
REMARK  11 active torsions:
REMARK  status: ('A' for Active; 'I' for Inactive)
REMARK    1  A    between atoms: C_1  and  O_2
REMARK    2  A    between atoms: O_2  and  C_3
REMARK    3  A    between atoms: C_3  and  C_5
REMARK    4  A    between atoms: C_10  and  C_12
REMARK    5  A    between atoms: C_12  and  N_13
REMARK    6  A    between atoms: C_14  and  C_16
REMARK    7  A    between atoms: C_16  and  C_17
REMARK    8  A    between atoms: C_16  and  N_18
REMARK    9  A    between atoms: C_19  and  O_21
REMARK   10  A    between atoms: O_21  and  C_22
REMARK   11  A    between atoms: C_22  and  C_23
REMARK                            x       y       z     vdW  Elec       q    Type
REMARK                         _______ _______ _______ _____ _____    ______ ____
ROOT
ATOM      1  N   UNL     1       2.863   8.270  17.821  0.00  0.00    +0.000 N 
ATOM      2  C   UNL     1       3.062   6.908  17.936  0.00  0.00    +0.000 C 
ATOM      3  O   UNL     1       2.124   6.122  18.062  0.00  0.00    +0.000 OA
ATOM      4  H   UNL     1       3.599   8.840  17.423  0.00  0.00    +0.000 HD
ENDROOT
BRANCH   2   5
ATOM      5  C   UNL     1       4.535   6.443  17.779  0.00  0.00    +0.000 C 
ATOM      6  C   UNL     1       5.114   6.890  16.441  0.00  0.00    +0.000 C 
BRANCH   5   7
ATOM      7  N   UNL     1       4.701   5.010  18.022  0.00  0.00    +0.000 N 
ATOM      8  C   UNL     1       5.528   4.520  18.992  0.00  0.00    +0.000 C 
ATOM      9  O   UNL     1       6.306   5.195  19.651  0.00  0.00    +0.000 OA
ATOM     10  H   UNL     1       4.027   4.354  17.655  0.00  0.00    +0.000 HD
BRANCH   8  11
ATOM     11  O   UNL     1       5.400   3.173  19.071  0.00  0.00    +0.000 OA
BRANCH  11  12
ATOM     12  C   UNL     1       4.590   2.708  20.162  0.00  0.00    +0.000 C 
BRANCH  12  13
ATOM     13  C   UNL     1       3.112   2.911  19.929  0.00  0.00    +0.000 A 
ATOM     14  C   UNL     1       2.437   2.187  18.937  0.00  0.00    +0.000 A 
ATOM     15  C   UNL     1       1.054   2.316  18.779  0.00  0.00    +0.000 A 
ATOM     16  C   UNL     1       0.334   3.176  19.606  0.00  0.00    +0.000 A 
ATOM     17  C   UNL     1       0.997   3.915  20.584  0.00  0.00    +0.000 A 
ATOM     18  C   UNL     1       2.380   3.788  20.742  0.00  0.00    +0.000 A 
ENDBRANCH  12  13
ENDBRANCH  11  12
ENDBRANCH   8  11
ENDBRANCH   5   7
ENDBRANCH   2   5
BRANCH   1  19
ATOM     19  C   UNL     1       1.532   8.842  17.925  0.00  0.00    +0.000 C 
BRANCH  19  25
ATOM     20  C   UNL     1       1.119  11.385  20.794  0.00  0.00    +0.000 C 
ATOM     21  C   UNL     1       1.043  12.873  20.426  0.00  0.00    +0.000 C 
ATOM     22  C   UNL     1       1.911  13.003  19.187  0.00  0.00    +0.000 C 
ATOM     23  C   UNL     1       1.802  11.650  18.502  0.00  0.00    +0.000 C 
ATOM     24  N   UNL     1       1.204  10.748  19.475  0.00  0.00    +0.000 N 
ATOM     25  C   UNL     1       1.159   9.367  19.325  0.00  0.00    +0.000 C 
ATOM     26  O   UNL     1       0.812   8.616  20.237  0.00  0.00    +0.000 OA
BRANCH  20  27
ATOM     27  C   UNL     1      -0.061  11.110  21.730  0.00  0.00    +0.000 C 
ATOM     28  O   UNL     1       0.088  10.703  22.878  0.00  0.00    +0.000 OA
BRANCH  27  30
ATOM     29  C   UNL     1      -2.138  12.077  22.171  0.00  0.00    +0.000 C 
ATOM     30  O   UNL     1      -1.250  11.515  21.205  0.00  0.00    +0.000 OA
ENDBRANCH  27  30
ENDBRANCH  20  27
ENDBRANCH  19  25
ENDBRANCH   1  19
TORSDOF 9
ENDMDL
MODEL 3
REMARK VINA RESULT:      -7.7      5.332      9.181
REMARK  Name = 
REMARK  11 active torsions:
REMARK  status: ('A' for Active; 'I' for Inactive)
REMARK    1  A    between atoms: C_1  and  O_2
REMARK    2  A    between atoms: O_2  and  C_3
REMARK    3  A    between atoms: C_3  and  C_5
REMARK    4  A    between atoms: C_10  and  C_12
REMARK    5  A    between atoms: C_12  and  N_13
REMARK    6  A    between atoms: C_14  and  C_16
REMARK    7  A    between atoms: C_16  and  C_17
REMARK    8  A    between atoms: C_16  and  N_18
REMARK    9  A    between atoms: C_19  and  O_21
REMARK   10  A    between atoms: O_21  and  C_22
REMARK   11  A    between atoms: C_22  and  C_23
REMARK                            x       y       z     vdW  Elec       q    Type
REMARK                         _______ _______ _______ _____ _____    ______ ____
ROOT
ATOM      1  N   UNL     1       1.415   8.469  20.345  0.00  0.00    +0.000 N 
ATOM      2  C   UNL     1       2.029   7.299  19.943  0.00  0.00    +0.000 C 
ATOM      3  O   UNL     1       1.831   6.229  20.517  0.00  0.00    +0.000 OA
ATOM      4  H   UNL     1       1.355   9.240  19.692  0.00  0.00    +0.000 HD
ENDROOT
BRANCH   2   5
ATOM      5  C   UNL     1       2.887   7.417  18.655  0.00  0.00    +0.000 C 
ATOM      6  C   UNL     1       2.460   8.616  17.815  0.00  0.00    +0.000 C 
BRANCH   5   7
ATOM      7  N   UNL     1       2.925   6.171  17.889  0.00  0.00    +0.000 N 
ATOM      8  C   UNL     1       4.088   5.509  17.619  0.00  0.00    +0.000 C 
ATOM      9  O   UNL     1       5.208   5.940  17.857  0.00  0.00    +0.000 OA
ATOM     10  H   UNL     1       2.080   5.635  17.754  0.00  0.00    +0.000 HD
BRANCH   8  11
ATOM     11  O   UNL     1       3.819   4.334  17.000  0.00  0.00    +0.000 OA
BRANCH  11  12
ATOM     12  C   UNL     1       4.081   3.162  17.788  0.00  0.00    +0.000 C 
BRANCH  12  13
ATOM     13  C   UNL     1       3.079   2.963  18.899  0.00  0.00    +0.000 A 
ATOM     14  C   UNL     1       3.494   2.908  20.237  0.00  0.00    +0.000 A 
ATOM     15  C   UNL     1       2.557   2.807  21.269  0.00  0.00    +0.000 A 
ATOM     16  C   UNL     1       1.196   2.751  20.974  0.00  0.00    +0.000 A 
ATOM     17  C   UNL     1       0.772   2.787  19.647  0.00  0.00    +0.000 A 
ATOM     18  C   UNL     1       1.708   2.886  18.614  0.00  0.00    +0.000 A 
ENDBRANCH  12  13
ENDBRANCH  11  12
ENDBRANCH   8  11
ENDBRANCH   5   7
ENDBRANCH   2   5
BRANCH   1  19
ATOM     19  C   UNL     1       0.565   8.499  21.523  0.00  0.00    +0.000 C 
BRANCH  19  25
ATOM     20  C   UNL     1      -0.979  12.017  21.189  0.00  0.00    +0.000 C 
ATOM     21  C   UNL     1      -1.981  12.254  20.049  0.00  0.00    +0.000 C 
ATOM     22  C   UNL     1      -1.513  11.335  18.935  0.00  0.00    +0.000 C 
ATOM     23  C   UNL     1      -0.857  10.167  19.654  0.00  0.00    +0.000 C 
ATOM     24  N   UNL     1      -0.674  10.590  21.035  0.00  0.00    +0.000 N 
ATOM     25  C   UNL     1       0.109   9.906  21.957  0.00  0.00    +0.000 C 
ATOM     26  O   UNL     1       0.392  10.376  23.060  0.00  0.00    +0.000 OA
BRANCH  20  27
ATOM     27  C   UNL     1      -1.639  12.551  22.462  0.00  0.00    +0.000 C 
ATOM     28  O   UNL     1      -2.642  12.039  22.951  0.00  0.00    +0.000 OA
BRANCH  27  30
ATOM     29  C   UNL     1      -1.660  14.335  23.966  0.00  0.00    +0.000 C 
ATOM     30  O   UNL     1      -0.906  13.531  23.059  0.00  0.00    +0.000 OA
ENDBRANCH  27  30
ENDBRANCH  20  27
ENDBRANCH  19  25
ENDBRANCH   1  19
TORSDOF 9
ENDMDL
MODEL 4
REMARK VINA RESULT:      -7.7      4.822      9.016
REMARK  Name = 
REMARK  11 active torsions:
REMARK  status: ('A' for Active; 'I' for Inactive)
REMARK    1  A    between atoms: C_1  and  O_2
REMARK    2  A    between atoms: O_2  and  C_3
REMARK    3  A    between atoms: C_3  and  C_5
REMARK    4  A    between atoms: C_10  and  C_12
REMARK    5  A    between atoms: C_12  and  N_13
REMARK    6  A    between atoms: C_14  and  C_16
REMARK    7  A    between atoms: C_16  and  C_17
REMARK    8  A    between atoms: C_16  and  N_18
REMARK    9  A    between atoms: C_19  and  O_21
REMARK   10  A    between atoms: O_21  and  C_22
REMARK   11  A    between atoms: C_22  and  C_23
REMARK                            x       y       z     vdW  Elec       q    Type
REMARK                         _______ _______ _______ _____ _____    ______ ____
ROOT
ATOM      1  N   UNL     1       3.065   8.135  17.870  0.00  0.00    +0.000 N 
ATOM      2  C   UNL     1       3.231   6.765  17.919  0.00  0.00    +0.000 C 
ATOM      3  O   UNL     1       2.292   6.003  18.148  0.00  0.00    +0.000 OA
ATOM      4  H   UNL     1       3.759   8.695  17.392  0.00  0.00    +0.000 HD
ENDROOT
BRANCH   2   5
ATOM      5  C   UNL     1       4.653   6.261  17.553  0.00  0.00    +0.000 C 
ATOM      6  C   UNL     1       5.016   6.631  16.118  0.00  0.00    +0.000 C 
BRANCH   5   7
ATOM      7  N   UNL     1       4.836   4.838  17.837  0.00  0.00    +0.000 N 
ATOM      8  C   UNL     1       5.516   4.389  18.932  0.00  0.00    +0.000 C 
ATOM      9  O   UNL     1       6.151   5.100  19.699  0.00  0.00    +0.000 OA
ATOM     10  H   UNL     1       4.256   4.152  17.376  0.00  0.00    +0.000 HD
BRANCH   8  11
ATOM     11  O   UNL     1       5.431   3.039  19.008  0.00  0.00    +0.000 OA
BRANCH  11  12
ATOM     12  C   UNL     1       4.630   2.544  20.093  0.00  0.00    +0.000 C 
BRANCH  12  13
ATOM     13  C   UNL     1       3.154   2.791  19.896  0.00  0.00    +0.000 A 
ATOM     14  C   UNL     1       2.450   2.148  18.869  0.00  0.00    +0.000 A 
ATOM     15  C   UNL     1       1.068   2.314  18.741  0.00  0.00    +0.000 A 
ATOM     16  C   UNL     1       0.378   3.132  19.634  0.00  0.00    +0.000 A 
ATOM     17  C   UNL     1       1.069   3.791  20.648  0.00  0.00    +0.000 A 
ATOM     18  C   UNL     1       2.451   3.627  20.776  0.00  0.00    +0.000 A 
ENDBRANCH  12  13
ENDBRANCH  11  12
ENDBRANCH   8  11
ENDBRANCH   5   7
ENDBRANCH   2   5
BRANCH   1  19
ATOM     19  C   UNL     1       1.779   8.743  18.167  0.00  0.00    +0.000 C 
BRANCH  19  25
ATOM     20  C   UNL     1       0.531  12.300  18.975  0.00  0.00    +0.000 C 
ATOM     21  C   UNL     1      -0.456  12.466  20.140  0.00  0.00    +0.000 C 
ATOM     22  C   UNL     1      -1.258  11.176  20.145  0.00  0.00    +0.000 C 
ATOM     23  C   UNL     1      -0.299  10.130  19.600  0.00  0.00    +0.000 C 
ATOM     24  N   UNL     1       0.817  10.862  19.019  0.00  0.00    +0.000 N 
ATOM     25  C   UNL     1       1.784  10.283  18.205  0.00  0.00    +0.000 C 
ATOM     26  O   UNL     1       2.610  10.953  17.584  0.00  0.00    +0.000 OA
BRANCH  20  27
ATOM     27  C   UNL     1       1.638  13.333  19.197  0.00  0.00    +0.000 C 
ATOM     28  O   UNL     1       1.749  14.341  18.504  0.00  0.00    +0.000 OA
BRANCH  27  30
ATOM     29  C   UNL     1       2.639  14.263  21.088  0.00  0.00    +0.000 C 
ATOM     30  O   UNL     1       2.363  13.090  20.324  0.00  0.00    +0.000 OA
ENDBRANCH  27  30
ENDBRANCH  20  27
ENDBRANCH  19  25
ENDBRANCH   1  19
TORSDOF 9
ENDMDL
MODEL 5
REMARK VINA RESULT:      -7.6      2.880      7.692
REMARK  Name = 
REMARK  11 active torsions:
REMARK  status: ('A' for Active; 'I' for Inactive)
REMARK    1  A    between atoms: C_1  and  O_2
REMARK    2  A    between atoms: O_2  and  C_3
REMARK    3  A    between atoms: C_3  and  C_5
REMARK    4  A    between atoms: C_10  and  C_12
REMARK    5  A    between atoms: C_12  and  N_13
REMARK    6  A    between atoms: C_14  and  C_16
REMARK    7  A    between atoms: C_16  and  C_17
REMARK    8  A    between atoms: C_16  and  N_18
REMARK    9  A    between atoms: C_19  and  O_21
REMARK   10  A    between atoms: O_21  and  C_22
REMARK   11  A    between atoms: C_22  and  C_23
REMARK                            x       y       z     vdW  Elec       q    Type
REMARK                         _______ _______ _______ _____ _____    ______ ____
ROOT
ATOM      1  N   UNL     1       3.914   3.291  19.505  0.00  0.00    +0.000 N 
ATOM      2  C   UNL     1       2.978   2.342  19.147  0.00  0.00    +0.000 C 
ATOM      3  O   UNL     1       3.292   1.305  18.564  0.00  0.00    +0.000 OA
ATOM      4  H   UNL     1       3.682   3.959  20.229  0.00  0.00    +0.000 HD
ENDROOT
BRANCH   2   5
ATOM      5  C   UNL     1       1.532   2.627  19.636  0.00  0.00    +0.000 C 
ATOM      6  C   UNL     1       0.502   1.960  18.730  0.00  0.00    +0.000 C 
BRANCH   5   7
ATOM      7  N   UNL     1       1.277   4.054  19.834  0.00  0.00    +0.000 N 
ATOM      8  C   UNL     1       1.778   4.749  20.897  0.00  0.00    +0.000 C 
ATOM      9  O   UNL     1       2.360   4.247  21.848  0.00  0.00    +0.000 OA
ATOM     10  H   UNL     1       0.938   4.617  19.068  0.00  0.00    +0.000 HD
BRANCH   8  11
ATOM     11  O   UNL     1       1.484   6.066  20.767  0.00  0.00    +0.000 OA
BRANCH  11  12
ATOM     12  C   UNL     1       2.351   6.794  19.883  0.00  0.00    +0.000 C 
BRANCH  12  13
ATOM     13  C   UNL     1       1.824   8.165  19.537  0.00  0.00    +0.000 A 
ATOM     14  C   UNL     1       2.011   8.702  18.255  0.00  0.00    +0.000 A 
ATOM     15  C   UNL     1       1.450   9.936  17.912  0.00  0.00    +0.000 A 
ATOM     16  C   UNL     1       0.704  10.649  18.849  0.00  0.00    +0.000 A 
ATOM     17  C   UNL     1       0.526  10.133  20.132  0.00  0.00    +0.000 A 
ATOM     18  C   UNL     1       1.087   8.901  20.477  0.00  0.00    +0.000 A 
ENDBRANCH  12  13
ENDBRANCH  11  12
ENDBRANCH   8  11
ENDBRANCH   5   7
ENDBRANCH   2   5
BRANCH   1  19
ATOM     19  C   UNL     1       5.311   3.141  19.134  0.00  0.00    +0.000 C 
BRANCH  19  25
ATOM     20  C   UNL     1       6.678   5.597  16.494  0.00  0.00    +0.000 C 
ATOM     21  C   UNL     1       6.127   5.492  15.065  0.00  0.00    +0.000 C 
ATOM     22  C   UNL     1       5.811   4.017  14.887  0.00  0.00    +0.000 C 
ATOM     23  C   UNL     1       5.462   3.531  16.284  0.00  0.00    +0.000 C 
ATOM     24  N   UNL     1       5.893   4.578  17.200  0.00  0.00    +0.000 N 
ATOM     25  C   UNL     1       5.975   4.415  18.578  0.00  0.00    +0.000 C 
ATOM     26  O   UNL     1       6.509   5.249  19.309  0.00  0.00    +0.000 OA
BRANCH  20  27
ATOM     27  C   UNL     1       6.587   7.074  16.885  0.00  0.00    +0.000 C 
ATOM     28  O   UNL     1       5.542   7.593  17.266  0.00  0.00    +0.000 OA
BRANCH  27  30
ATOM     29  C   UNL     1       8.175   8.153  18.210  0.00  0.00    +0.000 C 
ATOM     30  O   UNL     1       7.804   7.683  16.915  0.00  0.00    +0.000 OA
ENDBRANCH  27  30
ENDBRANCH  20  27
ENDBRANCH  19  25
ENDBRANCH   1  19
TORSDOF 9
ENDMDL
MODEL 6
REMARK VINA RESULT:      -7.6      5.412      8.941
REMARK  Name = 
REMARK  11 active torsions:
REMARK  status: ('A' for Active; 'I' for Inactive)
REMARK    1  A    between atoms: C_1  and  O_2
REMARK    2  A    between atoms: O_2  and  C_3
REMARK    3  A    between atoms: C_3  and  C_5
REMARK    4  A    between atoms: C_10  and  C_12
REMARK    5  A    between atoms: C_12  and  N_13
REMARK    6  A    between atoms: C_14  and  C_16
REMARK    7  A    between atoms: C_16  and  C_17
REMARK    8  A    between atoms: C_16  and  N_18
REMARK    9  A    between atoms: C_19  and  O_21
REMARK   10  A    between atoms: O_21  and  C_22
REMARK   11  A    between atoms: C_22  and  C_23
REMARK                            x       y       z     vdW  Elec       q    Type
REMARK                         _______ _______ _______ _____ _____    ______ ____
ROOT
ATOM      1  N   UNL     1       2.123   7.893  19.372  0.00  0.00    +0.000 N 
ATOM      2  C   UNL     1       1.504   9.128  19.390  0.00  0.00    +0.000 C 
ATOM      3  O   UNL     1       1.390   9.814  18.376  0.00  0.00    +0.000 OA
ATOM      4  H   UNL     1       1.935   7.240  20.121  0.00  0.00    +0.000 HD
ENDROOT
BRANCH   2   5
ATOM      5  C   UNL     1       0.867   9.523  20.749  0.00  0.00    +0.000 C 
ATOM      6  C   UNL     1       0.798   8.328  21.694  0.00  0.00    +0.000 C 
BRANCH   5   7
ATOM      7  N   UNL     1      -0.420  10.199  20.592  0.00  0.00    +0.000 N 
ATOM      8  C   UNL     1      -0.713  11.377  21.217  0.00  0.00    +0.000 C 
ATOM      9  O   UNL     1      -0.010  11.911  22.063  0.00  0.00    +0.000 OA
ATOM     10  H   UNL     1      -1.031   9.951  19.827  0.00  0.00    +0.000 HD
BRANCH   8  11
ATOM     11  O   UNL     1      -1.920  11.833  20.804  0.00  0.00    +0.000 OA
BRANCH  11  12
ATOM     12  C   UNL     1      -1.910  12.505  19.535  0.00  0.00    +0.000 C 
BRANCH  12  13
ATOM     13  C   UNL     1      -2.563  11.703  18.436  0.00  0.00    +0.000 A 
ATOM     14  C   UNL     1      -3.948  11.765  18.230  0.00  0.00    +0.000 A 
ATOM     15  C   UNL     1      -4.540  11.086  17.161  0.00  0.00    +0.000 A 
ATOM     16  C   UNL     1      -3.754  10.332  16.292  0.00  0.00    +0.000 A 
ATOM     17  C   UNL     1      -2.378  10.248  16.496  0.00  0.00    +0.000 A 
ATOM     18  C   UNL     1      -1.785  10.925  17.566  0.00  0.00    +0.000 A 
ENDBRANCH  12  13
ENDBRANCH  11  12
ENDBRANCH   8  11
ENDBRANCH   5   7
ENDBRANCH   2   5
BRANCH   1  19
ATOM     19  C   UNL     1       2.742   7.387  18.159  0.00  0.00    +0.000 C 
BRANCH  19  25
ATOM     20  C   UNL     1       3.930   3.926  16.942  0.00  0.00    +0.000 C 
ATOM     21  C   UNL     1       5.350   3.817  16.367  0.00  0.00    +0.000 C 
ATOM     22  C   UNL     1       5.601   5.167  15.718  0.00  0.00    +0.000 C 
ATOM     23  C   UNL     1       4.772   6.144  16.537  0.00  0.00    +0.000 C 
ATOM     24  N   UNL     1       3.871   5.335  17.346  0.00  0.00    +0.000 N 
ATOM     25  C   UNL     1       2.787   5.850  18.047  0.00  0.00    +0.000 C 
ATOM     26  O   UNL     1       1.940   5.129  18.574  0.00  0.00    +0.000 OA
BRANCH  20  27
ATOM     27  C   UNL     1       3.794   2.802  17.972  0.00  0.00    +0.000 C 
ATOM     28  O   UNL     1       3.165   1.772  17.746  0.00  0.00    +0.000 OA
BRANCH  27  30
ATOM     29  C   UNL     1       3.949   2.590  20.290  0.00  0.00    +0.000 C 
ATOM     30  O   UNL     1       4.568   3.006  19.074  0.00  0.00    +0.000 OA
ENDBRANCH  27  30
ENDBRANCH  20  27
ENDBRANCH  19  25
ENDBRANCH   1  19
TORSDOF 9
ENDMDL
MODEL 7
REMARK VINA RESULT:      -7.6      4.916      7.710
REMARK  Name = 
REMARK  11 active torsions:
REMARK  status: ('A' for Active; 'I' for Inactive)
REMARK    1  A    between atoms: C_1  and  O_2
REMARK    2  A    between atoms: O_2  and  C_3
REMARK    3  A    between atoms: C_3  and  C_5
REMARK    4  A    between atoms: C_10  and  C_12
REMARK    5  A    between atoms: C_12  and  N_13
REMARK    6  A    between atoms: C_14  and  C_16
REMARK    7  A    between atoms: C_16  and  C_17
REMARK    8  A    between atoms: C_16  and  N_18
REMARK    9  A    between atoms: C_19  and  O_21
REMARK   10  A    between atoms: O_21  and  C_22
REMARK   11  A    between atoms: C_22  and  C_23
REMARK                            x       y       z     vdW  Elec       q    Type
REMARK                         _______ _______ _______ _____ _____    ______ ____
ROOT
ATOM      1  N   UNL     1       2.087   7.011  18.994  0.00  0.00    +0.000 N 
ATOM      2  C   UNL     1       2.374   5.674  19.193  0.00  0.00    +0.000 C 
ATOM      3  O   UNL     1       2.505   5.198  20.320  0.00  0.00    +0.000 OA
ATOM      4  H   UNL     1       1.692   7.299  18.108  0.00  0.00    +0.000 HD
ENDROOT
BRANCH   2   5
ATOM      5  C   UNL     1       2.401   4.809  17.905  0.00  0.00    +0.000 C 
ATOM      6  C   UNL     1       1.448   3.623  18.018  0.00  0.00    +0.000 C 
BRANCH   5   7
ATOM      7  N   UNL     1       3.756   4.415  17.521  0.00  0.00    +0.000 N 
ATOM      8  C   UNL     1       4.686   5.314  17.082  0.00  0.00    +0.000 C 
ATOM      9  O   UNL     1       4.457   6.489  16.834  0.00  0.00    +0.000 OA
ATOM     10  H   UNL     1       4.122   3.517  17.805  0.00  0.00    +0.000 HD
BRANCH   8  11
ATOM     11  O   UNL     1       5.880   4.697  16.909  0.00  0.00    +0.000 OA
BRANCH  11  12
ATOM     12  C   UNL     1       6.807   5.401  16.067  0.00  0.00    +0.000 C 
BRANCH  12  13
ATOM     13  C   UNL     1       6.845   4.866  14.656  0.00  0.00    +0.000 A 
ATOM     14  C   UNL     1       5.959   3.860  14.247  0.00  0.00    +0.000 A 
ATOM     15  C   UNL     1       5.941   3.426  12.918  0.00  0.00    +0.000 A 
ATOM     16  C   UNL     1       6.813   3.988  11.988  0.00  0.00    +0.000 A 
ATOM     17  C   UNL     1       7.711   4.976  12.387  0.00  0.00    +0.000 A 
ATOM     18  C   UNL     1       7.732   5.410  13.715  0.00  0.00    +0.000 A 
ENDBRANCH  12  13
ENDBRANCH  11  12
ENDBRANCH   8  11
ENDBRANCH   5   7
ENDBRANCH   2   5
BRANCH   1  19
ATOM     19  C   UNL     1       2.007   7.933  20.114  0.00  0.00    +0.000 C 
BRANCH  19  25
ATOM     20  C   UNL     1      -0.424  10.835  20.844  0.00  0.00    +0.000 C 
ATOM     21  C   UNL     1      -0.648  11.230  22.311  0.00  0.00    +0.000 C 
ATOM     22  C   UNL     1      -0.493   9.931  23.082  0.00  0.00    +0.000 C 
ATOM     23  C   UNL     1       0.486   9.112  22.256  0.00  0.00    +0.000 C 
ATOM     24  N   UNL     1       0.582   9.775  20.963  0.00  0.00    +0.000 N 
ATOM     25  C   UNL     1       1.184   9.208  19.846  0.00  0.00    +0.000 C 
ATOM     26  O   UNL     1       1.095   9.708  18.724  0.00  0.00    +0.000 OA
BRANCH  20  27
ATOM     27  C   UNL     1      -0.121  12.131  20.089  0.00  0.00    +0.000 C 
ATOM     28  O   UNL     1       0.934  12.745  20.227  0.00  0.00    +0.000 OA
BRANCH  27  30
ATOM     29  C   UNL     1      -1.977  11.354  18.908  0.00  0.00    +0.000 C 
ATOM     30  O   UNL     1      -1.064  12.424  19.152  0.00  0.00    +0.000 OA
ENDBRANCH  27  30
ENDBRANCH  20  27
ENDBRANCH  19  25
ENDBRANCH   1  19
TORSDOF 9
ENDMDL
MODEL 8
REMARK VINA RESULT:      -7.6      4.231      7.403
REMARK  Name = 
REMARK  11 active torsions:
REMARK  status: ('A' for Active; 'I' for Inactive)
REMARK    1  A    between atoms: C_1  and  O_2
REMARK    2  A    between atoms: O_2  and  C_3
REMARK    3  A    between atoms: C_3  and  C_5
REMARK    4  A    between atoms: C_10  and  C_12
REMARK    5  A    between atoms: C_12  and  N_13
REMARK    6  A    between atoms: C_14  and  C_16
REMARK    7  A    between atoms: C_16  and  C_17
REMARK    8  A    between atoms: C_16  and  N_18
REMARK    9  A    between atoms: C_19  and  O_21
REMARK   10  A    between atoms: O_21  and  C_22
REMARK   11  A    between atoms: C_22  and  C_23
REMARK                            x       y       z     vdW  Elec       q    Type
REMARK                         _______ _______ _______ _____ _____    ______ ____
ROOT
ATOM      1  N   UNL     1       2.214   6.876  18.959  0.00  0.00    +0.000 N 
ATOM      2  C   UNL     1       1.941   5.914  19.912  0.00  0.00    +0.000 C 
ATOM      3  O   UNL     1       1.744   6.204  21.091  0.00  0.00    +0.000 OA
ATOM      4  H   UNL     1       2.069   6.653  17.983  0.00  0.00    +0.000 HD
ENDROOT
BRANCH   2   5
ATOM      5  C   UNL     1       1.787   4.471  19.362  0.00  0.00    +0.000 C 
ATOM      6  C   UNL     1       1.202   3.539  20.418  0.00  0.00    +0.000 C 
BRANCH   5   7
ATOM      7  N   UNL     1       3.024   3.958  18.774  0.00  0.00    +0.000 N 
ATOM      8  C   UNL     1       3.086   3.476  17.497  0.00  0.00    +0.000 C 
ATOM      9  O   UNL     1       2.118   3.293  16.773  0.00  0.00    +0.000 OA
ATOM     10  H   UNL     1       3.914   4.176  19.199  0.00  0.00    +0.000 HD
BRANCH   8  11
ATOM     11  O   UNL     1       4.369   3.180  17.177  0.00  0.00    +0.000 OA
BRANCH  11  12
ATOM     12  C   UNL     1       5.005   4.121  16.298  0.00  0.00    +0.000 C 
BRANCH  12  13
ATOM     13  C   UNL     1       5.920   5.079  17.020  0.00  0.00    +0.000 A 
ATOM     14  C   UNL     1       6.809   4.618  18.002  0.00  0.00    +0.000 A 
ATOM     15  C   UNL     1       7.713   5.494  18.610  0.00  0.00    +0.000 A 
ATOM     16  C   UNL     1       7.732   6.840  18.250  0.00  0.00    +0.000 A 
ATOM     17  C   UNL     1       6.842   7.313  17.288  0.00  0.00    +0.000 A 
ATOM     18  C   UNL     1       5.936   6.439  16.680  0.00  0.00    +0.000 A 
ENDBRANCH  12  13
ENDBRANCH  11  12
ENDBRANCH   8  11
ENDBRANCH   5   7
ENDBRANCH   2   5
BRANCH   1  19
ATOM     19  C   UNL     1       2.361   8.273  19.330  0.00  0.00    +0.000 C 
BRANCH  19  25
ATOM     20  C   UNL     1      -0.710  10.575  19.700  0.00  0.00    +0.000 C 
ATOM     21  C   UNL     1      -0.916  11.283  21.046  0.00  0.00    +0.000 C 
ATOM     22  C   UNL     1      -0.348  10.320  22.074  0.00  0.00    +0.000 C 
ATOM     23  C   UNL     1       0.750   9.576  21.331  0.00  0.00    +0.000 C 
ATOM     24  N   UNL     1       0.556   9.867  19.917  0.00  0.00    +0.000 N 
ATOM     25  C   UNL     1       1.200   9.186  18.891  0.00  0.00    +0.000 C 
ATOM     26  O   UNL     1       0.887   9.328  17.708  0.00  0.00    +0.000 OA
BRANCH  20  27
ATOM     27  C   UNL     1      -0.838  11.652  18.621  0.00  0.00    +0.000 C 
ATOM     28  O   UNL     1      -1.841  11.772  17.922  0.00  0.00    +0.000 OA
BRANCH  27  30
ATOM     29  C   UNL     1      -0.216  13.899  18.528  0.00  0.00    +0.000 C 
ATOM     30  O   UNL     1       0.197  12.538  18.640  0.00  0.00    +0.000 OA
ENDBRANCH  27  30
ENDBRANCH  20  27
ENDBRANCH  19  25
ENDBRANCH   1  19
TORSDOF 9
ENDMDL
MODEL 9
REMARK VINA RESULT:      -7.6      7.607     11.073
REMARK  Name = 
REMARK  11 active torsions:
REMARK  status: ('A' for Active; 'I' for Inactive)
REMARK    1  A    between atoms: C_1  and  O_2
REMARK    2  A    between atoms: O_2  and  C_3
REMARK    3  A    between atoms: C_3  and  C_5
REMARK    4  A    between atoms: C_10  and  C_12
REMARK    5  A    between atoms: C_12  and  N_13
REMARK    6  A    between atoms: C_14  and  C_16
REMARK    7  A    between atoms: C_16  and  C_17
REMARK    8  A    between atoms: C_16  and  N_18
REMARK    9  A    between atoms: C_19  and  O_21
REMARK   10  A    between atoms: O_21  and  C_22
REMARK   11  A    between atoms: C_22  and  C_23
REMARK                            x       y       z     vdW  Elec       q    Type
REMARK                         _______ _______ _______ _____ _____    ______ ____
ROOT
ATOM      1  N   UNL     1      -0.820  10.898  21.457  0.00  0.00    +0.000 N 
ATOM      2  C   UNL     1       0.475  10.554  21.123  0.00  0.00    +0.000 C 
ATOM      3  O   UNL     1       1.364  10.469  21.969  0.00  0.00    +0.000 OA
ATOM      4  H   UNL     1      -1.569  10.665  20.817  0.00  0.00    +0.000 HD
ENDROOT
BRANCH   2   5
ATOM      5  C   UNL     1       0.691  10.172  19.634  0.00  0.00    +0.000 C 
ATOM      6  C   UNL     1      -0.615  10.251  18.850  0.00  0.00    +0.000 C 
BRANCH   5   7
ATOM      7  N   UNL     1       1.373   8.888  19.475  0.00  0.00    +0.000 N 
ATOM      8  C   UNL     1       2.085   8.568  18.355  0.00  0.00    +0.000 C 
ATOM      9  O   UNL     1       2.115   9.238  17.333  0.00  0.00    +0.000 OA
ATOM     10  H   UNL     1       1.548   8.306  20.282  0.00  0.00    +0.000 HD
BRANCH   8  11
ATOM     11  O   UNL     1       2.703   7.374  18.526  0.00  0.00    +0.000 OA
BRANCH  11  12
ATOM     12  C   UNL     1       2.398   6.708  19.761  0.00  0.00    +0.000 C 
BRANCH  12  13
ATOM     13  C   UNL     1       1.978   5.270  19.568  0.00  0.00    +0.000 A 
ATOM     14  C   UNL     1       1.572   4.490  20.660  0.00  0.00    +0.000 A 
ATOM     15  C   UNL     1       1.106   3.186  20.468  0.00  0.00    +0.000 A 
ATOM     16  C   UNL     1       1.048   2.647  19.185  0.00  0.00    +0.000 A 
ATOM     17  C   UNL     1       1.466   3.407  18.093  0.00  0.00    +0.000 A 
ATOM     18  C   UNL     1       1.934   4.710  18.284  0.00  0.00    +0.000 A 
ENDBRANCH  12  13
ENDBRANCH  11  12
ENDBRANCH   8  11
ENDBRANCH   5   7
ENDBRANCH   2   5
BRANCH   1  19
ATOM     19  C   UNL     1      -1.170  11.256  22.821  0.00  0.00    +0.000 C 
BRANCH  19  25
ATOM     20  C   UNL     1      -2.619  14.736  23.632  0.00  0.00    +0.000 C 
ATOM     21  C   UNL     1      -3.998  14.799  24.304  0.00  0.00    +0.000 C 
ATOM     22  C   UNL     1      -4.738  13.586  23.768  0.00  0.00    +0.000 C 
ATOM     23  C   UNL     1      -3.646  12.564  23.494  0.00  0.00    +0.000 C 
ATOM     24  N   UNL     1      -2.385  13.290  23.548  0.00  0.00    +0.000 N 
ATOM     25  C   UNL     1      -1.172  12.769  23.114  0.00  0.00    +0.000 C 
ATOM     26  O   UNL     1      -0.159  13.460  23.004  0.00  0.00    +0.000 OA
BRANCH  20  27
ATOM     27  C   UNL     1      -1.696  15.639  24.453  0.00  0.00    +0.000 C 
ATOM     28  O   UNL     1      -1.212  16.673  24.002  0.00  0.00    +0.000 OA
BRANCH  27  30
ATOM     29  C   UNL     1      -0.800  16.115  26.554  0.00  0.00    +0.000 C 
ATOM     30  O   UNL     1      -1.613  15.255  25.757  0.00  0.00    +0.000 OA
ENDBRANCH  27  30
ENDBRANCH  20  27
ENDBRANCH  19  25
ENDBRANCH   1  19
TORSDOF 9
ENDMDL
