MODEL 1
REMARK VINA RESULT:      -8.5      0.000      0.000
REMARK  Name = 
REMARK  10 active torsions:
REMARK  status: ('A' for Active; 'I' for Inactive)
REMARK    1  A    between atoms: C_1  and  N_2
REMARK    2  A    between atoms: N_2  and  C_3
REMARK    3  A    between atoms: C_6  and  C_7
REMARK    4  A    between atoms: N_16  and  C_17
REMARK    5  A    between atoms: C_17  and  C_18
REMARK    6  A    between atoms: C_18  and  C_19
REMARK    7  A    between atoms: C_19  and  C_20
REMARK    8  A    between atoms: C_20  and  N_21
REMARK    9  A    between atoms: C_22  and  C_23
REMARK   10  A    between atoms: C_22  and  C_24
REMARK                            x       y       z     vdW  Elec       q    Type
REMARK                         _______ _______ _______ _____ _____    ______ ____
ROOT
ATOM      1  C   UNL     1       4.236   5.948  17.472  0.00  0.00    +0.000 C 
ATOM      2  C   UNL     1       5.669   6.323  17.848  0.00  0.00    +0.000 A 
ATOM      3  C   UNL     1       6.372   7.366  17.238  0.00  0.00    +0.000 A 
ATOM      4  C   UNL     1       7.697   7.624  17.596  0.00  0.00    +0.000 A 
ATOM      5  C   UNL     1       8.320   6.845  18.572  0.00  0.00    +0.000 A 
ATOM      6  C   UNL     1       7.624   5.795  19.172  0.00  0.00    +0.000 A 
ATOM      7  C   UNL     1       6.305   5.508  18.799  0.00  0.00    +0.000 A 
ATOM      8  N   UNL     1       5.635   4.422  19.372  0.00  0.00    +0.000 NA
ATOM      9  C   UNL     1       4.618   3.884  18.736  0.00  0.00    +0.000 C 
ATOM     10  N   UNL     1       3.900   3.036  19.538  0.00  0.00    +0.000 N 
ATOM     11  C   UNL     1       4.210   4.377  17.310  0.00  0.00    +0.000 C 
ATOM     12  C   UNL     1       5.272   3.902  16.271  0.00  0.00    +0.000 C 
ATOM     13  C   UNL     1       2.876   3.932  16.677  0.00  0.00    +0.000 C 
ATOM     14  H   UNL     1       4.214   3.143  20.499  0.00  0.00    +0.000 HD
ENDROOT
BRANCH   1  18
ATOM     15  C   UNL     1       1.451   7.743  20.377  0.00  0.00    +0.000 A 
ATOM     16  C   UNL     1       1.938   6.445  20.524  0.00  0.00    +0.000 A 
ATOM     17  C   UNL     1       2.816   5.876  19.583  0.00  0.00    +0.000 A 
ATOM     18  C   UNL     1       3.196   6.568  18.434  0.00  0.00    +0.000 A 
ATOM     19  C   UNL     1       2.588   7.824  18.237  0.00  0.00    +0.000 A 
ATOM     20  C   UNL     1       1.734   8.402  19.179  0.00  0.00    +0.000 A 
BRANCH  15  22
ATOM     21  C   UNL     1      -0.132   9.521  20.806  0.00  0.00    +0.000 C 
ATOM     22  N   UNL     1       0.613   8.374  21.303  0.00  0.00    +0.000 N 
ATOM     23  H   UNL     1       0.009   7.700  21.769  0.00  0.00    +0.000 HD
ENDBRANCH  15  22
ENDBRANCH   1  18
BRANCH  10  24
ATOM     24  C   UNL     1       3.190   1.816  19.287  0.00  0.00    +0.000 C 
BRANCH  24  25
ATOM     25  C   UNL     1       1.683   2.012  19.168  0.00  0.00    +0.000 C 
BRANCH  25  26
ATOM     26  C   UNL     1       1.045   2.945  20.208  0.00  0.00    +0.000 C 
BRANCH  26  27
ATOM     27  C   UNL     1       1.259   2.578  21.679  0.00  0.00    +0.000 C 
BRANCH  27  28
ATOM     28  N   UNL     1       2.401   3.267  22.266  0.00  0.00    +0.000 NA
ATOM     29  H   UNL     1       2.202   3.543  23.223  0.00  0.00    +0.000 HD
ATOM     30  H   UNL     1       2.573   4.133  21.750  0.00  0.00    +0.000 HD
ENDBRANCH  27  28
ENDBRANCH  26  27
ENDBRANCH  25  26
ENDBRANCH  24  25
ENDBRANCH  10  24
TORSDOF 7
ENDMDL
MODEL 2
REMARK VINA RESULT:      -8.0      1.324      2.117
REMARK  Name = 
REMARK  10 active torsions:
REMARK  status: ('A' for Active; 'I' for Inactive)
REMARK    1  A    between atoms: C_1  and  N_2
REMARK    2  A    between atoms: N_2  and  C_3
REMARK    3  A    between atoms: C_6  and  C_7
REMARK    4  A    between atoms: N_16  and  C_17
REMARK    5  A    between atoms: C_17  and  C_18
REMARK    6  A    between atoms: C_18  and  C_19
REMARK    7  A    between atoms: C_19  and  C_20
REMARK    8  A    between atoms: C_20  and  N_21
REMARK    9  A    between atoms: C_22  and  C_23
REMARK   10  A    between atoms: C_22  and  C_24
REMARK                            x       y       z     vdW  Elec       q    Type
REMARK                         _______ _______ _______ _____ _____    ______ ____
ROOT
ATOM      1  C   UNL     1       3.398   6.370  17.599  0.00  0.00    +0.000 C 
ATOM      2  C   UNL     1       4.908   6.402  17.832  0.00  0.00    +0.000 A 
ATOM      3  C   UNL     1       5.808   6.986  16.934  0.00  0.00    +0.000 A 
ATOM      4  C   UNL     1       7.181   6.938  17.184  0.00  0.00    +0.000 A 
ATOM      5  C   UNL     1       7.658   6.313  18.337  0.00  0.00    +0.000 A 
ATOM      6  C   UNL     1       6.762   5.719  19.227  0.00  0.00    +0.000 A 
ATOM      7  C   UNL     1       5.385   5.735  18.971  0.00  0.00    +0.000 A 
ATOM      8  N   UNL     1       4.502   5.093  19.845  0.00  0.00    +0.000 NA
ATOM      9  C   UNL     1       3.321   4.719  19.407  0.00  0.00    +0.000 C 
ATOM     10  N   UNL     1       2.479   4.372  20.432  0.00  0.00    +0.000 N 
ATOM     11  C   UNL     1       2.928   4.894  17.905  0.00  0.00    +0.000 C 
ATOM     12  C   UNL     1       3.714   3.863  17.038  0.00  0.00    +0.000 C 
ATOM     13  C   UNL     1       1.468   4.697  17.447  0.00  0.00    +0.000 C 
ATOM     14  H   UNL     1       2.902   4.645  21.316  0.00  0.00    +0.000 HD
ENDROOT
BRANCH   1  18
ATOM     15  C   UNL     1       1.117   9.566  19.600  0.00  0.00    +0.000 A 
ATOM     16  C   UNL     1       1.626   9.716  18.311  0.00  0.00    +0.000 A 
ATOM     17  C   UNL     1       2.365   8.695  17.686  0.00  0.00    +0.000 A 
ATOM     18  C   UNL     1       2.665   7.506  18.350  0.00  0.00    +0.000 A 
ATOM     19  C   UNL     1       2.260   7.429  19.697  0.00  0.00    +0.000 A 
ATOM     20  C   UNL     1       1.506   8.430  20.314  0.00  0.00    +0.000 A 
BRANCH  15  22
ATOM     21  C   UNL     1       0.882  11.879  20.264  0.00  0.00    +0.000 C 
ATOM     22  N   UNL     1       0.339  10.529  20.251  0.00  0.00    +0.000 N 
ATOM     23  H   UNL     1      -0.623  10.508  19.920  0.00  0.00    +0.000 HD
ENDBRANCH  15  22
ENDBRANCH   1  18
BRANCH  10  24
ATOM     24  C   UNL     1       1.442   3.391  20.559  0.00  0.00    +0.000 C 
BRANCH  24  25
ATOM     25  C   UNL     1       1.958   1.958  20.481  0.00  0.00    +0.000 C 
BRANCH  25  26
ATOM     26  C   UNL     1       2.379   1.473  19.085  0.00  0.00    +0.000 C 
BRANCH  26  27
ATOM     27  C   UNL     1       3.851   1.095  18.907  0.00  0.00    +0.000 C 
BRANCH  27  28
ATOM     28  N   UNL     1       4.726   1.809  19.828  0.00  0.00    +0.000 NA
ATOM     29  H   UNL     1       4.335   1.813  20.766  0.00  0.00    +0.000 HD
ATOM     30  H   UNL     1       4.790   2.788  19.542  0.00  0.00    +0.000 HD
ENDBRANCH  27  28
ENDBRANCH  26  27
ENDBRANCH  25  26
ENDBRANCH  24  25
ENDBRANCH  10  24
TORSDOF 7
ENDMDL
MODEL 3
REMARK VINA RESULT:      -8.0      2.476      5.511
REMARK  Name = 
REMARK  10 active torsions:
REMARK  status: ('A' for Active; 'I' for Inactive)
REMARK    1  A    between atoms: C_1  and  N_2
REMARK    2  A    between atoms: N_2  and  C_3
REMARK    3  A    between atoms: C_6  and  C_7
REMARK    4  A    between atoms: N_16  and  C_17
REMARK    5  A    between atoms: C_17  and  C_18
REMARK    6  A    between atoms: C_18  and  C_19
REMARK    7  A    between atoms: C_19  and  C_20
REMARK    8  A    between atoms: C_20  and  N_21
REMARK    9  A    between atoms: C_22  and  C_23
REMARK   10  A    between atoms: C_22  and  C_24
REMARK                            x       y       z     vdW  Elec       q    Type
REMARK                         _______ _______ _______ _____ _____    ______ ____
ROOT
ATOM      1  C   UNL     1       3.571   5.478  19.565  0.00  0.00    +0.000 C 
ATOM      2  C   UNL     1       2.550   4.346  19.687  0.00  0.00    +0.000 A 
ATOM      3  C   UNL     1       1.947   3.988  20.897  0.00  0.00    +0.000 A 
ATOM      4  C   UNL     1       1.059   2.911  20.947  0.00  0.00    +0.000 A 
ATOM      5  C   UNL     1       0.765   2.195  19.786  0.00  0.00    +0.000 A 
ATOM      6  C   UNL     1       1.377   2.543  18.581  0.00  0.00    +0.000 A 
ATOM      7  C   UNL     1       2.292   3.602  18.525  0.00  0.00    +0.000 A 
ATOM      8  N   UNL     1       2.935   3.909  17.322  0.00  0.00    +0.000 NA
ATOM      9  C   UNL     1       4.076   4.561  17.350  0.00  0.00    +0.000 C 
ATOM     10  N   UNL     1       4.430   5.030  16.112  0.00  0.00    +0.000 N 
ATOM     11  C   UNL     1       4.769   4.911  18.706  0.00  0.00    +0.000 C 
ATOM     12  C   UNL     1       5.352   3.612  19.343  0.00  0.00    +0.000 C 
ATOM     13  C   UNL     1       5.961   5.889  18.749  0.00  0.00    +0.000 C 
ATOM     14  H   UNL     1       3.645   4.917  15.476  0.00  0.00    +0.000 HD
ENDROOT
BRANCH   1  18
ATOM     15  C   UNL     1       1.865   9.354  18.351  0.00  0.00    +0.000 A 
ATOM     16  C   UNL     1       1.489   8.719  19.533  0.00  0.00    +0.000 A 
ATOM     17  C   UNL     1       2.030   7.475  19.905  0.00  0.00    +0.000 A 
ATOM     18  C   UNL     1       2.926   6.797  19.080  0.00  0.00    +0.000 A 
ATOM     19  C   UNL     1       3.188   7.391  17.829  0.00  0.00    +0.000 A 
ATOM     20  C   UNL     1       2.673   8.637  17.465  0.00  0.00    +0.000 A 
BRANCH  15  22
ATOM     21  C   UNL     1       1.254  11.600  19.013  0.00  0.00    +0.000 C 
ATOM     22  N   UNL     1       1.394  10.611  17.954  0.00  0.00    +0.000 N 
ATOM     23  H   UNL     1       1.927  10.970  17.165  0.00  0.00    +0.000 HD
ENDBRANCH  15  22
ENDBRANCH   1  18
BRANCH  10  24
ATOM     24  C   UNL     1       5.692   5.208  15.455  0.00  0.00    +0.000 C 
BRANCH  24  25
ATOM     25  C   UNL     1       6.203   3.938  14.784  0.00  0.00    +0.000 C 
BRANCH  25  26
ATOM     26  C   UNL     1       6.506   4.051  13.282  0.00  0.00    +0.000 C 
BRANCH  26  27
ATOM     27  C   UNL     1       5.602   3.252  12.340  0.00  0.00    +0.000 C 
BRANCH  27  28
ATOM     28  N   UNL     1       6.274   2.090  11.772  0.00  0.00    +0.000 NA
ATOM     29  H   UNL     1       5.656   1.284  11.763  0.00  0.00    +0.000 HD
ATOM     30  H   UNL     1       7.066   1.835  12.367  0.00  0.00    +0.000 HD
ENDBRANCH  27  28
ENDBRANCH  26  27
ENDBRANCH  25  26
ENDBRANCH  24  25
ENDBRANCH  10  24
TORSDOF 7
ENDMDL
MODEL 4
REMARK VINA RESULT:      -7.8      2.438      5.540
REMARK  Name = 
REMARK  10 active torsions:
REMARK  status: ('A' for Active; 'I' for Inactive)
REMARK    1  A    between atoms: C_1  and  N_2
REMARK    2  A    between atoms: N_2  and  C_3
REMARK    3  A    between atoms: C_6  and  C_7
REMARK    4  A    between atoms: N_16  and  C_17
REMARK    5  A    between atoms: C_17  and  C_18
REMARK    6  A    between atoms: C_18  and  C_19
REMARK    7  A    between atoms: C_19  and  C_20
REMARK    8  A    between atoms: C_20  and  N_21
REMARK    9  A    between atoms: C_22  and  C_23
REMARK   10  A    between atoms: C_22  and  C_24
REMARK                            x       y       z     vdW  Elec       q    Type
REMARK                         _______ _______ _______ _____ _____    ______ ____
ROOT
ATOM      1  C   UNL     1       3.554   5.438  19.647  0.00  0.00    +0.000 C 
ATOM      2  C   UNL     1       2.495   4.336  19.690  0.00  0.00    +0.000 A 
ATOM      3  C   UNL     1       1.850   3.941  20.866  0.00  0.00    +0.000 A 
ATOM      4  C   UNL     1       0.927   2.894  20.844  0.00  0.00    +0.000 A 
ATOM      5  C   UNL     1       0.639   2.244  19.643  0.00  0.00    +0.000 A 
ATOM      6  C   UNL     1       1.293   2.628  18.471  0.00  0.00    +0.000 A 
ATOM      7  C   UNL     1       2.242   3.657  18.487  0.00  0.00    +0.000 A 
ATOM      8  N   UNL     1       2.926   3.999  17.316  0.00  0.00    +0.000 NA
ATOM      9  C   UNL     1       4.086   4.611  17.403  0.00  0.00    +0.000 C 
ATOM     10  N   UNL     1       4.486   5.126  16.198  0.00  0.00    +0.000 N 
ATOM     11  C   UNL     1       4.755   4.872  18.791  0.00  0.00    +0.000 C 
ATOM     12  C   UNL     1       5.280   3.526  19.378  0.00  0.00    +0.000 C 
ATOM     13  C   UNL     1       5.976   5.807  18.909  0.00  0.00    +0.000 C 
ATOM     14  H   UNL     1       3.714   5.069  15.539  0.00  0.00    +0.000 HD
ENDROOT
BRANCH   1  18
ATOM     15  C   UNL     1       1.750   9.201  18.233  0.00  0.00    +0.000 A 
ATOM     16  C   UNL     1       2.747   8.543  17.514  0.00  0.00    +0.000 A 
ATOM     17  C   UNL     1       3.326   7.349  17.981  0.00  0.00    +0.000 A 
ATOM     18  C   UNL     1       2.965   6.799  19.211  0.00  0.00    +0.000 A 
ATOM     19  C   UNL     1       2.057   7.551  19.983  0.00  0.00    +0.000 A 
ATOM     20  C   UNL     1       1.462   8.724  19.514  0.00  0.00    +0.000 A 
BRANCH  15  22
ATOM     21  C   UNL     1       0.345  11.085  18.803  0.00  0.00    +0.000 C 
ATOM     22  N   UNL     1       1.109  10.365  17.796  0.00  0.00    +0.000 N 
ATOM     23  H   UNL     1       1.755  10.974  17.299  0.00  0.00    +0.000 HD
ENDBRANCH  15  22
ENDBRANCH   1  18
BRANCH  10  24
ATOM     24  C   UNL     1       5.769   5.293  15.581  0.00  0.00    +0.000 C 
BRANCH  24  25
ATOM     25  C   UNL     1       6.222   4.066  14.798  0.00  0.00    +0.000 C 
BRANCH  25  26
ATOM     26  C   UNL     1       5.555   3.860  13.429  0.00  0.00    +0.000 C 
BRANCH  26  27
ATOM     27  C   UNL     1       6.473   3.452  12.275  0.00  0.00    +0.000 C 
BRANCH  27  28
ATOM     28  N   UNL     1       6.244   2.082  11.837  0.00  0.00    +0.000 NA
ATOM     29  H   UNL     1       6.940   1.800  11.152  0.00  0.00    +0.000 HD
ATOM     30  H   UNL     1       5.340   2.027  11.361  0.00  0.00    +0.000 HD
ENDBRANCH  27  28
ENDBRANCH  26  27
ENDBRANCH  25  26
ENDBRANCH  24  25
ENDBRANCH  10  24
TORSDOF 7
ENDMDL
MODEL 5
REMARK VINA RESULT:      -7.7      2.269      5.492
REMARK  Name = 
REMARK  10 active torsions:
REMARK  status: ('A' for Active; 'I' for Inactive)
REMARK    1  A    between atoms: C_1  and  N_2
REMARK    2  A    between atoms: N_2  and  C_3
REMARK    3  A    between atoms: C_6  and  C_7
REMARK    4  A    between atoms: N_16  and  C_17
REMARK    5  A    between atoms: C_17  and  C_18
REMARK    6  A    between atoms: C_18  and  C_19
REMARK    7  A    between atoms: C_19  and  C_20
REMARK    8  A    between atoms: C_20  and  N_21
REMARK    9  A    between atoms: C_22  and  C_23
REMARK   10  A    between atoms: C_22  and  C_24
REMARK                            x       y       z     vdW  Elec       q    Type
REMARK                         _______ _______ _______ _____ _____    ______ ____
ROOT
ATOM      1  C   UNL     1       3.447   5.574  19.643  0.00  0.00    +0.000 C 
ATOM      2  C   UNL     1       2.482   4.390  19.700  0.00  0.00    +0.000 A 
ATOM      3  C   UNL     1       1.903   3.932  20.888  0.00  0.00    +0.000 A 
ATOM      4  C   UNL     1       1.068   2.813  20.877  0.00  0.00    +0.000 A 
ATOM      5  C   UNL     1       0.801   2.154  19.676  0.00  0.00    +0.000 A 
ATOM      6  C   UNL     1       1.389   2.602  18.492  0.00  0.00    +0.000 A 
ATOM      7  C   UNL     1       2.253   3.704  18.496  0.00  0.00    +0.000 A 
ATOM      8  N   UNL     1       2.874   4.113  17.312  0.00  0.00    +0.000 NA
ATOM      9  C   UNL     1       3.983   4.816  17.376  0.00  0.00    +0.000 C 
ATOM     10  N   UNL     1       4.307   5.375  16.167  0.00  0.00    +0.000 N 
ATOM     11  C   UNL     1       4.666   5.117  18.749  0.00  0.00    +0.000 C 
ATOM     12  C   UNL     1       5.313   3.812  19.306  0.00  0.00    +0.000 C 
ATOM     13  C   UNL     1       5.810   6.147  18.847  0.00  0.00    +0.000 C 
ATOM     14  H   UNL     1       3.525   5.262  15.528  0.00  0.00    +0.000 HD
ENDROOT
BRANCH   1  18
ATOM     15  C   UNL     1       1.574   9.436  18.644  0.00  0.00    +0.000 A 
ATOM     16  C   UNL     1       1.346   8.796  19.862  0.00  0.00    +0.000 A 
ATOM     17  C   UNL     1       1.938   7.557  20.165  0.00  0.00    +0.000 A 
ATOM     18  C   UNL     1       2.738   6.888  19.239  0.00  0.00    +0.000 A 
ATOM     19  C   UNL     1       2.845   7.485  17.967  0.00  0.00    +0.000 A 
ATOM     20  C   UNL     1       2.279   8.726  17.669  0.00  0.00    +0.000 A 
BRANCH  15  22
ATOM     21  C   UNL     1      -0.364  10.882  18.599  0.00  0.00    +0.000 C 
ATOM     22  N   UNL     1       1.048  10.688  18.308  0.00  0.00    +0.000 N 
ATOM     23  H   UNL     1       1.622  11.439  18.684  0.00  0.00    +0.000 HD
ENDBRANCH  15  22
ENDBRANCH   1  18
BRANCH  10  24
ATOM     24  C   UNL     1       5.556   5.651  15.519  0.00  0.00    +0.000 C 
BRANCH  24  25
ATOM     25  C   UNL     1       6.381   4.399  15.246  0.00  0.00    +0.000 C 
BRANCH  25  26
ATOM     26  C   UNL     1       6.472   3.964  13.775  0.00  0.00    +0.000 C 
BRANCH  26  27
ATOM     27  C   UNL     1       7.251   4.888  12.836  0.00  0.00    +0.000 C 
BRANCH  27  28
ATOM     28  N   UNL     1       8.308   5.619  13.522  0.00  0.00    +0.000 NA
ATOM     29  H   UNL     1       9.217   5.208  13.326  0.00  0.00    +0.000 HD
ATOM     30  H   UNL     1       8.172   5.539  14.532  0.00  0.00    +0.000 HD
ENDBRANCH  27  28
ENDBRANCH  26  27
ENDBRANCH  25  26
ENDBRANCH  24  25
ENDBRANCH  10  24
TORSDOF 7
ENDMDL
MODEL 6
REMARK VINA RESULT:      -7.6      0.907      1.131
REMARK  Name = 
REMARK  10 active torsions:
REMARK  status: ('A' for Active; 'I' for Inactive)
REMARK    1  A    between atoms: C_1  and  N_2
REMARK    2  A    between atoms: N_2  and  C_3
REMARK    3  A    between atoms: C_6  and  C_7
REMARK    4  A    between atoms: N_16  and  C_17
REMARK    5  A    between atoms: C_17  and  C_18
REMARK    6  A    between atoms: C_18  and  C_19
REMARK    7  A    between atoms: C_19  and  C_20
REMARK    8  A    between atoms: C_20  and  N_21
REMARK    9  A    between atoms: C_22  and  C_23
REMARK   10  A    between atoms: C_22  and  C_24
REMARK                            x       y       z     vdW  Elec       q    Type
REMARK                         _______ _______ _______ _____ _____    ______ ____
ROOT
ATOM      1  C   UNL     1       4.295   5.976  17.499  0.00  0.00    +0.000 C 
ATOM      2  C   UNL     1       5.720   6.430  17.816  0.00  0.00    +0.000 A 
ATOM      3  C   UNL     1       6.392   7.409  17.077  0.00  0.00    +0.000 A 
ATOM      4  C   UNL     1       7.711   7.743  17.391  0.00  0.00    +0.000 A 
ATOM      5  C   UNL     1       8.359   7.105  18.450  0.00  0.00    +0.000 A 
ATOM      6  C   UNL     1       7.693   6.119  19.179  0.00  0.00    +0.000 A 
ATOM      7  C   UNL     1       6.381   5.755  18.854  0.00  0.00    +0.000 A 
ATOM      8  N   UNL     1       5.742   4.731  19.560  0.00  0.00    +0.000 NA
ATOM      9  C   UNL     1       4.737   4.093  19.003  0.00  0.00    +0.000 C 
ATOM     10  N   UNL     1       4.046   3.332  19.908  0.00  0.00    +0.000 N 
ATOM     11  C   UNL     1       4.310   4.397  17.531  0.00  0.00    +0.000 C 
ATOM     12  C   UNL     1       5.380   3.825  16.550  0.00  0.00    +0.000 C 
ATOM     13  C   UNL     1       2.985   3.843  16.967  0.00  0.00    +0.000 C 
ATOM     14  H   UNL     1       4.361   3.563  20.847  0.00  0.00    +0.000 HD
ENDROOT
BRANCH   1  18
ATOM     15  C   UNL     1       1.475   8.032  20.189  0.00  0.00    +0.000 A 
ATOM     16  C   UNL     1       1.958   6.753  20.461  0.00  0.00    +0.000 A 
ATOM     17  C   UNL     1       2.847   6.100  19.589  0.00  0.00    +0.000 A 
ATOM     18  C   UNL     1       3.244   6.683  18.386  0.00  0.00    +0.000 A 
ATOM     19  C   UNL     1       2.640   7.914  18.066  0.00  0.00    +0.000 A 
ATOM     20  C   UNL     1       1.775   8.578  18.939  0.00  0.00    +0.000 A 
BRANCH  15  22
ATOM     21  C   UNL     1      -0.186   9.776  20.412  0.00  0.00    +0.000 C 
ATOM     22  N   UNL     1       0.625   8.745  21.042  0.00  0.00    +0.000 N 
ATOM     23  H   UNL     1       0.066   8.115  21.612  0.00  0.00    +0.000 HD
ENDBRANCH  15  22
ENDBRANCH   1  18
BRANCH  10  24
ATOM     24  C   UNL     1       3.367   2.072  19.815  0.00  0.00    +0.000 C 
BRANCH  24  25
ATOM     25  C   UNL     1       2.108   2.004  20.670  0.00  0.00    +0.000 C 
BRANCH  25  26
ATOM     26  C   UNL     1       1.089   3.134  20.454  0.00  0.00    +0.000 C 
BRANCH  26  27
ATOM     27  C   UNL     1       0.348   3.140  19.115  0.00  0.00    +0.000 C 
BRANCH  27  28
ATOM     28  N   UNL     1       0.359   1.835  18.465  0.00  0.00    +0.000 NA
ATOM     29  H   UNL     1      -0.572   1.584  18.145  0.00  0.00    +0.000 HD
ATOM     30  H   UNL     1       0.627   1.122  19.146  0.00  0.00    +0.000 HD
ENDBRANCH  27  28
ENDBRANCH  26  27
ENDBRANCH  25  26
ENDBRANCH  24  25
ENDBRANCH  10  24
TORSDOF 7
ENDMDL
MODEL 7
REMARK VINA RESULT:      -7.3      2.023      5.088
REMARK  Name = 
REMARK  10 active torsions:
REMARK  status: ('A' for Active; 'I' for Inactive)
REMARK    1  A    between atoms: C_1  and  N_2
REMARK    2  A    between atoms: N_2  and  C_3
REMARK    3  A    between atoms: C_6  and  C_7
REMARK    4  A    between atoms: N_16  and  C_17
REMARK    5  A    between atoms: C_17  and  C_18
REMARK    6  A    between atoms: C_18  and  C_19
REMARK    7  A    between atoms: C_19  and  C_20
REMARK    8  A    between atoms: C_20  and  N_21
REMARK    9  A    between atoms: C_22  and  C_23
REMARK   10  A    between atoms: C_22  and  C_24
REMARK                            x       y       z     vdW  Elec       q    Type
REMARK                         _______ _______ _______ _____ _____    ______ ____
ROOT
ATOM      1  C   UNL     1       3.266   5.788  19.698  0.00  0.00    +0.000 C 
ATOM      2  C   UNL     1       2.324   4.587  19.775  0.00  0.00    +0.000 A 
ATOM      3  C   UNL     1       1.794   4.106  20.977  0.00  0.00    +0.000 A 
ATOM      4  C   UNL     1       0.977   2.973  20.982  0.00  0.00    +0.000 A 
ATOM      5  C   UNL     1       0.682   2.323  19.783  0.00  0.00    +0.000 A 
ATOM      6  C   UNL     1       1.221   2.793  18.585  0.00  0.00    +0.000 A 
ATOM      7  C   UNL     1       2.065   3.910  18.572  0.00  0.00    +0.000 A 
ATOM      8  N   UNL     1       2.638   4.342  17.372  0.00  0.00    +0.000 NA
ATOM      9  C   UNL     1       3.737   5.063  17.405  0.00  0.00    +0.000 C 
ATOM     10  N   UNL     1       4.010   5.640  16.193  0.00  0.00    +0.000 N 
ATOM     11  C   UNL     1       4.461   5.362  18.758  0.00  0.00    +0.000 C 
ATOM     12  C   UNL     1       5.149   4.063  19.278  0.00  0.00    +0.000 C 
ATOM     13  C   UNL     1       5.590   6.410  18.828  0.00  0.00    +0.000 C 
ATOM     14  H   UNL     1       3.207   5.520  15.579  0.00  0.00    +0.000 HD
ENDROOT
BRANCH   1  18
ATOM     15  C   UNL     1       1.298   9.627  18.803  0.00  0.00    +0.000 A 
ATOM     16  C   UNL     1       1.141   8.985  20.030  0.00  0.00    +0.000 A 
ATOM     17  C   UNL     1       1.763   7.752  20.300  0.00  0.00    +0.000 A 
ATOM     18  C   UNL     1       2.521   7.093  19.333  0.00  0.00    +0.000 A 
ATOM     19  C   UNL     1       2.554   7.692  18.058  0.00  0.00    +0.000 A 
ATOM     20  C   UNL     1       1.959   8.927  17.791  0.00  0.00    +0.000 A 
BRANCH  15  22
ATOM     21  C   UNL     1       0.369  11.701  19.634  0.00  0.00    +0.000 C 
ATOM     22  N   UNL     1       0.740  10.874  18.496  0.00  0.00    +0.000 N 
ATOM     23  H   UNL     1       1.319  11.379  17.829  0.00  0.00    +0.000 HD
ENDBRANCH  15  22
ENDBRANCH   1  18
BRANCH  10  24
ATOM     24  C   UNL     1       5.230   5.945  15.505  0.00  0.00    +0.000 C 
BRANCH  24  25
ATOM     25  C   UNL     1       5.849   4.734  14.816  0.00  0.00    +0.000 C 
BRANCH  25  26
ATOM     26  C   UNL     1       7.089   4.137  15.498  0.00  0.00    +0.000 C 
BRANCH  26  27
ATOM     27  C   UNL     1       7.666   4.923  16.678  0.00  0.00    +0.000 C 
BRANCH  27  28
ATOM     28  N   UNL     1       8.208   4.055  17.715  0.00  0.00    +0.000 NA
ATOM     29  H   UNL     1       7.804   4.278  18.620  0.00  0.00    +0.000 HD
ATOM     30  H   UNL     1       9.213   4.223  17.804  0.00  0.00    +0.000 HD
ENDBRANCH  27  28
ENDBRANCH  26  27
ENDBRANCH  25  26
ENDBRANCH  24  25
ENDBRANCH  10  24
TORSDOF 7
ENDMDL
MODEL 8
REMARK VINA RESULT:      -7.2      2.029      5.121
REMARK  Name = 
REMARK  10 active torsions:
REMARK  status: ('A' for Active; 'I' for Inactive)
REMARK    1  A    between atoms: C_1  and  N_2
REMARK    2  A    between atoms: N_2  and  C_3
REMARK    3  A    between atoms: C_6  and  C_7
REMARK    4  A    between atoms: N_16  and  C_17
REMARK    5  A    between atoms: C_17  and  C_18
REMARK    6  A    between atoms: C_18  and  C_19
REMARK    7  A    between atoms: C_19  and  C_20
REMARK    8  A    between atoms: C_20  and  N_21
REMARK    9  A    between atoms: C_22  and  C_23
REMARK   10  A    between atoms: C_22  and  C_24
REMARK                            x       y       z     vdW  Elec       q    Type
REMARK                         _______ _______ _______ _____ _____    ______ ____
ROOT
ATOM      1  C   UNL     1       3.322   5.767  19.719  0.00  0.00    +0.000 C 
ATOM      2  C   UNL     1       2.343   4.595  19.766  0.00  0.00    +0.000 A 
ATOM      3  C   UNL     1       1.805   4.094  20.956  0.00  0.00    +0.000 A 
ATOM      4  C   UNL     1       0.954   2.988  20.931  0.00  0.00    +0.000 A 
ATOM      5  C   UNL     1       0.630   2.384  19.716  0.00  0.00    +0.000 A 
ATOM      6  C   UNL     1       1.177   2.874  18.529  0.00  0.00    +0.000 A 
ATOM      7  C   UNL     1       2.056   3.964  18.544  0.00  0.00    +0.000 A 
ATOM      8  N   UNL     1       2.635   4.414  17.354  0.00  0.00    +0.000 NA
ATOM      9  C   UNL     1       3.756   5.099  17.402  0.00  0.00    +0.000 C 
ATOM     10  N   UNL     1       4.041   5.704  16.206  0.00  0.00    +0.000 N 
ATOM     11  C   UNL     1       4.498   5.333  18.758  0.00  0.00    +0.000 C 
ATOM     12  C   UNL     1       5.148   3.997  19.233  0.00  0.00    +0.000 C 
ATOM     13  C   UNL     1       5.660   6.343  18.853  0.00  0.00    +0.000 C 
ATOM     14  H   UNL     1       3.231   5.629  15.595  0.00  0.00    +0.000 HD
ENDROOT
BRANCH   1  18
ATOM     15  C   UNL     1       1.173   9.463  18.651  0.00  0.00    +0.000 A 
ATOM     16  C   UNL     1       2.104   8.876  17.796  0.00  0.00    +0.000 A 
ATOM     17  C   UNL     1       2.795   7.703  18.152  0.00  0.00    +0.000 A 
ATOM     18  C   UNL     1       2.617   7.106  19.400  0.00  0.00    +0.000 A 
ATOM     19  C   UNL     1       1.776   7.790  20.300  0.00  0.00    +0.000 A 
ATOM     20  C   UNL     1       1.069   8.941  19.943  0.00  0.00    +0.000 A 
BRANCH  15  22
ATOM     21  C   UNL     1      -1.011  10.497  18.540  0.00  0.00    +0.000 C 
ATOM     22  N   UNL     1       0.426  10.602  18.331  0.00  0.00    +0.000 N 
ATOM     23  H   UNL     1       0.816  11.432  18.771  0.00  0.00    +0.000 HD
ENDBRANCH  15  22
ENDBRANCH   1  18
BRANCH  10  24
ATOM     24  C   UNL     1       5.266   5.992  15.520  0.00  0.00    +0.000 C 
BRANCH  24  25
ATOM     25  C   UNL     1       5.866   4.773  14.827  0.00  0.00    +0.000 C 
BRANCH  25  26
ATOM     26  C   UNL     1       6.970   4.039  15.602  0.00  0.00    +0.000 C 
BRANCH  26  27
ATOM     27  C   UNL     1       7.701   4.844  16.680  0.00  0.00    +0.000 C 
BRANCH  27  28
ATOM     28  N   UNL     1       8.263   3.998  17.725  0.00  0.00    +0.000 NA
ATOM     29  H   UNL     1       8.772   3.217  17.321  0.00  0.00    +0.000 HD
ATOM     30  H   UNL     1       7.502   3.588  18.271  0.00  0.00    +0.000 HD
ENDBRANCH  27  28
ENDBRANCH  26  27
ENDBRANCH  25  26
ENDBRANCH  24  25
ENDBRANCH  10  24
TORSDOF 7
ENDMDL
MODEL 9
REMARK VINA RESULT:      -7.0      3.004      6.232
REMARK  Name = 
REMARK  10 active torsions:
REMARK  status: ('A' for Active; 'I' for Inactive)
REMARK    1  A    between atoms: C_1  and  N_2
REMARK    2  A    between atoms: N_2  and  C_3
REMARK    3  A    between atoms: C_6  and  C_7
REMARK    4  A    between atoms: N_16  and  C_17
REMARK    5  A    between atoms: C_17  and  C_18
REMARK    6  A    between atoms: C_18  and  C_19
REMARK    7  A    between atoms: C_19  and  C_20
REMARK    8  A    between atoms: C_20  and  N_21
REMARK    9  A    between atoms: C_22  and  C_23
REMARK   10  A    between atoms: C_22  and  C_24
REMARK                            x       y       z     vdW  Elec       q    Type
REMARK                         _______ _______ _______ _____ _____    ______ ____
ROOT
ATOM      1  C   UNL     1       5.734   5.004  17.797  0.00  0.00    +0.000 C 
ATOM      2  C   UNL     1       5.849   4.563  16.338  0.00  0.00    +0.000 A 
ATOM      3  C   UNL     1       5.343   3.349  15.863  0.00  0.00    +0.000 A 
ATOM      4  C   UNL     1       5.526   2.986  14.527  0.00  0.00    +0.000 A 
ATOM      5  C   UNL     1       6.208   3.840  13.660  0.00  0.00    +0.000 A 
ATOM      6  C   UNL     1       6.726   5.045  14.135  0.00  0.00    +0.000 A 
ATOM      7  C   UNL     1       6.575   5.406  15.480  0.00  0.00    +0.000 A 
ATOM      8  N   UNL     1       7.140   6.593  15.955  0.00  0.00    +0.000 NA
ATOM      9  C   UNL     1       7.394   6.717  17.239  0.00  0.00    +0.000 C 
ATOM     10  N   UNL     1       7.672   8.013  17.585  0.00  0.00    +0.000 N 
ATOM     11  C   UNL     1       7.163   5.525  18.223  0.00  0.00    +0.000 C 
ATOM     12  C   UNL     1       8.252   4.435  17.985  0.00  0.00    +0.000 C 
ATOM     13  C   UNL     1       7.213   5.745  19.749  0.00  0.00    +0.000 C 
ATOM     14  H   UNL     1       7.453   8.621  16.800  0.00  0.00    +0.000 HD
ENDROOT
BRANCH   1  18
ATOM     15  C   UNL     1       2.462   7.832  18.638  0.00  0.00    +0.000 A 
ATOM     16  C   UNL     1       2.703   6.720  19.443  0.00  0.00    +0.000 A 
ATOM     17  C   UNL     1       3.742   5.816  19.158  0.00  0.00    +0.000 A 
ATOM     18  C   UNL     1       4.543   5.963  18.026  0.00  0.00    +0.000 A 
ATOM     19  C   UNL     1       4.196   7.015  17.154  0.00  0.00    +0.000 A 
ATOM     20  C   UNL     1       3.181   7.929  17.445  0.00  0.00    +0.000 A 
BRANCH  15  22
ATOM     21  C   UNL     1       1.641  10.072  18.237  0.00  0.00    +0.000 C 
ATOM     22  N   UNL     1       1.473   8.788  18.899  0.00  0.00    +0.000 N 
ATOM     23  H   UNL     1       0.543   8.401  18.752  0.00  0.00    +0.000 HD
ENDBRANCH  15  22
ENDBRANCH   1  18
BRANCH  10  24
ATOM     24  C   UNL     1       8.552   8.602  18.552  0.00  0.00    +0.000 C 
BRANCH  24  25
ATOM     25  C   UNL     1       8.641  10.120  18.436  0.00  0.00    +0.000 C 
BRANCH  25  26
ATOM     26  C   UNL     1       9.986  10.744  18.840  0.00  0.00    +0.000 C 
BRANCH  26  27
ATOM     27  C   UNL     1      10.566  11.794  17.889  0.00  0.00    +0.000 C 
BRANCH  27  28
ATOM     28  N   UNL     1      11.987  11.595  17.637  0.00  0.00    +0.000 NA
ATOM     29  H   UNL     1      12.166  11.493  16.642  0.00  0.00    +0.000 HD
ATOM     30  H   UNL     1      12.286  10.719  18.070  0.00  0.00    +0.000 HD
ENDBRANCH  27  28
ENDBRANCH  26  27
ENDBRANCH  25  26
ENDBRANCH  24  25
ENDBRANCH  10  24
TORSDOF 7
ENDMDL
