MODEL 1
REMARK VINA RESULT:      -6.3      0.000      0.000
REMARK  Name = 
REMARK  8 active torsions:
REMARK  status: ('A' for Active; 'I' for Inactive)
REMARK    1  A    between atoms: C_1  and  O_2
REMARK    2  A    between atoms: O_2  and  C_3
REMARK    3  A    between atoms: C_14  and  O_15
REMARK    4  A    between atoms: O_15  and  C_16
REMARK    5  A    between atoms: C_17  and  O_18
REMARK    6  A    between atoms: O_18  and  C_19
REMARK    7  A    between atoms: C_20  and  O_21
REMARK    8  A    between atoms: O_21  and  C_22
REMARK                            x       y       z     vdW  Elec       q    Type
REMARK                         _______ _______ _______ _____ _____    ______ ____
ROOT
ATOM      1  C   UNL     1       4.995   5.155  16.229  0.00  0.00    +0.000 A 
ATOM      2  C   UNL     1       5.353   6.408  16.732  0.00  0.00    +0.000 A 
ATOM      3  C   UNL     1       4.543   7.036  17.676  0.00  0.00    +0.000 A 
ATOM      4  C   UNL     1       3.353   6.445  18.111  0.00  0.00    +0.000 A 
ATOM      5  C   UNL     1       3.063   5.126  17.704  0.00  0.00    +0.000 A 
ATOM      6  C   UNL     1       3.875   4.506  16.746  0.00  0.00    +0.000 A 
ATOM      7  C   UNL     1       1.896   4.387  18.321  0.00  0.00    +0.000 C 
ATOM      8  O   UNL     1       2.057   4.097  19.717  0.00  0.00    +0.000 OA
ATOM      9  C   UNL     1       2.620   5.135  20.528  0.00  0.00    +0.000 C 
ATOM     10  C   UNL     1       2.084   6.520  20.224  0.00  0.00    +0.000 A 
ATOM     11  C   UNL     1       1.245   7.153  21.140  0.00  0.00    +0.000 A 
ATOM     12  C   UNL     1       0.687   8.406  20.869  0.00  0.00    +0.000 A 
ATOM     13  C   UNL     1       0.953   9.046  19.635  0.00  0.00    +0.000 A 
ATOM     14  C   UNL     1       1.827   8.423  18.701  0.00  0.00    +0.000 A 
ATOM     15  C   UNL     1       2.419   7.163  19.010  0.00  0.00    +0.000 A 
ENDROOT
BRANCH   1  17
ATOM     16  C   UNL     1       7.052   4.761  15.113  0.00  0.00    +0.000 C 
ATOM     17  O   UNL     1       5.664   4.474  15.248  0.00  0.00    +0.000 OA
ENDBRANCH   1  17
BRANCH  12  18
ATOM     18  O   UNL     1      -0.079   8.839  21.923  0.00  0.00    +0.000 OA
ATOM     19  C   UNL     1       0.494   9.668  22.922  0.00  0.00    +0.000 C 
ENDBRANCH  12  18
BRANCH  13  20
ATOM     20  O   UNL     1       0.306  10.243  19.457  0.00  0.00    +0.000 OA
ATOM     21  C   UNL     1      -0.977  10.321  18.866  0.00  0.00    +0.000 C 
ENDBRANCH  13  20
BRANCH  14  22
ATOM     22  O   UNL     1       2.151   9.144  17.575  0.00  0.00    +0.000 OA
ATOM     23  C   UNL     1       2.571  10.499  17.702  0.00  0.00    +0.000 C 
ENDBRANCH  14  22
TORSDOF 4
ENDMDL
MODEL 2
REMARK VINA RESULT:      -6.3      2.779      5.402
REMARK  Name = 
REMARK  8 active torsions:
REMARK  status: ('A' for Active; 'I' for Inactive)
REMARK    1  A    between atoms: C_1  and  O_2
REMARK    2  A    between atoms: O_2  and  C_3
REMARK    3  A    between atoms: C_14  and  O_15
REMARK    4  A    between atoms: O_15  and  C_16
REMARK    5  A    between atoms: C_17  and  O_18
REMARK    6  A    between atoms: O_18  and  C_19
REMARK    7  A    between atoms: C_20  and  O_21
REMARK    8  A    between atoms: O_21  and  C_22
REMARK                            x       y       z     vdW  Elec       q    Type
REMARK                         _______ _______ _______ _____ _____    ______ ____
ROOT
ATOM      1  C   UNL     1       2.289   7.780  18.861  0.00  0.00    +0.000 A 
ATOM      2  C   UNL     1       1.944   8.640  17.816  0.00  0.00    +0.000 A 
ATOM      3  C   UNL     1       0.973   9.620  18.014  0.00  0.00    +0.000 A 
ATOM      4  C   UNL     1       0.310   9.739  19.238  0.00  0.00    +0.000 A 
ATOM      5  C   UNL     1       0.753   8.961  20.329  0.00  0.00    +0.000 A 
ATOM      6  C   UNL     1       1.721   7.970  20.119  0.00  0.00    +0.000 A 
ATOM      7  C   UNL     1       0.197   9.217  21.712  0.00  0.00    +0.000 C 
ATOM      8  O   UNL     1       0.561  10.491  22.263  0.00  0.00    +0.000 OA
ATOM      9  C   UNL     1       0.519  11.612  21.371  0.00  0.00    +0.000 C 
ATOM     10  C   UNL     1      -0.692  11.634  20.459  0.00  0.00    +0.000 A 
ATOM     11  C   UNL     1      -1.691  12.585  20.660  0.00  0.00    +0.000 A 
ATOM     12  C   UNL     1      -2.847  12.601  19.873  0.00  0.00    +0.000 A 
ATOM     13  C   UNL     1      -3.030  11.625  18.865  0.00  0.00    +0.000 A 
ATOM     14  C   UNL     1      -2.007  10.664  18.633  0.00  0.00    +0.000 A 
ATOM     15  C   UNL     1      -0.816  10.686  19.417  0.00  0.00    +0.000 A 
ENDROOT
BRANCH   1  17
ATOM     16  C   UNL     1       2.945   5.641  19.654  0.00  0.00    +0.000 C 
ATOM     17  O   UNL     1       3.168   6.735  18.769  0.00  0.00    +0.000 OA
ENDBRANCH   1  17
BRANCH  12  18
ATOM     18  O   UNL     1      -3.671  13.638  20.236  0.00  0.00    +0.000 OA
ATOM     19  C   UNL     1      -4.590  13.471  21.304  0.00  0.00    +0.000 C 
ENDBRANCH  12  18
BRANCH  13  20
ATOM     20  O   UNL     1      -4.226  11.705  18.198  0.00  0.00    +0.000 OA
ATOM     21  C   UNL     1      -5.352  10.941  18.584  0.00  0.00    +0.000 C 
ENDBRANCH  13  20
BRANCH  14  22
ATOM     22  O   UNL     1      -2.178   9.820  17.560  0.00  0.00    +0.000 OA
ATOM     23  C   UNL     1      -2.317  10.362  16.250  0.00  0.00    +0.000 C 
ENDBRANCH  14  22
TORSDOF 4
ENDMDL
MODEL 3
REMARK VINA RESULT:      -6.2      1.768      6.912
REMARK  Name = 
REMARK  8 active torsions:
REMARK  status: ('A' for Active; 'I' for Inactive)
REMARK    1  A    between atoms: C_1  and  O_2
REMARK    2  A    between atoms: O_2  and  C_3
REMARK    3  A    between atoms: C_14  and  O_15
REMARK    4  A    between atoms: O_15  and  C_16
REMARK    5  A    between atoms: C_17  and  O_18
REMARK    6  A    between atoms: O_18  and  C_19
REMARK    7  A    between atoms: C_20  and  O_21
REMARK    8  A    between atoms: O_21  and  C_22
REMARK                            x       y       z     vdW  Elec       q    Type
REMARK                         _______ _______ _______ _____ _____    ______ ____
ROOT
ATOM      1  C   UNL     1       2.209   7.380  19.889  0.00  0.00    +0.000 A 
ATOM      2  C   UNL     1       2.427   8.010  18.662  0.00  0.00    +0.000 A 
ATOM      3  C   UNL     1       3.130   7.349  17.657  0.00  0.00    +0.000 A 
ATOM      4  C   UNL     1       3.653   6.070  17.866  0.00  0.00    +0.000 A 
ATOM      5  C   UNL     1       3.318   5.385  19.053  0.00  0.00    +0.000 A 
ATOM      6  C   UNL     1       2.621   6.060  20.064  0.00  0.00    +0.000 A 
ATOM      7  C   UNL     1       3.693   3.929  19.215  0.00  0.00    +0.000 C 
ATOM      8  O   UNL     1       3.008   3.044  18.317  0.00  0.00    +0.000 OA
ATOM      9  C   UNL     1       2.860   3.490  16.963  0.00  0.00    +0.000 C 
ATOM     10  C   UNL     1       4.099   4.147  16.388  0.00  0.00    +0.000 A 
ATOM     11  C   UNL     1       4.837   3.488  15.404  0.00  0.00    +0.000 A 
ATOM     12  C   UNL     1       6.015   4.038  14.891  0.00  0.00    +0.000 A 
ATOM     13  C   UNL     1       6.492   5.275  15.384  0.00  0.00    +0.000 A 
ATOM     14  C   UNL     1       5.737   5.970  16.369  0.00  0.00    +0.000 A 
ATOM     15  C   UNL     1       4.516   5.414  16.855  0.00  0.00    +0.000 A 
ENDROOT
BRANCH   1  17
ATOM     16  C   UNL     1       0.814   9.109  20.725  0.00  0.00    +0.000 C 
ATOM     17  O   UNL     1       1.602   7.950  20.976  0.00  0.00    +0.000 OA
ENDBRANCH   1  17
BRANCH  12  18
ATOM     18  O   UNL     1       6.550   3.227  13.920  0.00  0.00    +0.000 OA
ATOM     19  C   UNL     1       5.980   3.207  12.621  0.00  0.00    +0.000 C 
ENDBRANCH  12  18
BRANCH  13  20
ATOM     20  O   UNL     1       7.686   5.687  14.847  0.00  0.00    +0.000 OA
ATOM     21  C   UNL     1       7.890   5.774  13.450  0.00  0.00    +0.000 C 
ENDBRANCH  13  20
BRANCH  14  22
ATOM     22  O   UNL     1       6.178   7.224  16.722  0.00  0.00    +0.000 OA
ATOM     23  C   UNL     1       7.320   7.360  17.562  0.00  0.00    +0.000 C 
ENDBRANCH  14  22
TORSDOF 4
ENDMDL
MODEL 4
REMARK VINA RESULT:      -6.1      6.905      8.942
REMARK  Name = 
REMARK  8 active torsions:
REMARK  status: ('A' for Active; 'I' for Inactive)
REMARK    1  A    between atoms: C_1  and  O_2
REMARK    2  A    between atoms: O_2  and  C_3
REMARK    3  A    between atoms: C_14  and  O_15
REMARK    4  A    between atoms: O_15  and  C_16
REMARK    5  A    between atoms: C_17  and  O_18
REMARK    6  A    between atoms: O_18  and  C_19
REMARK    7  A    between atoms: C_20  and  O_21
REMARK    8  A    between atoms: O_21  and  C_22
REMARK                            x       y       z     vdW  Elec       q    Type
REMARK                         _______ _______ _______ _____ _____    ______ ____
ROOT
ATOM      1  C   UNL     1      -3.054  10.435  15.749  0.00  0.00    +0.000 A 
ATOM      2  C   UNL     1      -2.405  10.072  16.931  0.00  0.00    +0.000 A 
ATOM      3  C   UNL     1      -2.861  10.562  18.153  0.00  0.00    +0.000 A 
ATOM      4  C   UNL     1      -3.946  11.441  18.217  0.00  0.00    +0.000 A 
ATOM      5  C   UNL     1      -4.680  11.698  17.039  0.00  0.00    +0.000 A 
ATOM      6  C   UNL     1      -4.209  11.213  15.813  0.00  0.00    +0.000 A 
ATOM      7  C   UNL     1      -5.976  12.474  17.115  0.00  0.00    +0.000 C 
ATOM      8  O   UNL     1      -7.027  11.794  17.818  0.00  0.00    +0.000 OA
ATOM      9  C   UNL     1      -6.656  11.107  19.019  0.00  0.00    +0.000 C 
ATOM     10  C   UNL     1      -5.693  11.876  19.902  0.00  0.00    +0.000 A 
ATOM     11  C   UNL     1      -6.138  12.402  21.114  0.00  0.00    +0.000 A 
ATOM     12  C   UNL     1      -5.294  13.164  21.928  0.00  0.00    +0.000 A 
ATOM     13  C   UNL     1      -3.967  13.432  21.516  0.00  0.00    +0.000 A 
ATOM     14  C   UNL     1      -3.492  12.880  20.293  0.00  0.00    +0.000 A 
ATOM     15  C   UNL     1      -4.354  12.072  19.493  0.00  0.00    +0.000 A 
ENDROOT
BRANCH   1  17
ATOM     16  C   UNL     1      -3.687   9.960  13.511  0.00  0.00    +0.000 C 
ATOM     17  O   UNL     1      -2.657  10.083  14.486  0.00  0.00    +0.000 OA
ENDBRANCH   1  17
BRANCH  12  18
ATOM     18  O   UNL     1      -5.940  13.551  23.076  0.00  0.00    +0.000 OA
ATOM     19  C   UNL     1      -6.840  12.661  23.716  0.00  0.00    +0.000 C 
ENDBRANCH  12  18
BRANCH  13  20
ATOM     20  O   UNL     1      -3.252  14.236  22.366  0.00  0.00    +0.000 OA
ATOM     21  C   UNL     1      -3.193  15.640  22.199  0.00  0.00    +0.000 C 
ENDBRANCH  13  20
BRANCH  14  22
ATOM     22  O   UNL     1      -2.161  13.065  20.002  0.00  0.00    +0.000 OA
ATOM     23  C   UNL     1      -1.174  12.317  20.706  0.00  0.00    +0.000 C 
ENDBRANCH  14  22
TORSDOF 4
ENDMDL
MODEL 5
REMARK VINA RESULT:      -6.0      1.727      6.203
REMARK  Name = 
REMARK  8 active torsions:
REMARK  status: ('A' for Active; 'I' for Inactive)
REMARK    1  A    between atoms: C_1  and  O_2
REMARK    2  A    between atoms: O_2  and  C_3
REMARK    3  A    between atoms: C_14  and  O_15
REMARK    4  A    between atoms: O_15  and  C_16
REMARK    5  A    between atoms: C_17  and  O_18
REMARK    6  A    between atoms: O_18  and  C_19
REMARK    7  A    between atoms: C_20  and  O_21
REMARK    8  A    between atoms: O_21  and  C_22
REMARK                            x       y       z     vdW  Elec       q    Type
REMARK                         _______ _______ _______ _____ _____    ______ ____
ROOT
ATOM      1  C   UNL     1       1.291   9.663  19.171  0.00  0.00    +0.000 A 
ATOM      2  C   UNL     1       1.456   9.292  17.835  0.00  0.00    +0.000 A 
ATOM      3  C   UNL     1       1.939   8.024  17.519  0.00  0.00    +0.000 A 
ATOM      4  C   UNL     1       2.295   7.119  18.523  0.00  0.00    +0.000 A 
ATOM      5  C   UNL     1       2.003   7.444  19.865  0.00  0.00    +0.000 A 
ATOM      6  C   UNL     1       1.528   8.725  20.175  0.00  0.00    +0.000 A 
ATOM      7  C   UNL     1       2.183   6.405  20.948  0.00  0.00    +0.000 C 
ATOM      8  O   UNL     1       1.281   5.293  20.850  0.00  0.00    +0.000 OA
ATOM      9  C   UNL     1       1.046   4.771  19.536  0.00  0.00    +0.000 C 
ATOM     10  C   UNL     1       2.292   4.658  18.681  0.00  0.00    +0.000 A 
ATOM     11  C   UNL     1       2.812   3.399  18.381  0.00  0.00    +0.000 A 
ATOM     12  C   UNL     1       3.990   3.258  17.642  0.00  0.00    +0.000 A 
ATOM     13  C   UNL     1       4.692   4.405  17.202  0.00  0.00    +0.000 A 
ATOM     14  C   UNL     1       4.159   5.695  17.480  0.00  0.00    +0.000 A 
ATOM     15  C   UNL     1       2.935   5.822  18.201  0.00  0.00    +0.000 A 
ENDROOT
BRANCH   1  17
ATOM     16  C   UNL     1       0.610  11.016  20.997  0.00  0.00    +0.000 C 
ATOM     17  O   UNL     1       0.899  10.899  19.608  0.00  0.00    +0.000 OA
ENDBRANCH   1  17
BRANCH  12  18
ATOM     18  O   UNL     1       4.291   1.932  17.450  0.00  0.00    +0.000 OA
ATOM     19  C   UNL     1       3.928   0.974  18.432  0.00  0.00    +0.000 C 
ENDBRANCH  12  18
BRANCH  13  20
ATOM     20  O   UNL     1       5.863   4.144  16.538  0.00  0.00    +0.000 OA
ATOM     21  C   UNL     1       5.913   4.009  15.130  0.00  0.00    +0.000 C 
ENDBRANCH  13  20
BRANCH  14  22
ATOM     22  O   UNL     1       4.812   6.771  16.923  0.00  0.00    +0.000 OA
ATOM     23  C   UNL     1       6.102   7.139  17.403  0.00  0.00    +0.000 C 
ENDBRANCH  14  22
TORSDOF 4
ENDMDL
MODEL 6
REMARK VINA RESULT:      -6.0      1.508      6.922
REMARK  Name = 
REMARK  8 active torsions:
REMARK  status: ('A' for Active; 'I' for Inactive)
REMARK    1  A    between atoms: C_1  and  O_2
REMARK    2  A    between atoms: O_2  and  C_3
REMARK    3  A    between atoms: C_14  and  O_15
REMARK    4  A    between atoms: O_15  and  C_16
REMARK    5  A    between atoms: C_17  and  O_18
REMARK    6  A    between atoms: O_18  and  C_19
REMARK    7  A    between atoms: C_20  and  O_21
REMARK    8  A    between atoms: O_21  and  C_22
REMARK                            x       y       z     vdW  Elec       q    Type
REMARK                         _______ _______ _______ _____ _____    ______ ____
ROOT
ATOM      1  C   UNL     1      -0.160   9.937  21.975  0.00  0.00    +0.000 A 
ATOM      2  C   UNL     1       0.921   9.220  22.494  0.00  0.00    +0.000 A 
ATOM      3  C   UNL     1       1.724   8.462  21.645  0.00  0.00    +0.000 A 
ATOM      4  C   UNL     1       1.449   8.380  20.277  0.00  0.00    +0.000 A 
ATOM      5  C   UNL     1       0.443   9.209  19.736  0.00  0.00    +0.000 A 
ATOM      6  C   UNL     1      -0.368   9.959  20.597  0.00  0.00    +0.000 A 
ATOM      7  C   UNL     1       0.265   9.296  18.237  0.00  0.00    +0.000 C 
ATOM      8  O   UNL     1       1.367   9.908  17.550  0.00  0.00    +0.000 OA
ATOM      9  C   UNL     1       2.681   9.540  17.989  0.00  0.00    +0.000 C 
ATOM     10  C   UNL     1       2.849   8.060  18.272  0.00  0.00    +0.000 A 
ATOM     11  C   UNL     1       3.622   7.277  17.416  0.00  0.00    +0.000 A 
ATOM     12  C   UNL     1       3.754   5.899  17.614  0.00  0.00    +0.000 A 
ATOM     13  C   UNL     1       3.078   5.270  18.687  0.00  0.00    +0.000 A 
ATOM     14  C   UNL     1       2.306   6.062  19.582  0.00  0.00    +0.000 A 
ATOM     15  C   UNL     1       2.213   7.472  19.389  0.00  0.00    +0.000 A 
ENDROOT
BRANCH   1  17
ATOM     16  C   UNL     1      -1.036  12.068  22.546  0.00  0.00    +0.000 C 
ATOM     17  O   UNL     1      -1.063  10.654  22.713  0.00  0.00    +0.000 OA
ENDBRANCH   1  17
BRANCH  12  18
ATOM     18  O   UNL     1       4.580   5.345  16.666  0.00  0.00    +0.000 OA
ATOM     19  C   UNL     1       5.316   6.186  15.792  0.00  0.00    +0.000 C 
ENDBRANCH  12  18
BRANCH  13  20
ATOM     20  O   UNL     1       3.235   3.909  18.747  0.00  0.00    +0.000 OA
ATOM     21  C   UNL     1       4.322   3.309  19.426  0.00  0.00    +0.000 C 
ENDBRANCH  13  20
BRANCH  14  22
ATOM     22  O   UNL     1       1.774   5.422  20.678  0.00  0.00    +0.000 OA
ATOM     23  C   UNL     1       0.871   4.336  20.491  0.00  0.00    +0.000 C 
ENDBRANCH  14  22
TORSDOF 4
ENDMDL
MODEL 7
REMARK VINA RESULT:      -6.0      2.212      4.660
REMARK  Name = 
REMARK  8 active torsions:
REMARK  status: ('A' for Active; 'I' for Inactive)
REMARK    1  A    between atoms: C_1  and  O_2
REMARK    2  A    between atoms: O_2  and  C_3
REMARK    3  A    between atoms: C_14  and  O_15
REMARK    4  A    between atoms: O_15  and  C_16
REMARK    5  A    between atoms: C_17  and  O_18
REMARK    6  A    between atoms: O_18  and  C_19
REMARK    7  A    between atoms: C_20  and  O_21
REMARK    8  A    between atoms: O_21  and  C_22
REMARK                            x       y       z     vdW  Elec       q    Type
REMARK                         _______ _______ _______ _____ _____    ______ ____
ROOT
ATOM      1  C   UNL     1       6.523   4.402  14.362  0.00  0.00    +0.000 A 
ATOM      2  C   UNL     1       5.311   3.722  14.500  0.00  0.00    +0.000 A 
ATOM      3  C   UNL     1       4.486   3.985  15.591  0.00  0.00    +0.000 A 
ATOM      4  C   UNL     1       4.866   4.902  16.576  0.00  0.00    +0.000 A 
ATOM      5  C   UNL     1       6.022   5.683  16.366  0.00  0.00    +0.000 A 
ATOM      6  C   UNL     1       6.852   5.404  15.273  0.00  0.00    +0.000 A 
ATOM      7  C   UNL     1       6.342   6.823  17.306  0.00  0.00    +0.000 C 
ATOM      8  O   UNL     1       5.402   7.907  17.255  0.00  0.00    +0.000 OA
ATOM      9  C   UNL     1       4.016   7.551  17.175  0.00  0.00    +0.000 C 
ATOM     10  C   UNL     1       3.617   6.404  18.082  0.00  0.00    +0.000 A 
ATOM     11  C   UNL     1       2.819   6.650  19.198  0.00  0.00    +0.000 A 
ATOM     12  C   UNL     1       2.477   5.626  20.087  0.00  0.00    +0.000 A 
ATOM     13  C   UNL     1       2.960   4.314  19.873  0.00  0.00    +0.000 A 
ATOM     14  C   UNL     1       3.754   4.043  18.724  0.00  0.00    +0.000 A 
ATOM     15  C   UNL     1       4.062   5.090  17.806  0.00  0.00    +0.000 A 
ENDROOT
BRANCH   1  17
ATOM     16  C   UNL     1       6.944   3.764  12.115  0.00  0.00    +0.000 C 
ATOM     17  O   UNL     1       7.450   4.178  13.379  0.00  0.00    +0.000 OA
ENDBRANCH   1  17
BRANCH  12  18
ATOM     18  O   UNL     1       1.667   6.100  21.090  0.00  0.00    +0.000 OA
ATOM     19  C   UNL     1       1.238   7.452  21.074  0.00  0.00    +0.000 C 
ENDBRANCH  12  18
BRANCH  13  20
ATOM     20  O   UNL     1       2.607   3.407  20.840  0.00  0.00    +0.000 OA
ATOM     21  C   UNL     1       1.299   2.874  20.927  0.00  0.00    +0.000 C 
ENDBRANCH  13  20
BRANCH  14  22
ATOM     22  O   UNL     1       4.092   2.728  18.497  0.00  0.00    +0.000 OA
ATOM     23  C   UNL     1       3.113   1.827  17.988  0.00  0.00    +0.000 C 
ENDBRANCH  14  22
TORSDOF 4
ENDMDL
MODEL 8
REMARK VINA RESULT:      -5.8      8.437     10.301
REMARK  Name = 
REMARK  8 active torsions:
REMARK  status: ('A' for Active; 'I' for Inactive)
REMARK    1  A    between atoms: C_1  and  O_2
REMARK    2  A    between atoms: O_2  and  C_3
REMARK    3  A    between atoms: C_14  and  O_15
REMARK    4  A    between atoms: O_15  and  C_16
REMARK    5  A    between atoms: C_17  and  O_18
REMARK    6  A    between atoms: O_18  and  C_19
REMARK    7  A    between atoms: C_20  and  O_21
REMARK    8  A    between atoms: O_21  and  C_22
REMARK                            x       y       z     vdW  Elec       q    Type
REMARK                         _______ _______ _______ _____ _____    ______ ____
ROOT
ATOM      1  C   UNL     1       8.769   9.718  18.553  0.00  0.00    +0.000 A 
ATOM      2  C   UNL     1       8.249  10.593  17.596  0.00  0.00    +0.000 A 
ATOM      3  C   UNL     1       8.587  11.944  17.631  0.00  0.00    +0.000 A 
ATOM      4  C   UNL     1       9.418  12.451  18.634  0.00  0.00    +0.000 A 
ATOM      5  C   UNL     1      10.047  11.547  19.516  0.00  0.00    +0.000 A 
ATOM      6  C   UNL     1       9.693  10.192  19.481  0.00  0.00    +0.000 A 
ATOM      7  C   UNL     1      11.110  12.043  20.471  0.00  0.00    +0.000 C 
ATOM      8  O   UNL     1      12.307  12.504  19.829  0.00  0.00    +0.000 OA
ATOM      9  C   UNL     1      12.137  13.290  18.643  0.00  0.00    +0.000 C 
ATOM     10  C   UNL     1      11.027  14.318  18.733  0.00  0.00    +0.000 A 
ATOM     11  C   UNL     1      11.344  15.674  18.803  0.00  0.00    +0.000 A 
ATOM     12  C   UNL     1      10.349  16.646  18.943  0.00  0.00    +0.000 A 
ATOM     13  C   UNL     1       8.991  16.260  19.038  0.00  0.00    +0.000 A 
ATOM     14  C   UNL     1       8.651  14.881  18.942  0.00  0.00    +0.000 A 
ATOM     15  C   UNL     1       9.675  13.905  18.761  0.00  0.00    +0.000 A 
ENDROOT
BRANCH   1  17
ATOM     16  C   UNL     1       7.718   7.819  17.592  0.00  0.00    +0.000 C 
ATOM     17  O   UNL     1       8.454   8.391  18.668  0.00  0.00    +0.000 OA
ENDBRANCH   1  17
BRANCH  12  18
ATOM     18  O   UNL     1      10.896  17.906  18.963  0.00  0.00    +0.000 OA
ATOM     19  C   UNL     1      11.056  18.628  17.752  0.00  0.00    +0.000 C 
ENDBRANCH  12  18
BRANCH  13  20
ATOM     20  O   UNL     1       8.111  17.294  19.230  0.00  0.00    +0.000 OA
ATOM     21  C   UNL     1       7.710  17.707  20.522  0.00  0.00    +0.000 C 
ENDBRANCH  13  20
BRANCH  14  22
ATOM     22  O   UNL     1       7.311  14.572  18.914  0.00  0.00    +0.000 OA
ATOM     23  C   UNL     1       6.553  14.825  17.735  0.00  0.00    +0.000 C 
ENDBRANCH  14  22
TORSDOF 4
ENDMDL
MODEL 9
REMARK VINA RESULT:      -5.8      6.383      8.573
REMARK  Name = 
REMARK  8 active torsions:
REMARK  status: ('A' for Active; 'I' for Inactive)
REMARK    1  A    between atoms: C_1  and  O_2
REMARK    2  A    between atoms: O_2  and  C_3
REMARK    3  A    between atoms: C_14  and  O_15
REMARK    4  A    between atoms: O_15  and  C_16
REMARK    5  A    between atoms: C_17  and  O_18
REMARK    6  A    between atoms: O_18  and  C_19
REMARK    7  A    between atoms: C_20  and  O_21
REMARK    8  A    between atoms: O_21  and  C_22
REMARK                            x       y       z     vdW  Elec       q    Type
REMARK                         _______ _______ _______ _____ _____    ______ ____
ROOT
ATOM      1  C   UNL     1      -3.101  10.348  15.395  0.00  0.00    +0.000 A 
ATOM      2  C   UNL     1      -4.146  11.266  15.522  0.00  0.00    +0.000 A 
ATOM      3  C   UNL     1      -4.436  11.822  16.766  0.00  0.00    +0.000 A 
ATOM      4  C   UNL     1      -3.715  11.452  17.905  0.00  0.00    +0.000 A 
ATOM      5  C   UNL     1      -2.579  10.630  17.752  0.00  0.00    +0.000 A 
ATOM      6  C   UNL     1      -2.301  10.066  16.500  0.00  0.00    +0.000 A 
ATOM      7  C   UNL     1      -1.662  10.385  18.930  0.00  0.00    +0.000 C 
ATOM      8  O   UNL     1      -0.960  11.553  19.379  0.00  0.00    +0.000 OA
ATOM      9  C   UNL     1      -1.710  12.772  19.433  0.00  0.00    +0.000 C 
ATOM     10  C   UNL     1      -3.110  12.616  19.994  0.00  0.00    +0.000 A 
ATOM     11  C   UNL     1      -3.412  13.136  21.251  0.00  0.00    +0.000 A 
ATOM     12  C   UNL     1      -4.676  12.962  21.824  0.00  0.00    +0.000 A 
ATOM     13  C   UNL     1      -5.670  12.228  21.134  0.00  0.00    +0.000 A 
ATOM     14  C   UNL     1      -5.383  11.714  19.839  0.00  0.00    +0.000 A 
ATOM     15  C   UNL     1      -4.101  11.933  19.253  0.00  0.00    +0.000 A 
ENDROOT
BRANCH   1  17
ATOM     16  C   UNL     1      -3.660   9.828  13.148  0.00  0.00    +0.000 C 
ATOM     17  O   UNL     1      -2.769   9.679  14.247  0.00  0.00    +0.000 OA
ENDBRANCH   1  17
BRANCH  12  18
ATOM     18  O   UNL     1      -4.747  13.580  23.048  0.00  0.00    +0.000 OA
ATOM     19  C   UNL     1      -4.675  12.808  24.236  0.00  0.00    +0.000 C 
ENDBRANCH  12  18
BRANCH  13  20
ATOM     20  O   UNL     1      -6.849  12.075  21.818  0.00  0.00    +0.000 OA
ATOM     21  C   UNL     1      -7.912  13.001  21.698  0.00  0.00    +0.000 C 
ENDBRANCH  13  20
BRANCH  14  22
ATOM     22  O   UNL     1      -6.422  11.119  19.162  0.00  0.00    +0.000 OA
ATOM     23  C   UNL     1      -6.754   9.760  19.432  0.00  0.00    +0.000 C 
ENDBRANCH  14  22
TORSDOF 4
ENDMDL
