MODEL 1
REMARK VINA RESULT:      -8.0      0.000      0.000
REMARK  Name = 
REMARK  14 active torsions:
REMARK  status: ('A' for Active; 'I' for Inactive)
REMARK    1  A    between atoms: N_1  and  C_2
REMARK    2  A    between atoms: C_2  and  N_4
REMARK    3  A    between atoms: N_4  and  N_5
REMARK    4  A    between atoms: C_6  and  C_7
REMARK    5  A    between atoms: C_12  and  O_13
REMARK    6  A    between atoms: O_13  and  C_14
REMARK    7  A    between atoms: C_14  and  C_15
REMARK    8  A    between atoms: C_19  and  C_20
REMARK    9  A    between atoms: C_20  and  O_21
REMARK   10  A    between atoms: O_21  and  C_22
REMARK   11  A    between atoms: C_27  and  C_28
REMARK   12  A    between atoms: N_29  and  N_30
REMARK   13  A    between atoms: N_30  and  C_31
REMARK   14  A    between atoms: C_31  and  N_32
REMARK                            x       y       z     vdW  Elec       q    Type
REMARK                         _______ _______ _______ _____ _____    ______ ____
ROOT
ATOM      1  C   UNL     1       0.945   9.841  18.968  0.00  0.00    +0.000 A 
ATOM      2  C   UNL     1       1.697   9.755  17.807  0.00  0.00    +0.000 A 
ATOM      3  C   UNL     1       2.519   8.646  17.631  0.00  0.00    +0.000 A 
ATOM      4  C   UNL     1       2.561   7.655  18.609  0.00  0.00    +0.000 A 
ATOM      5  C   UNL     1       1.757   7.789  19.736  0.00  0.00    +0.000 A 
ATOM      6  N   UNL     1       0.958   8.865  19.918  0.00  0.00    +0.000 NA
ENDROOT
BRANCH   1   7
ATOM      7  C   UNL     1      -0.041  10.962  19.202  0.00  0.00    +0.000 C 
BRANCH   7   8
ATOM      8  O   UNL     1      -1.407  10.542  19.392  0.00  0.00    +0.000 OA
BRANCH   8  14
ATOM      9  C   UNL     1      -3.383  11.417  18.315  0.00  0.00    +0.000 A 
ATOM     10  C   UNL     1      -4.171  11.561  17.155  0.00  0.00    +0.000 A 
ATOM     11  C   UNL     1      -3.809  10.959  15.953  0.00  0.00    +0.000 A 
ATOM     12  C   UNL     1      -2.670  10.179  15.903  0.00  0.00    +0.000 A 
ATOM     13  C   UNL     1      -1.883  10.019  17.047  0.00  0.00    +0.000 A 
ATOM     14  C   UNL     1      -2.197  10.656  18.265  0.00  0.00    +0.000 A 
BRANCH   9  16
ATOM     15  N   UNL     1      -3.029  13.010  20.089  0.00  0.00    +0.000 NA
ATOM     16  C   UNL     1      -3.840  12.169  19.517  0.00  0.00    +0.000 C 
BRANCH  15  17
ATOM     17  N   UNL     1      -3.397  13.500  21.305  0.00  0.00    +0.000 N 
ATOM     18  H   UNL     1      -4.028  14.295  21.347  0.00  0.00    +0.000 HD
BRANCH  17  19
ATOM     19  C   UNL     1      -3.318  12.700  22.419  0.00  0.00    +0.000 C 
ATOM     20  S   UNL     1      -1.912  11.965  22.895  0.00  0.00    +0.000 S 
BRANCH  19  21
ATOM     21  N   UNL     1      -4.474  12.542  23.110  0.00  0.00    +0.000 N 
ATOM     22  H   UNL     1      -4.589  12.919  24.039  0.00  0.00    +0.000 HD
ATOM     23  H   UNL     1      -5.257  12.130  22.617  0.00  0.00    +0.000 HD
ENDBRANCH  19  21
ENDBRANCH  17  19
ENDBRANCH  15  17
ENDBRANCH   9  16
ENDBRANCH   8  14
ENDBRANCH   7   8
ENDBRANCH   1   7
BRANCH   5  24
ATOM     24  C   UNL     1       1.679   6.680  20.761  0.00  0.00    +0.000 C 
BRANCH  24  25
ATOM     25  O   UNL     1       2.781   5.767  20.637  0.00  0.00    +0.000 OA
BRANCH  25  26
ATOM     26  C   UNL     1       2.449   4.557  20.068  0.00  0.00    +0.000 A 
ATOM     27  C   UNL     1       1.159   4.011  20.173  0.00  0.00    +0.000 A 
ATOM     28  C   UNL     1       0.847   2.781  19.593  0.00  0.00    +0.000 A 
ATOM     29  C   UNL     1       1.809   2.090  18.869  0.00  0.00    +0.000 A 
ATOM     30  C   UNL     1       3.083   2.633  18.720  0.00  0.00    +0.000 A 
ATOM     31  C   UNL     1       3.414   3.863  19.316  0.00  0.00    +0.000 A 
BRANCH  31  32
ATOM     32  C   UNL     1       4.803   4.364  19.158  0.00  0.00    +0.000 C 
ATOM     33  N   UNL     1       5.660   3.730  18.413  0.00  0.00    +0.000 NA
BRANCH  33  34
ATOM     34  N   UNL     1       6.920   4.258  18.375  0.00  0.00    +0.000 N 
ATOM     35  H   UNL     1       7.632   3.936  19.024  0.00  0.00    +0.000 HD
BRANCH  34  36
ATOM     36  C   UNL     1       7.282   5.167  17.417  0.00  0.00    +0.000 C 
ATOM     37  S   UNL     1       7.324   6.801  17.708  0.00  0.00    +0.000 S 
BRANCH  36  38
ATOM     38  N   UNL     1       7.603   4.653  16.206  0.00  0.00    +0.000 N 
ATOM     39  H   UNL     1       8.586   4.610  15.977  0.00  0.00    +0.000 HD
ATOM     40  H   UNL     1       6.900   4.512  15.495  0.00  0.00    +0.000 HD
ENDBRANCH  36  38
ENDBRANCH  34  36
ENDBRANCH  33  34
ENDBRANCH  31  32
ENDBRANCH  25  26
ENDBRANCH  24  25
ENDBRANCH   5  24
TORSDOF 14
ENDMDL
MODEL 2
REMARK VINA RESULT:      -7.8      1.402     10.304
REMARK  Name = 
REMARK  14 active torsions:
REMARK  status: ('A' for Active; 'I' for Inactive)
REMARK    1  A    between atoms: N_1  and  C_2
REMARK    2  A    between atoms: C_2  and  N_4
REMARK    3  A    between atoms: N_4  and  N_5
REMARK    4  A    between atoms: C_6  and  C_7
REMARK    5  A    between atoms: C_12  and  O_13
REMARK    6  A    between atoms: O_13  and  C_14
REMARK    7  A    between atoms: C_14  and  C_15
REMARK    8  A    between atoms: C_19  and  C_20
REMARK    9  A    between atoms: C_20  and  O_21
REMARK   10  A    between atoms: O_21  and  C_22
REMARK   11  A    between atoms: C_27  and  C_28
REMARK   12  A    between atoms: N_29  and  N_30
REMARK   13  A    between atoms: N_30  and  C_31
REMARK   14  A    between atoms: C_31  and  N_32
REMARK                            x       y       z     vdW  Elec       q    Type
REMARK                         _______ _______ _______ _____ _____    ______ ____
ROOT
ATOM      1  C   UNL     1       1.872   7.840  19.828  0.00  0.00    +0.000 A 
ATOM      2  C   UNL     1       1.400   7.682  21.122  0.00  0.00    +0.000 A 
ATOM      3  C   UNL     1       0.549   8.655  21.639  0.00  0.00    +0.000 A 
ATOM      4  C   UNL     1       0.187   9.745  20.851  0.00  0.00    +0.000 A 
ATOM      5  C   UNL     1       0.672   9.825  19.550  0.00  0.00    +0.000 A 
ATOM      6  N   UNL     1       1.504   8.888  19.040  0.00  0.00    +0.000 NA
ENDROOT
BRANCH   1   7
ATOM      7  C   UNL     1       2.728   6.791  19.155  0.00  0.00    +0.000 C 
BRANCH   7   8
ATOM      8  O   UNL     1       2.020   5.914  18.256  0.00  0.00    +0.000 OA
BRANCH   8  14
ATOM      9  C   UNL     1       2.597   3.579  18.040  0.00  0.00    +0.000 A 
ATOM     10  C   UNL     1       2.507   2.257  18.520  0.00  0.00    +0.000 A 
ATOM     11  C   UNL     1       1.742   1.942  19.640  0.00  0.00    +0.000 A 
ATOM     12  C   UNL     1       1.030   2.941  20.276  0.00  0.00    +0.000 A 
ATOM     13  C   UNL     1       1.102   4.255  19.806  0.00  0.00    +0.000 A 
ATOM     14  C   UNL     1       1.906   4.613  18.706  0.00  0.00    +0.000 A 
BRANCH   9  16
ATOM     15  N   UNL     1       4.737   4.156  17.092  0.00  0.00    +0.000 NA
ATOM     16  C   UNL     1       3.505   3.796  16.879  0.00  0.00    +0.000 C 
BRANCH  15  17
ATOM     17  N   UNL     1       5.461   4.564  16.013  0.00  0.00    +0.000 N 
ATOM     18  H   UNL     1       4.977   4.978  15.221  0.00  0.00    +0.000 HD
BRANCH  17  19
ATOM     19  C   UNL     1       6.798   4.846  16.152  0.00  0.00    +0.000 C 
ATOM     20  S   UNL     1       7.593   4.720  17.600  0.00  0.00    +0.000 S 
BRANCH  19  21
ATOM     21  N   UNL     1       7.432   5.245  15.022  0.00  0.00    +0.000 N 
ATOM     22  H   UNL     1       6.940   5.338  14.145  0.00  0.00    +0.000 HD
ATOM     23  H   UNL     1       8.392   5.555  15.113  0.00  0.00    +0.000 HD
ENDBRANCH  19  21
ENDBRANCH  17  19
ENDBRANCH  15  17
ENDBRANCH   9  16
ENDBRANCH   8  14
ENDBRANCH   7   8
ENDBRANCH   1   7
BRANCH   5  24
ATOM     24  C   UNL     1       0.207  10.925  18.623  0.00  0.00    +0.000 C 
BRANCH  24  25
ATOM     25  O   UNL     1      -0.947  11.604  19.144  0.00  0.00    +0.000 OA
BRANCH  25  26
ATOM     26  C   UNL     1      -2.097  11.402  18.414  0.00  0.00    +0.000 A 
ATOM     27  C   UNL     1      -2.104  10.657  17.223  0.00  0.00    +0.000 A 
ATOM     28  C   UNL     1      -3.281  10.469  16.497  0.00  0.00    +0.000 A 
ATOM     29  C   UNL     1      -4.477  10.993  16.965  0.00  0.00    +0.000 A 
ATOM     30  C   UNL     1      -4.498  11.701  18.165  0.00  0.00    +0.000 A 
ATOM     31  C   UNL     1      -3.316  11.913  18.896  0.00  0.00    +0.000 A 
BRANCH  31  32
ATOM     32  C   UNL     1      -3.399  12.714  20.142  0.00  0.00    +0.000 C 
ATOM     33  N   UNL     1      -4.289  12.444  21.051  0.00  0.00    +0.000 NA
BRANCH  33  34
ATOM     34  N   UNL     1      -4.301  13.275  22.137  0.00  0.00    +0.000 N 
ATOM     35  H   UNL     1      -4.939  14.065  22.172  0.00  0.00    +0.000 HD
BRANCH  34  36
ATOM     36  C   UNL     1      -3.524  13.023  23.235  0.00  0.00    +0.000 C 
ATOM     37  S   UNL     1      -2.075  13.789  23.497  0.00  0.00    +0.000 S 
BRANCH  36  38
ATOM     38  N   UNL     1      -4.005  12.099  24.101  0.00  0.00    +0.000 N 
ATOM     39  H   UNL     1      -3.397  11.831  24.863  0.00  0.00    +0.000 HD
ATOM     40  H   UNL     1      -4.833  11.563  23.887  0.00  0.00    +0.000 HD
ENDBRANCH  36  38
ENDBRANCH  34  36
ENDBRANCH  33  34
ENDBRANCH  31  32
ENDBRANCH  25  26
ENDBRANCH  24  25
ENDBRANCH   5  24
TORSDOF 14
ENDMDL
MODEL 3
REMARK VINA RESULT:      -7.7      1.280      1.593
REMARK  Name = 
REMARK  14 active torsions:
REMARK  status: ('A' for Active; 'I' for Inactive)
REMARK    1  A    between atoms: N_1  and  C_2
REMARK    2  A    between atoms: C_2  and  N_4
REMARK    3  A    between atoms: N_4  and  N_5
REMARK    4  A    between atoms: C_6  and  C_7
REMARK    5  A    between atoms: C_12  and  O_13
REMARK    6  A    between atoms: O_13  and  C_14
REMARK    7  A    between atoms: C_14  and  C_15
REMARK    8  A    between atoms: C_19  and  C_20
REMARK    9  A    between atoms: C_20  and  O_21
REMARK   10  A    between atoms: O_21  and  C_22
REMARK   11  A    between atoms: C_27  and  C_28
REMARK   12  A    between atoms: N_29  and  N_30
REMARK   13  A    between atoms: N_30  and  C_31
REMARK   14  A    between atoms: C_31  and  N_32
REMARK                            x       y       z     vdW  Elec       q    Type
REMARK                         _______ _______ _______ _____ _____    ______ ____
ROOT
ATOM      1  C   UNL     1       1.063   9.398  19.307  0.00  0.00    +0.000 A 
ATOM      2  C   UNL     1       0.653   9.243  20.622  0.00  0.00    +0.000 A 
ATOM      3  C   UNL     1       1.080   8.117  21.320  0.00  0.00    +0.000 A 
ATOM      4  C   UNL     1       1.906   7.187  20.693  0.00  0.00    +0.000 A 
ATOM      5  C   UNL     1       2.305   7.420  19.381  0.00  0.00    +0.000 A 
ATOM      6  N   UNL     1       1.892   8.509  18.693  0.00  0.00    +0.000 NA
ENDROOT
BRANCH   1   7
ATOM      7  C   UNL     1       0.723  10.631  18.503  0.00  0.00    +0.000 C 
BRANCH   7   8
ATOM      8  O   UNL     1      -0.427  11.364  18.968  0.00  0.00    +0.000 OA
BRANCH   8  14
ATOM      9  C   UNL     1      -2.810  11.650  18.706  0.00  0.00    +0.000 A 
ATOM     10  C   UNL     1      -3.986  11.423  17.961  0.00  0.00    +0.000 A 
ATOM     11  C   UNL     1      -3.969  10.672  16.790  0.00  0.00    +0.000 A 
ATOM     12  C   UNL     1      -2.781  10.111  16.363  0.00  0.00    +0.000 A 
ATOM     13  C   UNL     1      -1.609  10.319  17.095  0.00  0.00    +0.000 A 
ATOM     14  C   UNL     1      -1.585  11.115  18.258  0.00  0.00    +0.000 A 
BRANCH   9  16
ATOM     15  N   UNL     1      -4.137  12.831  20.336  0.00  0.00    +0.000 NA
ATOM     16  C   UNL     1      -2.948  12.529  19.900  0.00  0.00    +0.000 C 
BRANCH  15  17
ATOM     17  N   UNL     1      -4.224  13.812  21.277  0.00  0.00    +0.000 N 
ATOM     18  H   UNL     1      -4.857  14.591  21.121  0.00  0.00    +0.000 HD
BRANCH  17  19
ATOM     19  C   UNL     1      -3.850  13.554  22.573  0.00  0.00    +0.000 C 
ATOM     20  S   UNL     1      -2.675  14.422  23.354  0.00  0.00    +0.000 S 
BRANCH  19  21
ATOM     21  N   UNL     1      -4.502  12.532  23.179  0.00  0.00    +0.000 N 
ATOM     22  H   UNL     1      -4.716  12.553  24.165  0.00  0.00    +0.000 HD
ATOM     23  H   UNL     1      -4.867  11.797  22.585  0.00  0.00    +0.000 HD
ENDBRANCH  19  21
ENDBRANCH  17  19
ENDBRANCH  15  17
ENDBRANCH   9  16
ENDBRANCH   8  14
ENDBRANCH   7   8
ENDBRANCH   1   7
BRANCH   5  24
ATOM     24  C   UNL     1       3.298   6.502  18.705  0.00  0.00    +0.000 C 
BRANCH  24  25
ATOM     25  O   UNL     1       2.670   5.691  17.701  0.00  0.00    +0.000 OA
BRANCH  25  26
ATOM     26  C   UNL     1       2.423   4.394  18.095  0.00  0.00    +0.000 A 
ATOM     27  C   UNL     1       1.244   4.030  18.767  0.00  0.00    +0.000 A 
ATOM     28  C   UNL     1       1.017   2.711  19.162  0.00  0.00    +0.000 A 
ATOM     29  C   UNL     1       1.948   1.727  18.863  0.00  0.00    +0.000 A 
ATOM     30  C   UNL     1       3.105   2.061  18.163  0.00  0.00    +0.000 A 
ATOM     31  C   UNL     1       3.354   3.389  17.776  0.00  0.00    +0.000 A 
BRANCH  31  32
ATOM     32  C   UNL     1       4.627   3.686  17.073  0.00  0.00    +0.000 C 
ATOM     33  N   UNL     1       5.707   3.967  17.739  0.00  0.00    +0.000 NA
BRANCH  33  34
ATOM     34  N   UNL     1       6.809   4.265  16.987  0.00  0.00    +0.000 N 
ATOM     35  H   UNL     1       7.452   3.531  16.703  0.00  0.00    +0.000 HD
BRANCH  34  36
ATOM     36  C   UNL     1       7.035   5.535  16.527  0.00  0.00    +0.000 C 
ATOM     37  S   UNL     1       7.091   6.852  17.535  0.00  0.00    +0.000 S 
BRANCH  36  38
ATOM     38  N   UNL     1       7.206   5.657  15.189  0.00  0.00    +0.000 N 
ATOM     39  H   UNL     1       6.443   6.070  14.670  0.00  0.00    +0.000 HD
ATOM     40  H   UNL     1       7.959   5.183  14.712  0.00  0.00    +0.000 HD
ENDBRANCH  36  38
ENDBRANCH  34  36
ENDBRANCH  33  34
ENDBRANCH  31  32
ENDBRANCH  25  26
ENDBRANCH  24  25
ENDBRANCH   5  24
TORSDOF 14
ENDMDL
MODEL 4
REMARK VINA RESULT:      -7.7      2.060      9.776
REMARK  Name = 
REMARK  14 active torsions:
REMARK  status: ('A' for Active; 'I' for Inactive)
REMARK    1  A    between atoms: N_1  and  C_2
REMARK    2  A    between atoms: C_2  and  N_4
REMARK    3  A    between atoms: N_4  and  N_5
REMARK    4  A    between atoms: C_6  and  C_7
REMARK    5  A    between atoms: C_12  and  O_13
REMARK    6  A    between atoms: O_13  and  C_14
REMARK    7  A    between atoms: C_14  and  C_15
REMARK    8  A    between atoms: C_19  and  C_20
REMARK    9  A    between atoms: C_20  and  O_21
REMARK   10  A    between atoms: O_21  and  C_22
REMARK   11  A    between atoms: C_27  and  C_28
REMARK   12  A    between atoms: N_29  and  N_30
REMARK   13  A    between atoms: N_30  and  C_31
REMARK   14  A    between atoms: C_31  and  N_32
REMARK                            x       y       z     vdW  Elec       q    Type
REMARK                         _______ _______ _______ _____ _____    ______ ____
ROOT
ATOM      1  C   UNL     1       2.111   7.827  19.223  0.00  0.00    +0.000 A 
ATOM      2  C   UNL     1       2.200   8.500  18.013  0.00  0.00    +0.000 A 
ATOM      3  C   UNL     1       1.643   9.772  17.921  0.00  0.00    +0.000 A 
ATOM      4  C   UNL     1       1.025  10.338  19.034  0.00  0.00    +0.000 A 
ATOM      5  C   UNL     1       0.999   9.621  20.225  0.00  0.00    +0.000 A 
ATOM      6  N   UNL     1       1.533   8.382  20.324  0.00  0.00    +0.000 NA
ENDROOT
BRANCH   1   7
ATOM      7  C   UNL     1       2.764   6.482  19.441  0.00  0.00    +0.000 C 
BRANCH   7   8
ATOM      8  O   UNL     1       2.932   5.687  18.250  0.00  0.00    +0.000 OA
BRANCH   8  14
ATOM      9  C   UNL     1       3.536   3.350  18.216  0.00  0.00    +0.000 A 
ATOM     10  C   UNL     1       3.174   1.999  18.400  0.00  0.00    +0.000 A 
ATOM     11  C   UNL     1       1.877   1.636  18.750  0.00  0.00    +0.000 A 
ATOM     12  C   UNL     1       0.915   2.618  18.891  0.00  0.00    +0.000 A 
ATOM     13  C   UNL     1       1.255   3.960  18.703  0.00  0.00    +0.000 A 
ATOM     14  C   UNL     1       2.571   4.362  18.397  0.00  0.00    +0.000 A 
BRANCH   9  16
ATOM     15  N   UNL     1       5.771   3.966  18.877  0.00  0.00    +0.000 NA
ATOM     16  C   UNL     1       4.971   3.610  17.915  0.00  0.00    +0.000 C 
BRANCH  15  17
ATOM     17  N   UNL     1       7.007   4.414  18.525  0.00  0.00    +0.000 N 
ATOM     18  H   UNL     1       7.630   3.795  18.015  0.00  0.00    +0.000 HD
BRANCH  17  19
ATOM     19  C   UNL     1       7.248   5.763  18.434  0.00  0.00    +0.000 C 
ATOM     20  S   UNL     1       6.488   6.734  17.327  0.00  0.00    +0.000 S 
BRANCH  19  21
ATOM     21  N   UNL     1       8.158   6.257  19.309  0.00  0.00    +0.000 N 
ATOM     22  H   UNL     1       9.048   5.802  19.457  0.00  0.00    +0.000 HD
ATOM     23  H   UNL     1       7.962   7.159  19.724  0.00  0.00    +0.000 HD
ENDBRANCH  19  21
ENDBRANCH  17  19
ENDBRANCH  15  17
ENDBRANCH   9  16
ENDBRANCH   8  14
ENDBRANCH   7   8
ENDBRANCH   1   7
BRANCH   5  24
ATOM     24  C   UNL     1       0.448  10.247  21.487  0.00  0.00    +0.000 C 
BRANCH  24  25
ATOM     25  O   UNL     1       0.170  11.645  21.306  0.00  0.00    +0.000 OA
BRANCH  25  26
ATOM     26  C   UNL     1      -1.068  12.037  21.765  0.00  0.00    +0.000 A 
ATOM     27  C   UNL     1      -1.344  12.188  23.134  0.00  0.00    +0.000 A 
ATOM     28  C   UNL     1      -2.607  12.581  23.577  0.00  0.00    +0.000 A 
ATOM     29  C   UNL     1      -3.608  12.864  22.658  0.00  0.00    +0.000 A 
ATOM     30  C   UNL     1      -3.343  12.759  21.294  0.00  0.00    +0.000 A 
ATOM     31  C   UNL     1      -2.079  12.345  20.837  0.00  0.00    +0.000 A 
BRANCH  31  32
ATOM     32  C   UNL     1      -1.877  12.210  19.373  0.00  0.00    +0.000 C 
ATOM     33  N   UNL     1      -2.891  12.125  18.564  0.00  0.00    +0.000 NA
BRANCH  33  34
ATOM     34  N   UNL     1      -2.585  11.960  17.241  0.00  0.00    +0.000 N 
ATOM     35  H   UNL     1      -2.125  12.702  16.724  0.00  0.00    +0.000 HD
BRANCH  34  36
ATOM     36  C   UNL     1      -2.811  10.770  16.602  0.00  0.00    +0.000 C 
ATOM     37  S   UNL     1      -3.363   9.422  17.397  0.00  0.00    +0.000 S 
BRANCH  36  38
ATOM     38  N   UNL     1      -2.551  10.754  15.273  0.00  0.00    +0.000 N 
ATOM     39  H   UNL     1      -1.598  10.559  14.999  0.00  0.00    +0.000 HD
ATOM     40  H   UNL     1      -3.217  11.114  14.605  0.00  0.00    +0.000 HD
ENDBRANCH  36  38
ENDBRANCH  34  36
ENDBRANCH  33  34
ENDBRANCH  31  32
ENDBRANCH  25  26
ENDBRANCH  24  25
ENDBRANCH   5  24
TORSDOF 14
ENDMDL
MODEL 5
REMARK VINA RESULT:      -7.7      2.760      4.693
REMARK  Name = 
REMARK  14 active torsions:
REMARK  status: ('A' for Active; 'I' for Inactive)
REMARK    1  A    between atoms: N_1  and  C_2
REMARK    2  A    between atoms: C_2  and  N_4
REMARK    3  A    between atoms: N_4  and  N_5
REMARK    4  A    between atoms: C_6  and  C_7
REMARK    5  A    between atoms: C_12  and  O_13
REMARK    6  A    between atoms: O_13  and  C_14
REMARK    7  A    between atoms: C_14  and  C_15
REMARK    8  A    between atoms: C_19  and  C_20
REMARK    9  A    between atoms: C_20  and  O_21
REMARK   10  A    between atoms: O_21  and  C_22
REMARK   11  A    between atoms: C_27  and  C_28
REMARK   12  A    between atoms: N_29  and  N_30
REMARK   13  A    between atoms: N_30  and  C_31
REMARK   14  A    between atoms: C_31  and  N_32
REMARK                            x       y       z     vdW  Elec       q    Type
REMARK                         _______ _______ _______ _____ _____    ______ ____
ROOT
ATOM      1  C   UNL     1       0.836   9.702  19.888  0.00  0.00    +0.000 A 
ATOM      2  C   UNL     1       0.863  10.468  18.733  0.00  0.00    +0.000 A 
ATOM      3  C   UNL     1       1.603  10.004  17.649  0.00  0.00    +0.000 A 
ATOM      4  C   UNL     1       2.282   8.791  17.744  0.00  0.00    +0.000 A 
ATOM      5  C   UNL     1       2.187   8.058  18.923  0.00  0.00    +0.000 A 
ATOM      6  N   UNL     1       1.475   8.503  19.983  0.00  0.00    +0.000 NA
ENDROOT
BRANCH   1   7
ATOM      7  C   UNL     1      -0.012  10.082  21.080  0.00  0.00    +0.000 C 
BRANCH   7   8
ATOM      8  O   UNL     1      -0.164  11.500  21.292  0.00  0.00    +0.000 OA
BRANCH   8  14
ATOM      9  C   UNL     1      -2.385  12.349  20.877  0.00  0.00    +0.000 A 
ATOM     10  C   UNL     1      -3.663  12.696  21.362  0.00  0.00    +0.000 A 
ATOM     11  C   UNL     1      -3.981  12.587  22.713  0.00  0.00    +0.000 A 
ATOM     12  C   UNL     1      -3.015  12.158  23.602  0.00  0.00    +0.000 A 
ATOM     13  C   UNL     1      -1.741  11.819  23.138  0.00  0.00    +0.000 A 
ATOM     14  C   UNL     1      -1.405  11.872  21.771  0.00  0.00    +0.000 A 
BRANCH   9  16
ATOM     15  N   UNL     1      -3.032  11.835  18.612  0.00  0.00    +0.000 NA
ATOM     16  C   UNL     1      -2.195  12.442  19.403  0.00  0.00    +0.000 C 
BRANCH  15  17
ATOM     17  N   UNL     1      -2.694  11.752  17.295  0.00  0.00    +0.000 N 
ATOM     18  H   UNL     1      -1.714  11.792  17.033  0.00  0.00    +0.000 HD
BRANCH  17  19
ATOM     19  C   UNL     1      -3.562  11.177  16.400  0.00  0.00    +0.000 C 
ATOM     20  S   UNL     1      -3.048  10.379  15.042  0.00  0.00    +0.000 S 
BRANCH  19  21
ATOM     21  N   UNL     1      -4.879  11.307  16.694  0.00  0.00    +0.000 N 
ATOM     22  H   UNL     1      -5.492  10.506  16.739  0.00  0.00    +0.000 HD
ATOM     23  H   UNL     1      -5.203  12.223  16.976  0.00  0.00    +0.000 HD
ENDBRANCH  19  21
ENDBRANCH  17  19
ENDBRANCH  15  17
ENDBRANCH   9  16
ENDBRANCH   8  14
ENDBRANCH   7   8
ENDBRANCH   1   7
BRANCH   5  24
ATOM     24  C   UNL     1       2.807   6.683  19.025  0.00  0.00    +0.000 C 
BRANCH  24  25
ATOM     25  O   UNL     1       3.335   6.246  17.762  0.00  0.00    +0.000 OA
BRANCH  25  26
ATOM     26  C   UNL     1       4.703   6.090  17.747  0.00  0.00    +0.000 A 
ATOM     27  C   UNL     1       5.570   7.135  17.385  0.00  0.00    +0.000 A 
ATOM     28  C   UNL     1       6.953   6.953  17.372  0.00  0.00    +0.000 A 
ATOM     29  C   UNL     1       7.497   5.734  17.752  0.00  0.00    +0.000 A 
ATOM     30  C   UNL     1       6.656   4.698  18.152  0.00  0.00    +0.000 A 
ATOM     31  C   UNL     1       5.260   4.864  18.152  0.00  0.00    +0.000 A 
BRANCH  31  32
ATOM     32  C   UNL     1       4.420   3.705  18.546  0.00  0.00    +0.000 C 
ATOM     33  N   UNL     1       4.633   3.074  19.662  0.00  0.00    +0.000 NA
BRANCH  33  34
ATOM     34  N   UNL     1       3.826   1.997  19.900  0.00  0.00    +0.000 N 
ATOM     35  H   UNL     1       4.230   1.087  20.105  0.00  0.00    +0.000 HD
BRANCH  34  36
ATOM     36  C   UNL     1       2.465   2.126  19.954  0.00  0.00    +0.000 C 
ATOM     37  S   UNL     1       1.691   2.905  21.198  0.00  0.00    +0.000 S 
BRANCH  36  38
ATOM     38  N   UNL     1       1.777   1.571  18.927  0.00  0.00    +0.000 N 
ATOM     39  H   UNL     1       0.784   1.440  19.064  0.00  0.00    +0.000 HD
ATOM     40  H   UNL     1       2.255   1.130  18.155  0.00  0.00    +0.000 HD
ENDBRANCH  36  38
ENDBRANCH  34  36
ENDBRANCH  33  34
ENDBRANCH  31  32
ENDBRANCH  25  26
ENDBRANCH  24  25
ENDBRANCH   5  24
TORSDOF 14
ENDMDL
MODEL 6
REMARK VINA RESULT:      -7.7      2.566     10.245
REMARK  Name = 
REMARK  14 active torsions:
REMARK  status: ('A' for Active; 'I' for Inactive)
REMARK    1  A    between atoms: N_1  and  C_2
REMARK    2  A    between atoms: C_2  and  N_4
REMARK    3  A    between atoms: N_4  and  N_5
REMARK    4  A    between atoms: C_6  and  C_7
REMARK    5  A    between atoms: C_12  and  O_13
REMARK    6  A    between atoms: O_13  and  C_14
REMARK    7  A    between atoms: C_14  and  C_15
REMARK    8  A    between atoms: C_19  and  C_20
REMARK    9  A    between atoms: C_20  and  O_21
REMARK   10  A    between atoms: O_21  and  C_22
REMARK   11  A    between atoms: C_27  and  C_28
REMARK   12  A    between atoms: N_29  and  N_30
REMARK   13  A    between atoms: N_30  and  C_31
REMARK   14  A    between atoms: C_31  and  N_32
REMARK                            x       y       z     vdW  Elec       q    Type
REMARK                         _______ _______ _______ _____ _____    ______ ____
ROOT
ATOM      1  C   UNL     1       1.914   7.745  19.284  0.00  0.00    +0.000 A 
ATOM      2  C   UNL     1       1.890   7.472  20.643  0.00  0.00    +0.000 A 
ATOM      3  C   UNL     1       1.320   8.412  21.497  0.00  0.00    +0.000 A 
ATOM      4  C   UNL     1       0.786   9.587  20.973  0.00  0.00    +0.000 A 
ATOM      5  C   UNL     1       0.816   9.784  19.596  0.00  0.00    +0.000 A 
ATOM      6  N   UNL     1       1.372   8.879  18.759  0.00  0.00    +0.000 NA
ENDROOT
BRANCH   1   7
ATOM      7  C   UNL     1       2.430   6.745  18.276  0.00  0.00    +0.000 C 
BRANCH   7   8
ATOM      8  O   UNL     1       3.749   6.231  18.547  0.00  0.00    +0.000 OA
BRANCH   8  14
ATOM      9  C   UNL     1       4.496   4.271  17.353  0.00  0.00    +0.000 A 
ATOM     10  C   UNL     1       5.107   3.700  16.217  0.00  0.00    +0.000 A 
ATOM     11  C   UNL     1       5.608   4.492  15.188  0.00  0.00    +0.000 A 
ATOM     12  C   UNL     1       5.532   5.867  15.294  0.00  0.00    +0.000 A 
ATOM     13  C   UNL     1       4.937   6.448  16.417  0.00  0.00    +0.000 A 
ATOM     14  C   UNL     1       4.378   5.672  17.452  0.00  0.00    +0.000 A 
BRANCH   9  16
ATOM     15  N   UNL     1       2.952   2.537  18.003  0.00  0.00    +0.000 NA
ATOM     16  C   UNL     1       3.937   3.314  18.348  0.00  0.00    +0.000 C 
BRANCH  15  17
ATOM     17  N   UNL     1       2.325   1.850  18.996  0.00  0.00    +0.000 N 
ATOM     18  H   UNL     1       2.668   0.929  19.254  0.00  0.00    +0.000 HD
BRANCH  17  19
ATOM     19  C   UNL     1       1.574   2.523  19.928  0.00  0.00    +0.000 C 
ATOM     20  S   UNL     1       2.110   2.813  21.469  0.00  0.00    +0.000 S 
BRANCH  19  21
ATOM     21  N   UNL     1       0.352   2.936  19.509  0.00  0.00    +0.000 N 
ATOM     22  H   UNL     1      -0.217   3.554  20.069  0.00  0.00    +0.000 HD
ATOM     23  H   UNL     1       0.079   2.694  18.565  0.00  0.00    +0.000 HD
ENDBRANCH  19  21
ENDBRANCH  17  19
ENDBRANCH  15  17
ENDBRANCH   9  16
ENDBRANCH   8  14
ENDBRANCH   7   8
ENDBRANCH   1   7
BRANCH   5  24
ATOM     24  C   UNL     1       0.140  10.986  18.977  0.00  0.00    +0.000 C 
BRANCH  24  25
ATOM     25  O   UNL     1      -1.251  11.050  19.329  0.00  0.00    +0.000 OA
BRANCH  25  26
ATOM     26  C   UNL     1      -2.110  10.946  18.257  0.00  0.00    +0.000 A 
ATOM     27  C   UNL     1      -1.795  10.184  17.120  0.00  0.00    +0.000 A 
ATOM     28  C   UNL     1      -2.677  10.096  16.043  0.00  0.00    +0.000 A 
ATOM     29  C   UNL     1      -3.905  10.740  16.098  0.00  0.00    +0.000 A 
ATOM     30  C   UNL     1      -4.253  11.468  17.233  0.00  0.00    +0.000 A 
ATOM     31  C   UNL     1      -3.364  11.579  18.317  0.00  0.00    +0.000 A 
BRANCH  31  32
ATOM     32  C   UNL     1      -3.777  12.407  19.477  0.00  0.00    +0.000 C 
ATOM     33  N   UNL     1      -4.861  12.133  20.141  0.00  0.00    +0.000 NA
BRANCH  33  34
ATOM     34  N   UNL     1      -5.165  12.988  21.163  0.00  0.00    +0.000 N 
ATOM     35  H   UNL     1      -4.618  13.832  21.307  0.00  0.00    +0.000 HD
BRANCH  34  36
ATOM     36  C   UNL     1      -6.257  12.781  21.963  0.00  0.00    +0.000 C 
ATOM     37  S   UNL     1      -6.730  13.868  23.125  0.00  0.00    +0.000 S 
BRANCH  36  38
ATOM     38  N   UNL     1      -6.932  11.625  21.754  0.00  0.00    +0.000 N 
ATOM     39  H   UNL     1      -6.475  10.931  21.180  0.00  0.00    +0.000 HD
ATOM     40  H   UNL     1      -7.911  11.542  21.986  0.00  0.00    +0.000 HD
ENDBRANCH  36  38
ENDBRANCH  34  36
ENDBRANCH  33  34
ENDBRANCH  31  32
ENDBRANCH  25  26
ENDBRANCH  24  25
ENDBRANCH   5  24
TORSDOF 14
ENDMDL
MODEL 7
REMARK VINA RESULT:      -7.7      1.613     10.638
REMARK  Name = 
REMARK  14 active torsions:
REMARK  status: ('A' for Active; 'I' for Inactive)
REMARK    1  A    between atoms: N_1  and  C_2
REMARK    2  A    between atoms: C_2  and  N_4
REMARK    3  A    between atoms: N_4  and  N_5
REMARK    4  A    between atoms: C_6  and  C_7
REMARK    5  A    between atoms: C_12  and  O_13
REMARK    6  A    between atoms: O_13  and  C_14
REMARK    7  A    between atoms: C_14  and  C_15
REMARK    8  A    between atoms: C_19  and  C_20
REMARK    9  A    between atoms: C_20  and  O_21
REMARK   10  A    between atoms: O_21  and  C_22
REMARK   11  A    between atoms: C_27  and  C_28
REMARK   12  A    between atoms: N_29  and  N_30
REMARK   13  A    between atoms: N_30  and  C_31
REMARK   14  A    between atoms: C_31  and  N_32
REMARK                            x       y       z     vdW  Elec       q    Type
REMARK                         _______ _______ _______ _____ _____    ______ ____
ROOT
ATOM      1  C   UNL     1       1.897   7.933  19.823  0.00  0.00    +0.000 A 
ATOM      2  C   UNL     1       1.438   7.897  21.130  0.00  0.00    +0.000 A 
ATOM      3  C   UNL     1       0.472   8.820  21.519  0.00  0.00    +0.000 A 
ATOM      4  C   UNL     1      -0.015   9.742  20.594  0.00  0.00    +0.000 A 
ATOM      5  C   UNL     1       0.466   9.703  19.290  0.00  0.00    +0.000 A 
ATOM      6  N   UNL     1       1.409   8.813  18.904  0.00  0.00    +0.000 NA
ENDROOT
BRANCH   1   7
ATOM      7  C   UNL     1       2.877   6.915  19.289  0.00  0.00    +0.000 C 
BRANCH   7   8
ATOM      8  O   UNL     1       2.280   5.722  18.744  0.00  0.00    +0.000 OA
BRANCH   8  14
ATOM      9  C   UNL     1       3.382   3.727  19.542  0.00  0.00    +0.000 A 
ATOM     10  C   UNL     1       3.422   2.637  20.435  0.00  0.00    +0.000 A 
ATOM     11  C   UNL     1       2.413   2.427  21.371  0.00  0.00    +0.000 A 
ATOM     12  C   UNL     1       1.333   3.288  21.405  0.00  0.00    +0.000 A 
ATOM     13  C   UNL     1       1.274   4.368  20.520  0.00  0.00    +0.000 A 
ATOM     14  C   UNL     1       2.304   4.635  19.595  0.00  0.00    +0.000 A 
BRANCH   9  16
ATOM     15  N   UNL     1       4.460   3.510  17.397  0.00  0.00    +0.000 NA
ATOM     16  C   UNL     1       4.557   3.882  18.640  0.00  0.00    +0.000 C 
BRANCH  15  17
ATOM     17  N   UNL     1       5.612   3.453  16.673  0.00  0.00    +0.000 N 
ATOM     18  H   UNL     1       5.799   2.631  16.105  0.00  0.00    +0.000 HD
BRANCH  17  19
ATOM     19  C   UNL     1       6.270   4.611  16.338  0.00  0.00    +0.000 C 
ATOM     20  S   UNL     1       5.517   5.883  15.591  0.00  0.00    +0.000 S 
BRANCH  19  21
ATOM     21  N   UNL     1       7.588   4.648  16.654  0.00  0.00    +0.000 N 
ATOM     22  H   UNL     1       7.906   4.526  17.605  0.00  0.00    +0.000 HD
ATOM     23  H   UNL     1       8.248   4.691  15.888  0.00  0.00    +0.000 HD
ENDBRANCH  19  21
ENDBRANCH  17  19
ENDBRANCH  15  17
ENDBRANCH   9  16
ENDBRANCH   8  14
ENDBRANCH   7   8
ENDBRANCH   1   7
BRANCH   5  24
ATOM     24  C   UNL     1      -0.122  10.603  18.227  0.00  0.00    +0.000 C 
BRANCH  24  25
ATOM     25  O   UNL     1      -1.034  11.560  18.789  0.00  0.00    +0.000 OA
BRANCH  25  26
ATOM     26  C   UNL     1      -2.288  11.546  18.220  0.00  0.00    +0.000 A 
ATOM     27  C   UNL     1      -2.510  11.080  16.913  0.00  0.00    +0.000 A 
ATOM     28  C   UNL     1      -3.788  11.080  16.355  0.00  0.00    +0.000 A 
ATOM     29  C   UNL     1      -4.873  11.515  17.103  0.00  0.00    +0.000 A 
ATOM     30  C   UNL     1      -4.680  11.943  18.415  0.00  0.00    +0.000 A 
ATOM     31  C   UNL     1      -3.393  11.965  18.982  0.00  0.00    +0.000 A 
BRANCH  31  32
ATOM     32  C   UNL     1      -3.250  12.477  20.368  0.00  0.00    +0.000 C 
ATOM     33  N   UNL     1      -4.274  12.537  21.166  0.00  0.00    +0.000 NA
BRANCH  33  34
ATOM     34  N   UNL     1      -4.034  13.065  22.404  0.00  0.00    +0.000 N 
ATOM     35  H   UNL     1      -3.211  13.638  22.567  0.00  0.00    +0.000 HD
BRANCH  34  36
ATOM     36  C   UNL     1      -4.927  12.911  23.429  0.00  0.00    +0.000 C 
ATOM     37  S   UNL     1      -6.494  13.451  23.336  0.00  0.00    +0.000 S 
BRANCH  36  38
ATOM     38  N   UNL     1      -4.455  12.292  24.538  0.00  0.00    +0.000 N 
ATOM     39  H   UNL     1      -4.147  12.888  25.294  0.00  0.00    +0.000 HD
ATOM     40  H   UNL     1      -4.234  11.307  24.533  0.00  0.00    +0.000 HD
ENDBRANCH  36  38
ENDBRANCH  34  36
ENDBRANCH  33  34
ENDBRANCH  31  32
ENDBRANCH  25  26
ENDBRANCH  24  25
ENDBRANCH   5  24
TORSDOF 14
ENDMDL
MODEL 8
REMARK VINA RESULT:      -7.6      2.037      9.858
REMARK  Name = 
REMARK  14 active torsions:
REMARK  status: ('A' for Active; 'I' for Inactive)
REMARK    1  A    between atoms: N_1  and  C_2
REMARK    2  A    between atoms: C_2  and  N_4
REMARK    3  A    between atoms: N_4  and  N_5
REMARK    4  A    between atoms: C_6  and  C_7
REMARK    5  A    between atoms: C_12  and  O_13
REMARK    6  A    between atoms: O_13  and  C_14
REMARK    7  A    between atoms: C_14  and  C_15
REMARK    8  A    between atoms: C_19  and  C_20
REMARK    9  A    between atoms: C_20  and  O_21
REMARK   10  A    between atoms: O_21  and  C_22
REMARK   11  A    between atoms: C_27  and  C_28
REMARK   12  A    between atoms: N_29  and  N_30
REMARK   13  A    between atoms: N_30  and  C_31
REMARK   14  A    between atoms: C_31  and  N_32
REMARK                            x       y       z     vdW  Elec       q    Type
REMARK                         _______ _______ _______ _____ _____    ______ ____
ROOT
ATOM      1  C   UNL     1       2.064   8.308  18.826  0.00  0.00    +0.000 A 
ATOM      2  C   UNL     1       2.374   9.214  17.824  0.00  0.00    +0.000 A 
ATOM      3  C   UNL     1       1.928  10.526  17.956  0.00  0.00    +0.000 A 
ATOM      4  C   UNL     1       1.198  10.897  19.084  0.00  0.00    +0.000 A 
ATOM      5  C   UNL     1       0.949   9.945  20.067  0.00  0.00    +0.000 A 
ATOM      6  N   UNL     1       1.374   8.667  19.945  0.00  0.00    +0.000 NA
ENDROOT
BRANCH   1   7
ATOM      7  C   UNL     1       2.581   6.888  18.810  0.00  0.00    +0.000 C 
BRANCH   7   8
ATOM      8  O   UNL     1       2.367   6.148  20.029  0.00  0.00    +0.000 OA
BRANCH   8  14
ATOM      9  C   UNL     1       3.351   4.035  19.402  0.00  0.00    +0.000 A 
ATOM     10  C   UNL     1       3.234   2.638  19.253  0.00  0.00    +0.000 A 
ATOM     11  C   UNL     1       2.042   1.975  19.531  0.00  0.00    +0.000 A 
ATOM     12  C   UNL     1       0.940   2.706  19.932  0.00  0.00    +0.000 A 
ATOM     13  C   UNL     1       1.037   4.092  20.076  0.00  0.00    +0.000 A 
ATOM     14  C   UNL     1       2.244   4.784  19.850  0.00  0.00    +0.000 A 
BRANCH   9  16
ATOM     15  N   UNL     1       5.629   3.859  18.633  0.00  0.00    +0.000 NA
ATOM     16  C   UNL     1       4.699   4.613  19.143  0.00  0.00    +0.000 C 
BRANCH  15  17
ATOM     17  N   UNL     1       6.897   4.355  18.627  0.00  0.00    +0.000 N 
ATOM     18  H   UNL     1       7.613   3.888  19.177  0.00  0.00    +0.000 HD
BRANCH  17  19
ATOM     19  C   UNL     1       7.320   5.144  17.586  0.00  0.00    +0.000 C 
ATOM     20  S   UNL     1       7.359   6.799  17.677  0.00  0.00    +0.000 S 
BRANCH  19  21
ATOM     21  N   UNL     1       7.700   4.483  16.465  0.00  0.00    +0.000 N 
ATOM     22  H   UNL     1       7.323   4.719  15.559  0.00  0.00    +0.000 HD
ATOM     23  H   UNL     1       8.460   3.820  16.553  0.00  0.00    +0.000 HD
ENDBRANCH  19  21
ENDBRANCH  17  19
ENDBRANCH  15  17
ENDBRANCH   9  16
ENDBRANCH   8  14
ENDBRANCH   7   8
ENDBRANCH   1   7
BRANCH   5  24
ATOM     24  C   UNL     1       0.269  10.335  21.359  0.00  0.00    +0.000 C 
BRANCH  24  25
ATOM     25  O   UNL     1      -1.108  10.684  21.148  0.00  0.00    +0.000 OA
BRANCH  25  26
ATOM     26  C   UNL     1      -1.448  11.939  21.601  0.00  0.00    +0.000 A 
ATOM     27  C   UNL     1      -0.957  12.454  22.812  0.00  0.00    +0.000 A 
ATOM     28  C   UNL     1      -1.319  13.727  23.254  0.00  0.00    +0.000 A 
ATOM     29  C   UNL     1      -2.151  14.521  22.479  0.00  0.00    +0.000 A 
ATOM     30  C   UNL     1      -2.618  14.044  21.255  0.00  0.00    +0.000 A 
ATOM     31  C   UNL     1      -2.275  12.756  20.809  0.00  0.00    +0.000 A 
BRANCH  31  32
ATOM     32  C   UNL     1      -2.842  12.290  19.518  0.00  0.00    +0.000 C 
ATOM     33  N   UNL     1      -2.104  12.221  18.451  0.00  0.00    +0.000 NA
BRANCH  33  34
ATOM     34  N   UNL     1      -2.742  11.820  17.310  0.00  0.00    +0.000 N 
ATOM     35  H   UNL     1      -3.478  12.392  16.906  0.00  0.00    +0.000 HD
BRANCH  34  36
ATOM     36  C   UNL     1      -2.357  10.692  16.638  0.00  0.00    +0.000 C 
ATOM     37  S   UNL     1      -3.027  10.246  15.186  0.00  0.00    +0.000 S 
BRANCH  36  38
ATOM     38  N   UNL     1      -1.393   9.949  17.233  0.00  0.00    +0.000 N 
ATOM     39  H   UNL     1      -0.447  10.088  16.907  0.00  0.00    +0.000 HD
ATOM     40  H   UNL     1      -1.627   9.162  17.819  0.00  0.00    +0.000 HD
ENDBRANCH  36  38
ENDBRANCH  34  36
ENDBRANCH  33  34
ENDBRANCH  31  32
ENDBRANCH  25  26
ENDBRANCH  24  25
ENDBRANCH   5  24
TORSDOF 14
ENDMDL
MODEL 9
REMARK VINA RESULT:      -7.6      1.496     10.527
REMARK  Name = 
REMARK  14 active torsions:
REMARK  status: ('A' for Active; 'I' for Inactive)
REMARK    1  A    between atoms: N_1  and  C_2
REMARK    2  A    between atoms: C_2  and  N_4
REMARK    3  A    between atoms: N_4  and  N_5
REMARK    4  A    between atoms: C_6  and  C_7
REMARK    5  A    between atoms: C_12  and  O_13
REMARK    6  A    between atoms: O_13  and  C_14
REMARK    7  A    between atoms: C_14  and  C_15
REMARK    8  A    between atoms: C_19  and  C_20
REMARK    9  A    between atoms: C_20  and  O_21
REMARK   10  A    between atoms: O_21  and  C_22
REMARK   11  A    between atoms: C_27  and  C_28
REMARK   12  A    between atoms: N_29  and  N_30
REMARK   13  A    between atoms: N_30  and  C_31
REMARK   14  A    between atoms: C_31  and  N_32
REMARK                            x       y       z     vdW  Elec       q    Type
REMARK                         _______ _______ _______ _____ _____    ______ ____
ROOT
ATOM      1  C   UNL     1       1.682   8.191  19.864  0.00  0.00    +0.000 A 
ATOM      2  C   UNL     1       1.378   7.964  21.197  0.00  0.00    +0.000 A 
ATOM      3  C   UNL     1       0.581   8.891  21.861  0.00  0.00    +0.000 A 
ATOM      4  C   UNL     1       0.104  10.007  21.178  0.00  0.00    +0.000 A 
ATOM      5  C   UNL     1       0.421  10.158  19.832  0.00  0.00    +0.000 A 
ATOM      6  N   UNL     1       1.199   9.265  19.179  0.00  0.00    +0.000 NA
ENDROOT
BRANCH   1   7
ATOM      7  C   UNL     1       2.465   7.195  19.040  0.00  0.00    +0.000 C 
BRANCH   7   8
ATOM      8  O   UNL     1       3.014   6.088  19.783  0.00  0.00    +0.000 OA
BRANCH   8  14
ATOM      9  C   UNL     1       3.227   4.064  18.485  0.00  0.00    +0.000 A 
ATOM     10  C   UNL     1       2.736   2.789  18.134  0.00  0.00    +0.000 A 
ATOM     11  C   UNL     1       1.556   2.290  18.678  0.00  0.00    +0.000 A 
ATOM     12  C   UNL     1       0.833   3.073  19.557  0.00  0.00    +0.000 A 
ATOM     13  C   UNL     1       1.301   4.342  19.908  0.00  0.00    +0.000 A 
ATOM     14  C   UNL     1       2.517   4.854  19.413  0.00  0.00    +0.000 A 
BRANCH   9  16
ATOM     15  N   UNL     1       5.092   3.670  17.009  0.00  0.00    +0.000 NA
ATOM     16  C   UNL     1       4.536   4.451  17.889  0.00  0.00    +0.000 C 
BRANCH  15  17
ATOM     17  N   UNL     1       6.381   3.940  16.664  0.00  0.00    +0.000 N 
ATOM     18  H   UNL     1       7.130   3.403  17.092  0.00  0.00    +0.000 HD
BRANCH  17  19
ATOM     19  C   UNL     1       6.656   4.564  15.472  0.00  0.00    +0.000 C 
ATOM     20  S   UNL     1       6.087   4.007  14.019  0.00  0.00    +0.000 S 
BRANCH  19  21
ATOM     21  N   UNL     1       7.435   5.670  15.556  0.00  0.00    +0.000 N 
ATOM     22  H   UNL     1       8.343   5.644  15.996  0.00  0.00    +0.000 HD
ATOM     23  H   UNL     1       7.123   6.496  15.061  0.00  0.00    +0.000 HD
ENDBRANCH  19  21
ENDBRANCH  17  19
ENDBRANCH  15  17
ENDBRANCH   9  16
ENDBRANCH   8  14
ENDBRANCH   7   8
ENDBRANCH   1   7
BRANCH   5  24
ATOM     24  C   UNL     1      -0.175  11.287  19.023  0.00  0.00    +0.000 C 
BRANCH  24  25
ATOM     25  O   UNL     1      -1.463  11.677  19.528  0.00  0.00    +0.000 OA
BRANCH  25  26
ATOM     26  C   UNL     1      -2.480  11.593  18.603  0.00  0.00    +0.000 A 
ATOM     27  C   UNL     1      -2.270  11.097  17.306  0.00  0.00    +0.000 A 
ATOM     28  C   UNL     1      -3.314  11.025  16.383  0.00  0.00    +0.000 A 
ATOM     29  C   UNL     1      -4.594  11.417  16.751  0.00  0.00    +0.000 A 
ATOM     30  C   UNL     1      -4.831  11.874  18.045  0.00  0.00    +0.000 A 
ATOM     31  C   UNL     1      -3.782  11.968  18.977  0.00  0.00    +0.000 A 
BRANCH  31  32
ATOM     32  C   UNL     1      -4.093  12.508  20.325  0.00  0.00    +0.000 C 
ATOM     33  N   UNL     1      -3.905  13.764  20.601  0.00  0.00    +0.000 NA
BRANCH  33  34
ATOM     34  N   UNL     1      -4.184  14.139  21.886  0.00  0.00    +0.000 N 
ATOM     35  H   UNL     1      -5.009  14.696  22.091  0.00  0.00    +0.000 HD
BRANCH  34  36
ATOM     36  C   UNL     1      -3.416  13.712  22.935  0.00  0.00    +0.000 C 
ATOM     37  S   UNL     1      -4.011  12.731  24.135  0.00  0.00    +0.000 S 
BRANCH  36  38
ATOM     38  N   UNL     1      -2.132  14.143  22.942  0.00  0.00    +0.000 N 
ATOM     39  H   UNL     1      -1.957  15.042  23.371  0.00  0.00    +0.000 HD
ATOM     40  H   UNL     1      -1.426  13.694  22.378  0.00  0.00    +0.000 HD
ENDBRANCH  36  38
ENDBRANCH  34  36
ENDBRANCH  33  34
ENDBRANCH  31  32
ENDBRANCH  25  26
ENDBRANCH  24  25
ENDBRANCH   5  24
TORSDOF 14
ENDMDL
