MODEL 1
REMARK VINA RESULT:      -7.0      0.000      0.000
REMARK  Name = 
REMARK  3 active torsions:
REMARK  status: ('A' for Active; 'I' for Inactive)
REMARK    1  A    between atoms: C_1  and  C_2
REMARK    2  A    between atoms: N_4  and  C_5
REMARK    3  A    between atoms: N_17  and  O_18
REMARK                            x       y       z     vdW  Elec       q    Type
REMARK                         _______ _______ _______ _____ _____    ______ ____
ROOT
ATOM      1  C   UNL     1       6.633   4.747  16.940  0.00  0.00    +0.000 C 
ATOM      2  C   UNL     1       5.542   4.659  17.941  0.00  0.00    +0.000 A 
ATOM      3  N   UNL     1       5.519   3.593  18.755  0.00  0.00    +0.000 NA
ATOM      4  N   UNL     1       4.412   3.776  19.509  0.00  0.00    +0.000 N 
ATOM      5  C   UNL     1       3.819   2.625  20.142  0.00  0.00    +0.000 C 
ATOM      6  C   UNL     1       3.882   5.017  19.356  0.00  0.00    +0.000 A 
ATOM      7  C   UNL     1       4.468   5.546  18.229  0.00  0.00    +0.000 A 
ATOM      8  C   UNL     1       3.938   6.770  17.653  0.00  0.00    +0.000 A 
ATOM      9  O   UNL     1       4.327   7.235  16.587  0.00  0.00    +0.000 OA
ATOM     10  C   UNL     1       2.851   7.449  18.456  0.00  0.00    +0.000 A 
ATOM     11  C   UNL     1       2.256   8.631  17.993  0.00  0.00    +0.000 A 
ATOM     12  C   UNL     1       1.371   9.327  18.822  0.00  0.00    +0.000 A 
ATOM     13 CL   UNL     1       0.621  10.773  18.268  0.00  0.00    +0.000 Cl
ATOM     14  C   UNL     1       1.087   8.869  20.109  0.00  0.00    +0.000 A 
ATOM     15  C   UNL     1       1.612   7.651  20.539  0.00  0.00    +0.000 A 
ATOM     16  C   UNL     1       2.463   6.904  19.708  0.00  0.00    +0.000 A 
ATOM     17  N   UNL     1       2.926   5.614  20.106  0.00  0.00    +0.000 N 
ENDROOT
BRANCH  17  18
ATOM     18  O   UNL     1       2.370   4.965  21.201  0.00  0.00    +0.000 OA
ATOM     19  H   UNL     1       1.680   5.588  21.494  0.00  0.00    +0.000 HD
ENDBRANCH  17  18
TORSDOF 1
ENDMDL
MODEL 2
REMARK VINA RESULT:      -7.0      3.197      5.171
REMARK  Name = 
REMARK  3 active torsions:
REMARK  status: ('A' for Active; 'I' for Inactive)
REMARK    1  A    between atoms: C_1  and  C_2
REMARK    2  A    between atoms: N_4  and  C_5
REMARK    3  A    between atoms: N_17  and  O_18
REMARK                            x       y       z     vdW  Elec       q    Type
REMARK                         _______ _______ _______ _____ _____    ______ ____
ROOT
ATOM      1  C   UNL     1       2.591   2.566  21.346  0.00  0.00    +0.000 C 
ATOM      2  C   UNL     1       2.629   3.853  20.608  0.00  0.00    +0.000 A 
ATOM      3  N   UNL     1       2.120   4.939  21.210  0.00  0.00    +0.000 NA
ATOM      4  N   UNL     1       2.263   5.922  20.293  0.00  0.00    +0.000 N 
ATOM      5  C   UNL     1       1.414   7.083  20.400  0.00  0.00    +0.000 C 
ATOM      6  C   UNL     1       3.044   5.545  19.248  0.00  0.00    +0.000 A 
ATOM      7  C   UNL     1       3.147   4.175  19.324  0.00  0.00    +0.000 A 
ATOM      8  C   UNL     1       3.718   3.437  18.210  0.00  0.00    +0.000 A 
ATOM      9  O   UNL     1       3.734   2.213  18.152  0.00  0.00    +0.000 OA
ATOM     10  C   UNL     1       4.299   4.284  17.099  0.00  0.00    +0.000 A 
ATOM     11  C   UNL     1       4.867   3.682  15.967  0.00  0.00    +0.000 A 
ATOM     12  C   UNL     1       5.539   4.473  15.031  0.00  0.00    +0.000 A 
ATOM     13 CL   UNL     1       6.233   3.755  13.629  0.00  0.00    +0.000 Cl
ATOM     14  C   UNL     1       5.666   5.849  15.217  0.00  0.00    +0.000 A 
ATOM     15  C   UNL     1       5.031   6.460  16.298  0.00  0.00    +0.000 A 
ATOM     16  C   UNL     1       4.304   5.697  17.227  0.00  0.00    +0.000 A 
ATOM     17  N   UNL     1       3.574   6.328  18.279  0.00  0.00    +0.000 N 
ENDROOT
BRANCH  17  18
ATOM     18  O   UNL     1       3.367   7.701  18.277  0.00  0.00    +0.000 OA
ATOM     19  H   UNL     1       3.233   7.899  17.333  0.00  0.00    +0.000 HD
ENDBRANCH  17  18
TORSDOF 1
ENDMDL
MODEL 3
REMARK VINA RESULT:      -6.9      3.408      4.924
REMARK  Name = 
REMARK  3 active torsions:
REMARK  status: ('A' for Active; 'I' for Inactive)
REMARK    1  A    between atoms: C_1  and  C_2
REMARK    2  A    between atoms: N_4  and  C_5
REMARK    3  A    between atoms: N_17  and  O_18
REMARK                            x       y       z     vdW  Elec       q    Type
REMARK                         _______ _______ _______ _____ _____    ______ ____
ROOT
ATOM      1  C   UNL     1       7.163   8.001  17.649  0.00  0.00    +0.000 C 
ATOM      2  C   UNL     1       6.771   6.715  17.022  0.00  0.00    +0.000 A 
ATOM      3  N   UNL     1       7.548   6.231  16.041  0.00  0.00    +0.000 NA
ATOM      4  N   UNL     1       6.924   5.096  15.654  0.00  0.00    +0.000 N 
ATOM      5  C   UNL     1       7.198   4.581  14.336  0.00  0.00    +0.000 C 
ATOM      6  C   UNL     1       5.928   4.738  16.506  0.00  0.00    +0.000 A 
ATOM      7  C   UNL     1       5.681   5.843  17.289  0.00  0.00    +0.000 A 
ATOM      8  C   UNL     1       4.505   5.868  18.142  0.00  0.00    +0.000 A 
ATOM      9  O   UNL     1       4.154   6.857  18.775  0.00  0.00    +0.000 OA
ATOM     10  C   UNL     1       3.718   4.577  18.201  0.00  0.00    +0.000 A 
ATOM     11  C   UNL     1       2.556   4.486  18.981  0.00  0.00    +0.000 A 
ATOM     12  C   UNL     1       1.934   3.246  19.149  0.00  0.00    +0.000 A 
ATOM     13 CL   UNL     1       0.502   3.115  20.094  0.00  0.00    +0.000 Cl
ATOM     14  C   UNL     1       2.464   2.096  18.563  0.00  0.00    +0.000 A 
ATOM     15  C   UNL     1       3.569   2.198  17.720  0.00  0.00    +0.000 A 
ATOM     16  C   UNL     1       4.184   3.441  17.491  0.00  0.00    +0.000 A 
ATOM     17  N   UNL     1       5.254   3.565  16.555  0.00  0.00    +0.000 N 
ENDROOT
BRANCH  17  18
ATOM     18  O   UNL     1       5.559   2.529  15.681  0.00  0.00    +0.000 OA
ATOM     19  H   UNL     1       5.155   1.755  16.113  0.00  0.00    +0.000 HD
ENDBRANCH  17  18
TORSDOF 1
ENDMDL
MODEL 4
REMARK VINA RESULT:      -6.7      1.476      1.756
REMARK  Name = 
REMARK  3 active torsions:
REMARK  status: ('A' for Active; 'I' for Inactive)
REMARK    1  A    between atoms: C_1  and  C_2
REMARK    2  A    between atoms: N_4  and  C_5
REMARK    3  A    between atoms: N_17  and  O_18
REMARK                            x       y       z     vdW  Elec       q    Type
REMARK                         _______ _______ _______ _____ _____    ______ ____
ROOT
ATOM      1  C   UNL     1       5.070   6.586  16.106  0.00  0.00    +0.000 C 
ATOM      2  C   UNL     1       4.302   6.171  17.306  0.00  0.00    +0.000 A 
ATOM      3  N   UNL     1       4.552   4.959  17.824  0.00  0.00    +0.000 NA
ATOM      4  N   UNL     1       3.689   4.858  18.860  0.00  0.00    +0.000 N 
ATOM      5  C   UNL     1       3.345   3.541  19.336  0.00  0.00    +0.000 C 
ATOM      6  C   UNL     1       3.084   6.040  19.145  0.00  0.00    +0.000 A 
ATOM      7  C   UNL     1       3.313   6.857  18.061  0.00  0.00    +0.000 A 
ATOM      8  C   UNL     1       2.592   8.113  17.947  0.00  0.00    +0.000 A 
ATOM      9  O   UNL     1       2.650   8.834  16.957  0.00  0.00    +0.000 OA
ATOM     10  C   UNL     1       1.741   8.485  19.141  0.00  0.00    +0.000 A 
ATOM     11  C   UNL     1       0.990   9.669  19.139  0.00  0.00    +0.000 A 
ATOM     12  C   UNL     1       0.339  10.074  20.308  0.00  0.00    +0.000 A 
ATOM     13 CL   UNL     1      -0.597  11.518  20.323  0.00  0.00    +0.000 Cl
ATOM     14  C   UNL     1       0.441   9.324  21.479  0.00  0.00    +0.000 A 
ATOM     15  C   UNL     1       1.118   8.104  21.460  0.00  0.00    +0.000 A 
ATOM     16  C   UNL     1       1.737   7.646  20.286  0.00  0.00    +0.000 A 
ATOM     17  N   UNL     1       2.347   6.357  20.236  0.00  0.00    +0.000 N 
ENDROOT
BRANCH  17  18
ATOM     18  O   UNL     1       2.144   5.434  21.254  0.00  0.00    +0.000 OA
ATOM     19  H   UNL     1       2.917   5.574  21.830  0.00  0.00    +0.000 HD
ENDBRANCH  17  18
TORSDOF 1
ENDMDL
MODEL 5
REMARK VINA RESULT:      -6.7      1.171      3.083
REMARK  Name = 
REMARK  3 active torsions:
REMARK  status: ('A' for Active; 'I' for Inactive)
REMARK    1  A    between atoms: C_1  and  C_2
REMARK    2  A    between atoms: N_4  and  C_5
REMARK    3  A    between atoms: N_17  and  O_18
REMARK                            x       y       z     vdW  Elec       q    Type
REMARK                         _______ _______ _______ _____ _____    ______ ____
ROOT
ATOM      1  C   UNL     1       3.187   2.221  19.898  0.00  0.00    +0.000 C 
ATOM      2  C   UNL     1       3.644   3.378  19.090  0.00  0.00    +0.000 A 
ATOM      3  N   UNL     1       4.529   3.149  18.108  0.00  0.00    +0.000 NA
ATOM      4  N   UNL     1       4.774   4.374  17.592  0.00  0.00    +0.000 N 
ATOM      5  C   UNL     1       6.002   4.575  16.864  0.00  0.00    +0.000 C 
ATOM      6  C   UNL     1       3.910   5.313  18.056  0.00  0.00    +0.000 A 
ATOM      7  C   UNL     1       3.290   4.753  19.151  0.00  0.00    +0.000 A 
ATOM      8  C   UNL     1       2.482   5.589  20.021  0.00  0.00    +0.000 A 
ATOM      9  O   UNL     1       1.999   5.193  21.076  0.00  0.00    +0.000 OA
ATOM     10  C   UNL     1       2.270   7.009  19.545  0.00  0.00    +0.000 A 
ATOM     11  C   UNL     1       1.516   7.912  20.310  0.00  0.00    +0.000 A 
ATOM     12  C   UNL     1       1.198   9.166  19.779  0.00  0.00    +0.000 A 
ATOM     13 CL   UNL     1       0.284  10.292  20.706  0.00  0.00    +0.000 Cl
ATOM     14  C   UNL     1       1.607   9.523  18.494  0.00  0.00    +0.000 A 
ATOM     15  C   UNL     1       2.426   8.661  17.767  0.00  0.00    +0.000 A 
ATOM     16  C   UNL     1       2.805   7.415  18.296  0.00  0.00    +0.000 A 
ATOM     17  N   UNL     1       3.720   6.572  17.596  0.00  0.00    +0.000 N 
ENDROOT
BRANCH  17  18
ATOM     18  O   UNL     1       4.436   7.049  16.506  0.00  0.00    +0.000 OA
ATOM     19  H   UNL     1       4.140   7.975  16.440  0.00  0.00    +0.000 HD
ENDBRANCH  17  18
TORSDOF 1
ENDMDL
MODEL 6
REMARK VINA RESULT:      -6.5      2.992      5.158
REMARK  Name = 
REMARK  3 active torsions:
REMARK  status: ('A' for Active; 'I' for Inactive)
REMARK    1  A    between atoms: C_1  and  C_2
REMARK    2  A    between atoms: N_4  and  C_5
REMARK    3  A    between atoms: N_17  and  O_18
REMARK                            x       y       z     vdW  Elec       q    Type
REMARK                         _______ _______ _______ _____ _____    ______ ____
ROOT
ATOM      1  C   UNL     1       2.119   7.534  19.660  0.00  0.00    +0.000 C 
ATOM      2  C   UNL     1       2.651   6.175  19.394  0.00  0.00    +0.000 A 
ATOM      3  N   UNL     1       2.180   5.159  20.133  0.00  0.00    +0.000 NA
ATOM      4  N   UNL     1       2.868   4.082  19.692  0.00  0.00    +0.000 N 
ATOM      5  C   UNL     1       2.973   2.937  20.560  0.00  0.00    +0.000 C 
ATOM      6  C   UNL     1       3.571   4.347  18.560  0.00  0.00    +0.000 A 
ATOM      7  C   UNL     1       3.602   5.718  18.442  0.00  0.00    +0.000 A 
ATOM      8  C   UNL     1       4.485   6.332  17.466  0.00  0.00    +0.000 A 
ATOM      9  O   UNL     1       4.658   7.543  17.384  0.00  0.00    +0.000 OA
ATOM     10  C   UNL     1       5.200   5.373  16.540  0.00  0.00    +0.000 A 
ATOM     11  C   UNL     1       6.087   5.850  15.565  0.00  0.00    +0.000 A 
ATOM     12  C   UNL     1       6.612   4.965  14.619  0.00  0.00    +0.000 A 
ATOM     13 CL   UNL     1       7.711   5.530  13.421  0.00  0.00    +0.000 Cl
ATOM     14  C   UNL     1       6.252   3.618  14.624  0.00  0.00    +0.000 A 
ATOM     15  C   UNL     1       5.437   3.125  15.642  0.00  0.00    +0.000 A 
ATOM     16  C   UNL     1       4.936   3.981  16.637  0.00  0.00    +0.000 A 
ATOM     17  N   UNL     1       4.181   3.466  17.733  0.00  0.00    +0.000 N 
ENDROOT
BRANCH  17  18
ATOM     18  O   UNL     1       4.121   2.099  17.975  0.00  0.00    +0.000 OA
ATOM     19  H   UNL     1       3.538   1.779  17.263  0.00  0.00    +0.000 HD
ENDBRANCH  17  18
TORSDOF 1
ENDMDL
MODEL 7
REMARK VINA RESULT:      -6.4      1.873      3.389
REMARK  Name = 
REMARK  3 active torsions:
REMARK  status: ('A' for Active; 'I' for Inactive)
REMARK    1  A    between atoms: C_1  and  C_2
REMARK    2  A    between atoms: N_4  and  C_5
REMARK    3  A    between atoms: N_17  and  O_18
REMARK                            x       y       z     vdW  Elec       q    Type
REMARK                         _______ _______ _______ _____ _____    ______ ____
ROOT
ATOM      1  C   UNL     1       3.332   2.663  18.891  0.00  0.00    +0.000 C 
ATOM      2  C   UNL     1       3.461   4.062  18.415  0.00  0.00    +0.000 A 
ATOM      3  N   UNL     1       4.122   4.279  17.268  0.00  0.00    +0.000 NA
ATOM      4  N   UNL     1       4.105   5.622  17.124  0.00  0.00    +0.000 N 
ATOM      5  C   UNL     1       5.106   6.232  16.285  0.00  0.00    +0.000 C 
ATOM      6  C   UNL     1       3.266   6.225  18.005  0.00  0.00    +0.000 A 
ATOM      7  C   UNL     1       2.977   5.281  18.964  0.00  0.00    +0.000 A 
ATOM      8  C   UNL     1       2.295   5.682  20.183  0.00  0.00    +0.000 A 
ATOM      9  O   UNL     1       2.111   4.927  21.130  0.00  0.00    +0.000 OA
ATOM     10  C   UNL     1       1.822   7.118  20.220  0.00  0.00    +0.000 A 
ATOM     11  C   UNL     1       1.162   7.623  21.350  0.00  0.00    +0.000 A 
ATOM     12  C   UNL     1       0.593   8.898  21.303  0.00  0.00    +0.000 A 
ATOM     13 CL   UNL     1      -0.211   9.540  22.683  0.00  0.00    +0.000 Cl
ATOM     14  C   UNL     1       0.659   9.669  20.142  0.00  0.00    +0.000 A 
ATOM     15  C   UNL     1       1.386   9.204  19.047  0.00  0.00    +0.000 A 
ATOM     16  C   UNL     1       2.013   7.947  19.083  0.00  0.00    +0.000 A 
ATOM     17  N   UNL     1       2.836   7.509  18.003  0.00  0.00    +0.000 N 
ENDROOT
BRANCH  17  18
ATOM     18  O   UNL     1       3.229   8.392  17.005  0.00  0.00    +0.000 OA
ATOM     19  H   UNL     1       2.389   8.602  16.559  0.00  0.00    +0.000 HD
ENDBRANCH  17  18
TORSDOF 1
ENDMDL
MODEL 8
REMARK VINA RESULT:      -6.2      3.443      6.303
REMARK  Name = 
REMARK  3 active torsions:
REMARK  status: ('A' for Active; 'I' for Inactive)
REMARK    1  A    between atoms: C_1  and  C_2
REMARK    2  A    between atoms: N_4  and  C_5
REMARK    3  A    between atoms: N_17  and  O_18
REMARK                            x       y       z     vdW  Elec       q    Type
REMARK                         _______ _______ _______ _____ _____    ______ ____
ROOT
ATOM      1  C   UNL     1      -0.039   9.362  22.945  0.00  0.00    +0.000 C 
ATOM      2  C   UNL     1       0.291   9.608  21.520  0.00  0.00    +0.000 A 
ATOM      3  N   UNL     1      -0.078  10.779  20.981  0.00  0.00    +0.000 NA
ATOM      4  N   UNL     1       0.319  10.690  19.692  0.00  0.00    +0.000 N 
ATOM      5  C   UNL     1      -0.323  11.539  18.719  0.00  0.00    +0.000 C 
ATOM      6  C   UNL     1       1.121   9.617  19.471  0.00  0.00    +0.000 A 
ATOM      7  C   UNL     1       0.978   8.802  20.571  0.00  0.00    +0.000 A 
ATOM      8  C   UNL     1       1.518   7.454  20.539  0.00  0.00    +0.000 A 
ATOM      9  O   UNL     1       1.329   6.631  21.427  0.00  0.00    +0.000 OA
ATOM     10  C   UNL     1       2.341   7.112  19.316  0.00  0.00    +0.000 A 
ATOM     11  C   UNL     1       2.903   5.836  19.169  0.00  0.00    +0.000 A 
ATOM     12  C   UNL     1       3.789   5.591  18.115  0.00  0.00    +0.000 A 
ATOM     13 CL   UNL     1       4.481   4.028  17.911  0.00  0.00    +0.000 Cl
ATOM     14  C   UNL     1       4.132   6.604  17.220  0.00  0.00    +0.000 A 
ATOM     15  C   UNL     1       3.511   7.848  17.315  0.00  0.00    +0.000 A 
ATOM     16  C   UNL     1       2.577   8.108  18.332  0.00  0.00    +0.000 A 
ATOM     17  N   UNL     1       1.869   9.346  18.376  0.00  0.00    +0.000 N 
ENDROOT
BRANCH  17  18
ATOM     18  O   UNL     1       1.903  10.223  17.300  0.00  0.00    +0.000 OA
ATOM     19  H   UNL     1       1.717  11.084  17.716  0.00  0.00    +0.000 HD
ENDBRANCH  17  18
TORSDOF 1
ENDMDL
MODEL 9
REMARK VINA RESULT:      -6.2      2.733      4.882
REMARK  Name = 
REMARK  3 active torsions:
REMARK  status: ('A' for Active; 'I' for Inactive)
REMARK    1  A    between atoms: C_1  and  C_2
REMARK    2  A    between atoms: N_4  and  C_5
REMARK    3  A    between atoms: N_17  and  O_18
REMARK                            x       y       z     vdW  Elec       q    Type
REMARK                         _______ _______ _______ _____ _____    ______ ____
ROOT
ATOM      1  C   UNL     1       1.516   8.226  19.992  0.00  0.00    +0.000 C 
ATOM      2  C   UNL     1       2.029   6.836  19.932  0.00  0.00    +0.000 A 
ATOM      3  N   UNL     1       1.552   5.950  20.820  0.00  0.00    +0.000 NA
ATOM      4  N   UNL     1       2.223   4.810  20.544  0.00  0.00    +0.000 N 
ATOM      5  C   UNL     1       2.322   3.809  21.576  0.00  0.00    +0.000 C 
ATOM      6  C   UNL     1       2.920   4.890  19.381  0.00  0.00    +0.000 A 
ATOM      7  C   UNL     1       2.967   6.226  19.055  0.00  0.00    +0.000 A 
ATOM      8  C   UNL     1       3.849   6.673  17.991  0.00  0.00    +0.000 A 
ATOM      9  O   UNL     1       4.036   7.855  17.724  0.00  0.00    +0.000 OA
ATOM     10  C   UNL     1       4.544   5.574  17.218  0.00  0.00    +0.000 A 
ATOM     11  C   UNL     1       5.429   5.886  16.175  0.00  0.00    +0.000 A 
ATOM     12  C   UNL     1       5.935   4.860  15.372  0.00  0.00    +0.000 A 
ATOM     13 CL   UNL     1       7.031   5.221  14.095  0.00  0.00    +0.000 Cl
ATOM     14  C   UNL     1       5.558   3.534  15.584  0.00  0.00    +0.000 A 
ATOM     15  C   UNL     1       4.746   3.213  16.670  0.00  0.00    +0.000 A 
ATOM     16  C   UNL     1       4.264   4.218  17.527  0.00  0.00    +0.000 A 
ATOM     17  N   UNL     1       3.512   3.885  18.693  0.00  0.00    +0.000 N 
ENDROOT
BRANCH  17  18
ATOM     18  O   UNL     1       3.437   2.572  19.141  0.00  0.00    +0.000 OA
ATOM     19  H   UNL     1       2.478   2.428  19.229  0.00  0.00    +0.000 HD
ENDBRANCH  17  18
TORSDOF 1
ENDMDL
