MODEL 1
REMARK VINA RESULT:      -7.3      0.000      0.000
REMARK  Name = 
REMARK  4 active torsions:
REMARK  status: ('A' for Active; 'I' for Inactive)
REMARK    1  A    between atoms: C_23  and  O_24
REMARK    2  A    between atoms: O_24  and  C_25
REMARK    3  A    between atoms: C_25  and  C_26
REMARK    4  A    between atoms: C_26  and  N_27
REMARK                            x       y       z     vdW  Elec       q    Type
REMARK                         _______ _______ _______ _____ _____    ______ ____
ROOT
ATOM      1  C   UNL     1       8.135  13.019  17.815  0.00  0.00    +0.000 C 
ATOM      2  C   UNL     1       9.385  12.880  17.343  0.00  0.00    +0.000 C 
ATOM      3  C   UNL     1      10.437  11.954  17.941  0.00  0.00    +0.000 C 
ATOM      4  N   UNL     1      11.226  12.750  18.892  0.00  0.00    +0.000 N 
ATOM      5  C   UNL     1      12.333  13.488  18.541  0.00  0.00    +0.000 A 
ATOM      6  C   UNL     1      12.308  14.639  19.301  0.00  0.00    +0.000 A 
ATOM      7  C   UNL     1      11.210  14.545  20.202  0.00  0.00    +0.000 A 
ATOM      8  C   UNL     1      10.591  15.431  21.101  0.00  0.00    +0.000 A 
ATOM      9  C   UNL     1       9.469  15.002  21.828  0.00  0.00    +0.000 A 
ATOM     10  C   UNL     1       8.989  13.689  21.737  0.00  0.00    +0.000 A 
ATOM     11  C   UNL     1       9.607  12.801  20.841  0.00  0.00    +0.000 A 
ATOM     12  C   UNL     1      10.669  13.271  20.052  0.00  0.00    +0.000 A 
ATOM     13  C   UNL     1       7.793  13.268  22.473  0.00  0.00    +0.000 A 
ATOM     14  C   UNL     1       7.777  12.187  23.325  0.00  0.00    +0.000 A 
ATOM     15  C   UNL     1       6.556  11.874  23.866  0.00  0.00    +0.000 A 
ATOM     16  N   UNL     1       5.417  12.526  23.578  0.00  0.00    +0.000 NA
ATOM     17  C   UNL     1       5.520  13.562  22.730  0.00  0.00    +0.000 A 
ATOM     18  N   UNL     1       6.682  13.978  22.212  0.00  0.00    +0.000 NA
ATOM     19  N   UNL     1       4.317  14.150  22.304  0.00  0.00    +0.000 N 
ATOM     20  C   UNL     1       4.217  14.822  21.073  0.00  0.00    +0.000 A 
ATOM     21  C   UNL     1       3.599  14.214  19.978  0.00  0.00    +0.000 A 
ATOM     22  C   UNL     1       3.475  14.918  18.784  0.00  0.00    +0.000 A 
ATOM     23  C   UNL     1       4.097  16.160  18.661  0.00  0.00    +0.000 A 
ATOM     24  C   UNL     1       5.137  16.429  19.540  0.00  0.00    +0.000 A 
ATOM     25  C   UNL     1       4.916  16.015  20.859  0.00  0.00    +0.000 A 
ATOM     26  C   UNL     1       6.550  16.023  19.001  0.00  0.00    +0.000 C 
ATOM     27  O   UNL     1       6.623  14.602  18.772  0.00  0.00    +0.000 OA
ATOM     28  C   UNL     1       7.229  14.202  17.549  0.00  0.00    +0.000 C 
ATOM     29  H   UNL     1       3.600  13.453  22.464  0.00  0.00    +0.000 HD
ENDROOT
BRANCH  23  30
ATOM     30  O   UNL     1       3.617  17.184  17.863  0.00  0.00    +0.000 OA
BRANCH  30  31
ATOM     31  C   UNL     1       2.178  17.231  17.945  0.00  0.00    +0.000 C 
BRANCH  31  32
ATOM     32  C   UNL     1       1.563  17.960  19.155  0.00  0.00    +0.000 C 
BRANCH  32  33
ATOM     33  N   UNL     1       0.289  17.288  19.508  0.00  0.00    +0.000 NA
ATOM     34  C   UNL     1       0.177  16.879  20.909  0.00  0.00    +0.000 C 
ATOM     35  C   UNL     1       0.378  15.377  20.907  0.00  0.00    +0.000 C 
ATOM     36  C   UNL     1      -0.303  14.957  19.622  0.00  0.00    +0.000 C 
ATOM     37  C   UNL     1       0.004  16.104  18.673  0.00  0.00    +0.000 C 
ENDBRANCH  32  33
ENDBRANCH  31  32
ENDBRANCH  30  31
ENDBRANCH  23  30
TORSDOF 4
ENDMDL
MODEL 2
REMARK VINA RESULT:      -6.9      6.520     11.577
REMARK  Name = 
REMARK  4 active torsions:
REMARK  status: ('A' for Active; 'I' for Inactive)
REMARK    1  A    between atoms: C_23  and  O_24
REMARK    2  A    between atoms: O_24  and  C_25
REMARK    3  A    between atoms: C_25  and  C_26
REMARK    4  A    between atoms: C_26  and  N_27
REMARK                            x       y       z     vdW  Elec       q    Type
REMARK                         _______ _______ _______ _____ _____    ______ ____
ROOT
ATOM      1  C   UNL     1      -3.327  11.365  17.791  0.00  0.00    +0.000 C 
ATOM      2  C   UNL     1      -4.662  11.213  17.812  0.00  0.00    +0.000 C 
ATOM      3  C   UNL     1      -5.662  12.361  17.826  0.00  0.00    +0.000 C 
ATOM      4  N   UNL     1      -5.991  12.633  19.232  0.00  0.00    +0.000 N 
ATOM      5  C   UNL     1      -6.991  11.990  19.924  0.00  0.00    +0.000 A 
ATOM      6  C   UNL     1      -6.538  11.814  21.216  0.00  0.00    +0.000 A 
ATOM      7  C   UNL     1      -5.273  12.456  21.327  0.00  0.00    +0.000 A 
ATOM      8  C   UNL     1      -4.272  12.503  22.314  0.00  0.00    +0.000 A 
ATOM      9  C   UNL     1      -3.096  13.229  22.068  0.00  0.00    +0.000 A 
ATOM     10  C   UNL     1      -2.918  13.968  20.891  0.00  0.00    +0.000 A 
ATOM     11  C   UNL     1      -3.917  13.925  19.904  0.00  0.00    +0.000 A 
ATOM     12  C   UNL     1      -5.047  13.121  20.125  0.00  0.00    +0.000 A 
ATOM     13  C   UNL     1      -1.667  14.689  20.633  0.00  0.00    +0.000 A 
ATOM     14  C   UNL     1      -1.622  16.033  20.338  0.00  0.00    +0.000 A 
ATOM     15  C   UNL     1      -0.382  16.534  20.034  0.00  0.00    +0.000 A 
ATOM     16  N   UNL     1       0.735  15.789  19.975  0.00  0.00    +0.000 NA
ATOM     17  C   UNL     1       0.600  14.486  20.267  0.00  0.00    +0.000 A 
ATOM     18  N   UNL     1      -0.559  13.930  20.641  0.00  0.00    +0.000 NA
ATOM     19  N   UNL     1       1.727  13.673  20.058  0.00  0.00    +0.000 N 
ATOM     20  C   UNL     1       1.608  12.298  19.789  0.00  0.00    +0.000 A 
ATOM     21  C   UNL     1       1.772  11.810  18.490  0.00  0.00    +0.000 A 
ATOM     22  C   UNL     1       1.692  10.440  18.258  0.00  0.00    +0.000 A 
ATOM     23  C   UNL     1       1.308   9.597  19.302  0.00  0.00    +0.000 A 
ATOM     24  C   UNL     1       0.623  10.181  20.358  0.00  0.00    +0.000 A 
ATOM     25  C   UNL     1       1.117  11.425  20.766  0.00  0.00    +0.000 A 
ATOM     26  C   UNL     1      -0.934  10.166  20.195  0.00  0.00    +0.000 C 
ATOM     27  O   UNL     1      -1.336  10.923  19.036  0.00  0.00    +0.000 OA
ATOM     28  C   UNL     1      -2.322  10.314  18.211  0.00  0.00    +0.000 C 
ATOM     29  H   UNL     1       2.314  14.181  19.407  0.00  0.00    +0.000 HD
ENDROOT
BRANCH  23  30
ATOM     30  O   UNL     1       1.734   8.286  19.425  0.00  0.00    +0.000 OA
BRANCH  30  31
ATOM     31  C   UNL     1       2.165   7.791  18.141  0.00  0.00    +0.000 C 
BRANCH  31  32
ATOM     32  C   UNL     1       3.518   7.055  18.086  0.00  0.00    +0.000 C 
BRANCH  32  33
ATOM     33  N   UNL     1       3.313   5.666  18.564  0.00  0.00    +0.000 NA
ATOM     34  C   UNL     1       4.410   4.745  18.262  0.00  0.00    +0.000 C 
ATOM     35  C   UNL     1       3.909   3.883  17.121  0.00  0.00    +0.000 C 
ATOM     36  C   UNL     1       2.444   3.713  17.458  0.00  0.00    +0.000 C 
ATOM     37  C   UNL     1       2.067   5.055  18.064  0.00  0.00    +0.000 C 
ENDBRANCH  32  33
ENDBRANCH  31  32
ENDBRANCH  30  31
ENDBRANCH  23  30
TORSDOF 4
ENDMDL
MODEL 3
REMARK VINA RESULT:      -6.6      6.417     11.460
REMARK  Name = 
REMARK  4 active torsions:
REMARK  status: ('A' for Active; 'I' for Inactive)
REMARK    1  A    between atoms: C_23  and  O_24
REMARK    2  A    between atoms: O_24  and  C_25
REMARK    3  A    between atoms: C_25  and  C_26
REMARK    4  A    between atoms: C_26  and  N_27
REMARK                            x       y       z     vdW  Elec       q    Type
REMARK                         _______ _______ _______ _____ _____    ______ ____
ROOT
ATOM      1  C   UNL     1      -3.044  12.552  23.379  0.00  0.00    +0.000 C 
ATOM      2  C   UNL     1      -3.982  12.900  24.276  0.00  0.00    +0.000 C 
ATOM      3  C   UNL     1      -5.375  12.290  24.349  0.00  0.00    +0.000 C 
ATOM      4  N   UNL     1      -6.267  13.149  23.558  0.00  0.00    +0.000 N 
ATOM      5  C   UNL     1      -6.918  14.250  24.063  0.00  0.00    +0.000 A 
ATOM      6  C   UNL     1      -6.931  15.204  23.066  0.00  0.00    +0.000 A 
ATOM      7  C   UNL     1      -6.360  14.623  21.898  0.00  0.00    +0.000 A 
ATOM      8  C   UNL     1      -5.972  15.115  20.640  0.00  0.00    +0.000 A 
ATOM      9  C   UNL     1      -5.388  14.240  19.709  0.00  0.00    +0.000 A 
ATOM     10  C   UNL     1      -5.245  12.871  19.973  0.00  0.00    +0.000 A 
ATOM     11  C   UNL     1      -5.634  12.377  21.229  0.00  0.00    +0.000 A 
ATOM     12  C   UNL     1      -6.130  13.280  22.183  0.00  0.00    +0.000 A 
ATOM     13  C   UNL     1      -4.598  11.979  19.005  0.00  0.00    +0.000 A 
ATOM     14  C   UNL     1      -5.196  10.838  18.521  0.00  0.00    +0.000 A 
ATOM     15  C   UNL     1      -4.421  10.066  17.692  0.00  0.00    +0.000 A 
ATOM     16  N   UNL     1      -3.143  10.347  17.382  0.00  0.00    +0.000 NA
ATOM     17  C   UNL     1      -2.636  11.473  17.906  0.00  0.00    +0.000 A 
ATOM     18  N   UNL     1      -3.344  12.318  18.665  0.00  0.00    +0.000 NA
ATOM     19  N   UNL     1      -1.261  11.694  17.714  0.00  0.00    +0.000 N 
ATOM     20  C   UNL     1      -0.504  12.472  18.608  0.00  0.00    +0.000 A 
ATOM     21  C   UNL     1       0.343  11.865  19.539  0.00  0.00    +0.000 A 
ATOM     22  C   UNL     1       1.113  12.660  20.383  0.00  0.00    +0.000 A 
ATOM     23  C   UNL     1       0.916  14.041  20.380  0.00  0.00    +0.000 A 
ATOM     24  C   UNL     1      -0.295  14.500  19.881  0.00  0.00    +0.000 A 
ATOM     25  C   UNL     1      -0.743  13.846  18.727  0.00  0.00    +0.000 A 
ATOM     26  C   UNL     1      -1.412  14.662  20.965  0.00  0.00    +0.000 C 
ATOM     27  O   UNL     1      -1.726  13.393  21.572  0.00  0.00    +0.000 OA
ATOM     28  C   UNL     1      -1.852  13.400  22.990  0.00  0.00    +0.000 C 
ATOM     29  H   UNL     1      -0.865  10.785  17.506  0.00  0.00    +0.000 HD
ENDROOT
BRANCH  23  30
ATOM     30  O   UNL     1       1.914  14.959  20.660  0.00  0.00    +0.000 OA
BRANCH  30  31
ATOM     31  C   UNL     1       1.529  16.260  20.170  0.00  0.00    +0.000 C 
BRANCH  31  32
ATOM     32  C   UNL     1       2.278  16.799  18.936  0.00  0.00    +0.000 C 
BRANCH  32  33
ATOM     33  N   UNL     1       1.599  18.037  18.482  0.00  0.00    +0.000 NA
ATOM     34  C   UNL     1       0.275  18.260  19.064  0.00  0.00    +0.000 C 
ATOM     35  C   UNL     1      -0.710  17.924  17.964  0.00  0.00    +0.000 C 
ATOM     36  C   UNL     1       0.001  18.422  16.724  0.00  0.00    +0.000 C 
ATOM     37  C   UNL     1       1.461  18.121  17.014  0.00  0.00    +0.000 C 
ENDBRANCH  32  33
ENDBRANCH  31  32
ENDBRANCH  30  31
ENDBRANCH  23  30
TORSDOF 4
ENDMDL
MODEL 4
REMARK VINA RESULT:      -6.5      7.283     11.837
REMARK  Name = 
REMARK  4 active torsions:
REMARK  status: ('A' for Active; 'I' for Inactive)
REMARK    1  A    between atoms: C_23  and  O_24
REMARK    2  A    between atoms: O_24  and  C_25
REMARK    3  A    between atoms: C_25  and  C_26
REMARK    4  A    between atoms: C_26  and  N_27
REMARK                            x       y       z     vdW  Elec       q    Type
REMARK                         _______ _______ _______ _____ _____    ______ ____
ROOT
ATOM      1  C   UNL     1      -5.281  13.382  19.892  0.00  0.00    +0.000 C 
ATOM      2  C   UNL     1      -6.514  13.152  20.372  0.00  0.00    +0.000 C 
ATOM      3  C   UNL     1      -7.317  14.145  21.202  0.00  0.00    +0.000 C 
ATOM      4  N   UNL     1      -7.056  13.842  22.616  0.00  0.00    +0.000 N 
ATOM      5  C   UNL     1      -7.773  12.924  23.348  0.00  0.00    +0.000 A 
ATOM      6  C   UNL     1      -6.880  12.298  24.194  0.00  0.00    +0.000 A 
ATOM      7  C   UNL     1      -5.612  12.925  24.035  0.00  0.00    +0.000 A 
ATOM      8  C   UNL     1      -4.311  12.654  24.494  0.00  0.00    +0.000 A 
ATOM      9  C   UNL     1      -3.254  13.489  24.099  0.00  0.00    +0.000 A 
ATOM     10  C   UNL     1      -3.469  14.630  23.314  0.00  0.00    +0.000 A 
ATOM     11  C   UNL     1      -4.768  14.904  22.856  0.00  0.00    +0.000 A 
ATOM     12  C   UNL     1      -5.799  14.010  23.182  0.00  0.00    +0.000 A 
ATOM     13  C   UNL     1      -2.348  15.470  22.878  0.00  0.00    +0.000 A 
ATOM     14  C   UNL     1      -2.290  16.825  23.113  0.00  0.00    +0.000 A 
ATOM     15  C   UNL     1      -1.217  17.478  22.561  0.00  0.00    +0.000 A 
ATOM     16  N   UNL     1      -0.285  16.882  21.798  0.00  0.00    +0.000 NA
ATOM     17  C   UNL     1      -0.424  15.560  21.611  0.00  0.00    +0.000 A 
ATOM     18  N   UNL     1      -1.399  14.834  22.171  0.00  0.00    +0.000 NA
ATOM     19  N   UNL     1       0.454  14.957  20.693  0.00  0.00    +0.000 N 
ATOM     20  C   UNL     1       0.108  13.783  20.000  0.00  0.00    +0.000 A 
ATOM     21  C   UNL     1      -0.285  13.837  18.660  0.00  0.00    +0.000 A 
ATOM     22  C   UNL     1      -0.579  12.655  17.986  0.00  0.00    +0.000 A 
ATOM     23  C   UNL     1      -0.615  11.458  18.700  0.00  0.00    +0.000 A 
ATOM     24  C   UNL     1      -0.785  11.553  20.074  0.00  0.00    +0.000 A 
ATOM     25  C   UNL     1      -0.054  12.576  20.689  0.00  0.00    +0.000 A 
ATOM     26  C   UNL     1      -2.279  11.506  20.538  0.00  0.00    +0.000 C 
ATOM     27  O   UNL     1      -3.018  12.621  20.001  0.00  0.00    +0.000 OA
ATOM     28  C   UNL     1      -4.299  12.313  19.462  0.00  0.00    +0.000 C 
ATOM     29  H   UNL     1       0.794  15.709  20.106  0.00  0.00    +0.000 HD
ENDROOT
BRANCH  23  30
ATOM     30  O   UNL     1      -0.304  10.227  18.150  0.00  0.00    +0.000 OA
BRANCH  30  31
ATOM     31  C   UNL     1       0.970   9.776  18.655  0.00  0.00    +0.000 C 
BRANCH  31  32
ATOM     32  C   UNL     1       1.816   8.874  17.735  0.00  0.00    +0.000 C 
BRANCH  32  33
ATOM     33  N   UNL     1       2.694   8.033  18.584  0.00  0.00    +0.000 NA
ATOM     34  C   UNL     1       3.248   6.855  17.917  0.00  0.00    +0.000 C 
ATOM     35  C   UNL     1       2.459   5.679  18.456  0.00  0.00    +0.000 C 
ATOM     36  C   UNL     1       2.233   6.071  19.900  0.00  0.00    +0.000 C 
ATOM     37  C   UNL     1       2.041   7.577  19.827  0.00  0.00    +0.000 C 
ENDBRANCH  32  33
ENDBRANCH  31  32
ENDBRANCH  30  31
ENDBRANCH  23  30
TORSDOF 4
ENDMDL
MODEL 5
REMARK VINA RESULT:      -6.4      6.202      9.246
REMARK  Name = 
REMARK  4 active torsions:
REMARK  status: ('A' for Active; 'I' for Inactive)
REMARK    1  A    between atoms: C_23  and  O_24
REMARK    2  A    between atoms: O_24  and  C_25
REMARK    3  A    between atoms: C_25  and  C_26
REMARK    4  A    between atoms: C_26  and  N_27
REMARK                            x       y       z     vdW  Elec       q    Type
REMARK                         _______ _______ _______ _____ _____    ______ ____
ROOT
ATOM      1  C   UNL     1      -0.673  10.859  22.894  0.00  0.00    +0.000 C 
ATOM      2  C   UNL     1      -0.403   9.767  22.159  0.00  0.00    +0.000 C 
ATOM      3  C   UNL     1       0.980   9.396  21.640  0.00  0.00    +0.000 C 
ATOM      4  N   UNL     1       1.098   9.948  20.283  0.00  0.00    +0.000 N 
ATOM      5  C   UNL     1       0.690   9.285  19.148  0.00  0.00    +0.000 A 
ATOM      6  C   UNL     1       0.164  10.234  18.295  0.00  0.00    +0.000 A 
ATOM      7  C   UNL     1       0.351  11.512  18.893  0.00  0.00    +0.000 A 
ATOM      8  C   UNL     1      -0.085  12.815  18.596  0.00  0.00    +0.000 A 
ATOM      9  C   UNL     1       0.268  13.872  19.451  0.00  0.00    +0.000 A 
ATOM     10  C   UNL     1       1.105  13.676  20.558  0.00  0.00    +0.000 A 
ATOM     11  C   UNL     1       1.544  12.375  20.856  0.00  0.00    +0.000 A 
ATOM     12  C   UNL     1       1.107  11.315  20.046  0.00  0.00    +0.000 A 
ATOM     13  C   UNL     1       1.432  14.783  21.462  0.00  0.00    +0.000 A 
ATOM     14  C   UNL     1       2.725  15.145  21.768  0.00  0.00    +0.000 A 
ATOM     15  C   UNL     1       2.858  16.143  22.700  0.00  0.00    +0.000 A 
ATOM     16  N   UNL     1       1.824  16.726  23.330  0.00  0.00    +0.000 NA
ATOM     17  C   UNL     1       0.598  16.306  22.979  0.00  0.00    +0.000 A 
ATOM     18  N   UNL     1       0.376  15.389  22.029  0.00  0.00    +0.000 NA
ATOM     19  N   UNL     1      -0.478  16.797  23.738  0.00  0.00    +0.000 N 
ATOM     20  C   UNL     1      -1.680  16.080  23.868  0.00  0.00    +0.000 A 
ATOM     21  C   UNL     1      -1.966  15.376  25.041  0.00  0.00    +0.000 A 
ATOM     22  C   UNL     1      -3.183  14.710  25.160  0.00  0.00    +0.000 A 
ATOM     23  C   UNL     1      -4.028  14.639  24.053  0.00  0.00    +0.000 A 
ATOM     24  C   UNL     1      -3.449  14.843  22.809  0.00  0.00    +0.000 A 
ATOM     25  C   UNL     1      -2.510  15.880  22.759  0.00  0.00    +0.000 A 
ATOM     26  C   UNL     1      -2.950  13.533  22.114  0.00  0.00    +0.000 C 
ATOM     27  O   UNL     1      -1.919  12.898  22.896  0.00  0.00    +0.000 OA
ATOM     28  C   UNL     1      -2.040  11.488  23.051  0.00  0.00    +0.000 C 
ATOM     29  H   UNL     1      -0.075  17.108  24.614  0.00  0.00    +0.000 HD
ENDROOT
BRANCH  23  30
ATOM     30  O   UNL     1      -5.408  14.571  24.144  0.00  0.00    +0.000 OA
BRANCH  30  31
ATOM     31  C   UNL     1      -5.988  14.688  22.829  0.00  0.00    +0.000 C 
BRANCH  31  32
ATOM     32  C   UNL     1      -7.244  13.844  22.535  0.00  0.00    +0.000 C 
BRANCH  32  33
ATOM     33  N   UNL     1      -6.817  12.453  22.255  0.00  0.00    +0.000 NA
ATOM     34  C   UNL     1      -6.176  12.257  20.953  0.00  0.00    +0.000 C 
ATOM     35  C   UNL     1      -7.216  11.570  20.092  0.00  0.00    +0.000 C 
ATOM     36  C   UNL     1      -7.910  10.658  21.081  0.00  0.00    +0.000 C 
ATOM     37  C   UNL     1      -7.916  11.472  22.363  0.00  0.00    +0.000 C 
ENDBRANCH  32  33
ENDBRANCH  31  32
ENDBRANCH  30  31
ENDBRANCH  23  30
TORSDOF 4
ENDMDL
MODEL 6
REMARK VINA RESULT:      -6.4      5.198     11.621
REMARK  Name = 
REMARK  4 active torsions:
REMARK  status: ('A' for Active; 'I' for Inactive)
REMARK    1  A    between atoms: C_23  and  O_24
REMARK    2  A    between atoms: O_24  and  C_25
REMARK    3  A    between atoms: C_25  and  C_26
REMARK    4  A    between atoms: C_26  and  N_27
REMARK                            x       y       z     vdW  Elec       q    Type
REMARK                         _______ _______ _______ _____ _____    ______ ____
ROOT
ATOM      1  C   UNL     1      -3.408  12.277  23.644  0.00  0.00    +0.000 C 
ATOM      2  C   UNL     1      -4.397  12.648  24.475  0.00  0.00    +0.000 C 
ATOM      3  C   UNL     1      -5.841  12.175  24.365  0.00  0.00    +0.000 C 
ATOM      4  N   UNL     1      -6.566  13.174  23.568  0.00  0.00    +0.000 N 
ATOM      5  C   UNL     1      -7.162  14.294  24.101  0.00  0.00    +0.000 A 
ATOM      6  C   UNL     1      -6.986  15.316  23.190  0.00  0.00    +0.000 A 
ATOM      7  C   UNL     1      -6.354  14.770  22.037  0.00  0.00    +0.000 A 
ATOM      8  C   UNL     1      -5.797  15.313  20.866  0.00  0.00    +0.000 A 
ATOM      9  C   UNL     1      -5.204  14.457  19.924  0.00  0.00    +0.000 A 
ATOM     10  C   UNL     1      -5.214  13.065  20.084  0.00  0.00    +0.000 A 
ATOM     11  C   UNL     1      -5.772  12.520  21.253  0.00  0.00    +0.000 A 
ATOM     12  C   UNL     1      -6.278  13.394  22.228  0.00  0.00    +0.000 A 
ATOM     13  C   UNL     1      -4.556  12.188  19.111  0.00  0.00    +0.000 A 
ATOM     14  C   UNL     1      -5.202  11.150  18.478  0.00  0.00    +0.000 A 
ATOM     15  C   UNL     1      -4.421  10.370  17.664  0.00  0.00    +0.000 A 
ATOM     16  N   UNL     1      -3.098  10.545  17.500  0.00  0.00    +0.000 NA
ATOM     17  C   UNL     1      -2.546  11.574  18.162  0.00  0.00    +0.000 A 
ATOM     18  N   UNL     1      -3.247  12.426  18.920  0.00  0.00    +0.000 NA
ATOM     19  N   UNL     1      -1.144  11.671  18.120  0.00  0.00    +0.000 N 
ATOM     20  C   UNL     1      -0.415  12.302  19.144  0.00  0.00    +0.000 A 
ATOM     21  C   UNL     1       0.274  11.547  20.096  0.00  0.00    +0.000 A 
ATOM     22  C   UNL     1       1.024  12.197  21.073  0.00  0.00    +0.000 A 
ATOM     23  C   UNL     1       0.955  13.587  21.167  0.00  0.00    +0.000 A 
ATOM     24  C   UNL     1      -0.152  14.199  20.596  0.00  0.00    +0.000 A 
ATOM     25  C   UNL     1      -0.538  13.680  19.355  0.00  0.00    +0.000 A 
ATOM     26  C   UNL     1      -1.355  14.389  21.580  0.00  0.00    +0.000 C 
ATOM     27  O   UNL     1      -1.842  13.116  22.047  0.00  0.00    +0.000 OA
ATOM     28  C   UNL     1      -2.111  13.030  23.441  0.00  0.00    +0.000 C 
ATOM     29  H   UNL     1      -0.813  10.746  17.875  0.00  0.00    +0.000 HD
ENDROOT
BRANCH  23  30
ATOM     30  O   UNL     1       1.998  14.378  21.615  0.00  0.00    +0.000 OA
BRANCH  30  31
ATOM     31  C   UNL     1       3.254  13.827  21.169  0.00  0.00    +0.000 C 
BRANCH  31  32
ATOM     32  C   UNL     1       4.415  14.813  20.937  0.00  0.00    +0.000 C 
BRANCH  32  33
ATOM     33  N   UNL     1       4.396  15.229  19.514  0.00  0.00    +0.000 NA
ATOM     34  C   UNL     1       3.887  16.581  19.276  0.00  0.00    +0.000 C 
ATOM     35  C   UNL     1       2.495  16.393  18.710  0.00  0.00    +0.000 C 
ATOM     36  C   UNL     1       2.654  15.154  17.855  0.00  0.00    +0.000 C 
ATOM     37  C   UNL     1       3.637  14.308  18.646  0.00  0.00    +0.000 C 
ENDBRANCH  32  33
ENDBRANCH  31  32
ENDBRANCH  30  31
ENDBRANCH  23  30
TORSDOF 4
ENDMDL
MODEL 7
REMARK VINA RESULT:      -6.3      6.522     10.817
REMARK  Name = 
REMARK  4 active torsions:
REMARK  status: ('A' for Active; 'I' for Inactive)
REMARK    1  A    between atoms: C_23  and  O_24
REMARK    2  A    between atoms: O_24  and  C_25
REMARK    3  A    between atoms: C_25  and  C_26
REMARK    4  A    between atoms: C_26  and  N_27
REMARK                            x       y       z     vdW  Elec       q    Type
REMARK                         _______ _______ _______ _____ _____    ______ ____
ROOT
ATOM      1  C   UNL     1      -3.788  13.644  20.984  0.00  0.00    +0.000 C 
ATOM      2  C   UNL     1      -4.746  14.171  21.766  0.00  0.00    +0.000 C 
ATOM      3  C   UNL     1      -5.116  15.648  21.802  0.00  0.00    +0.000 C 
ATOM      4  N   UNL     1      -4.337  16.265  22.884  0.00  0.00    +0.000 N 
ATOM      5  C   UNL     1      -4.752  16.314  24.195  0.00  0.00    +0.000 A 
ATOM      6  C   UNL     1      -3.628  16.145  24.979  0.00  0.00    +0.000 A 
ATOM      7  C   UNL     1      -2.497  16.093  24.117  0.00  0.00    +0.000 A 
ATOM      8  C   UNL     1      -1.133  15.799  24.294  0.00  0.00    +0.000 A 
ATOM      9  C   UNL     1      -0.278  15.804  23.180  0.00  0.00    +0.000 A 
ATOM     10  C   UNL     1      -0.731  16.165  21.904  0.00  0.00    +0.000 A 
ATOM     11  C   UNL     1      -2.092  16.461  21.725  0.00  0.00    +0.000 A 
ATOM     12  C   UNL     1      -2.953  16.361  22.830  0.00  0.00    +0.000 A 
ATOM     13  C   UNL     1       0.167  16.128  20.745  0.00  0.00    +0.000 A 
ATOM     14  C   UNL     1       0.373  17.211  19.921  0.00  0.00    +0.000 A 
ATOM     15  C   UNL     1       1.174  16.984  18.830  0.00  0.00    +0.000 A 
ATOM     16  N   UNL     1       1.706  15.789  18.525  0.00  0.00    +0.000 NA
ATOM     17  C   UNL     1       1.446  14.785  19.377  0.00  0.00    +0.000 A 
ATOM     18  N   UNL     1       0.735  14.936  20.500  0.00  0.00    +0.000 NA
ATOM     19  N   UNL     1       1.868  13.502  18.986  0.00  0.00    +0.000 N 
ATOM     20  C   UNL     1       1.228  12.339  19.451  0.00  0.00    +0.000 A 
ATOM     21  C   UNL     1       0.346  11.635  18.627  0.00  0.00    +0.000 A 
ATOM     22  C   UNL     1      -0.241  10.463  19.096  0.00  0.00    +0.000 A 
ATOM     23  C   UNL     1      -0.049  10.094  20.428  0.00  0.00    +0.000 A 
ATOM     24  C   UNL     1       0.335  11.098  21.306  0.00  0.00    +0.000 A 
ATOM     25  C   UNL     1       1.294  11.987  20.803  0.00  0.00    +0.000 A 
ATOM     26  C   UNL     1      -0.860  11.823  22.010  0.00  0.00    +0.000 C 
ATOM     27  O   UNL     1      -1.699  12.485  21.044  0.00  0.00    +0.000 OA
ATOM     28  C   UNL     1      -3.101  12.316  21.222  0.00  0.00    +0.000 C 
ATOM     29  H   UNL     1       1.985  13.546  17.981  0.00  0.00    +0.000 HD
ENDROOT
BRANCH  23  30
ATOM     30  O   UNL     1      -0.032   8.782  20.866  0.00  0.00    +0.000 OA
BRANCH  30  31
ATOM     31  C   UNL     1       1.329   8.312  20.942  0.00  0.00    +0.000 C 
BRANCH  31  32
ATOM     32  C   UNL     1       1.986   7.835  19.631  0.00  0.00    +0.000 C 
BRANCH  32  33
ATOM     33  N   UNL     1       2.563   6.488  19.861  0.00  0.00    +0.000 NA
ATOM     34  C   UNL     1       2.989   5.788  18.648  0.00  0.00    +0.000 C 
ATOM     35  C   UNL     1       1.930   4.732  18.400  0.00  0.00    +0.000 C 
ATOM     36  C   UNL     1       1.566   4.298  19.803  0.00  0.00    +0.000 C 
ATOM     37  C   UNL     1       1.661   5.586  20.604  0.00  0.00    +0.000 C 
ENDBRANCH  32  33
ENDBRANCH  31  32
ENDBRANCH  30  31
ENDBRANCH  23  30
TORSDOF 4
ENDMDL
MODEL 8
REMARK VINA RESULT:      -6.3      5.154     11.685
REMARK  Name = 
REMARK  4 active torsions:
REMARK  status: ('A' for Active; 'I' for Inactive)
REMARK    1  A    between atoms: C_23  and  O_24
REMARK    2  A    between atoms: O_24  and  C_25
REMARK    3  A    between atoms: C_25  and  C_26
REMARK    4  A    between atoms: C_26  and  N_27
REMARK                            x       y       z     vdW  Elec       q    Type
REMARK                         _______ _______ _______ _____ _____    ______ ____
ROOT
ATOM      1  C   UNL     1      -3.167  12.325  23.527  0.00  0.00    +0.000 C 
ATOM      2  C   UNL     1      -4.102  12.730  24.402  0.00  0.00    +0.000 C 
ATOM      3  C   UNL     1      -5.551  12.261  24.397  0.00  0.00    +0.000 C 
ATOM      4  N   UNL     1      -6.320  13.235  23.611  0.00  0.00    +0.000 N 
ATOM      5  C   UNL     1      -6.879  14.376  24.138  0.00  0.00    +0.000 A 
ATOM      6  C   UNL     1      -6.756  15.364  23.182  0.00  0.00    +0.000 A 
ATOM      7  C   UNL     1      -6.198  14.774  22.013  0.00  0.00    +0.000 A 
ATOM      8  C   UNL     1      -5.711  15.272  20.791  0.00  0.00    +0.000 A 
ATOM      9  C   UNL     1      -5.179  14.379  19.847  0.00  0.00    +0.000 A 
ATOM     10  C   UNL     1      -5.183  12.994  20.058  0.00  0.00    +0.000 A 
ATOM     11  C   UNL     1      -5.670  12.494  21.276  0.00  0.00    +0.000 A 
ATOM     12  C   UNL     1      -6.114  13.404  22.248  0.00  0.00    +0.000 A 
ATOM     13  C   UNL     1      -4.588  12.079  19.078  0.00  0.00    +0.000 A 
ATOM     14  C   UNL     1      -5.275  11.023  18.524  0.00  0.00    +0.000 A 
ATOM     15  C   UNL     1      -4.546  10.210  17.693  0.00  0.00    +0.000 A 
ATOM     16  N   UNL     1      -3.236  10.372  17.442  0.00  0.00    +0.000 NA
ATOM     17  C   UNL     1      -2.641  11.421  18.032  0.00  0.00    +0.000 A 
ATOM     18  N   UNL     1      -3.293  12.303  18.800  0.00  0.00    +0.000 NA
ATOM     19  N   UNL     1      -1.244  11.510  17.902  0.00  0.00    +0.000 N 
ATOM     20  C   UNL     1      -0.452  12.173  18.856  0.00  0.00    +0.000 A 
ATOM     21  C   UNL     1       0.291  11.449  19.791  0.00  0.00    +0.000 A 
ATOM     22  C   UNL     1       1.101  12.130  20.696  0.00  0.00    +0.000 A 
ATOM     23  C   UNL     1       1.042  13.523  20.744  0.00  0.00    +0.000 A 
ATOM     24  C   UNL     1      -0.096  14.120  20.220  0.00  0.00    +0.000 A 
ATOM     25  C   UNL     1      -0.559  13.558  19.024  0.00  0.00    +0.000 A 
ATOM     26  C   UNL     1      -1.236  14.351  21.267  0.00  0.00    +0.000 C 
ATOM     27  O   UNL     1      -1.698  13.098  21.809  0.00  0.00    +0.000 OA
ATOM     28  C   UNL     1      -1.882  13.063  23.219  0.00  0.00    +0.000 C 
ATOM     29  H   UNL     1      -0.932  10.575  17.670  0.00  0.00    +0.000 HD
ENDROOT
BRANCH  23  30
ATOM     30  O   UNL     1       2.112  14.324  21.100  0.00  0.00    +0.000 OA
BRANCH  30  31
ATOM     31  C   UNL     1       3.164  14.194  20.121  0.00  0.00    +0.000 C 
BRANCH  31  32
ATOM     32  C   UNL     1       4.525  14.833  20.458  0.00  0.00    +0.000 C 
BRANCH  32  33
ATOM     33  N   UNL     1       4.999  15.578  19.267  0.00  0.00    +0.000 NA
ATOM     34  C   UNL     1       5.000  14.809  18.021  0.00  0.00    +0.000 C 
ATOM     35  C   UNL     1       6.453  14.473  17.757  0.00  0.00    +0.000 C 
ATOM     36  C   UNL     1       7.169  15.717  18.235  0.00  0.00    +0.000 C 
ATOM     37  C   UNL     1       6.348  16.153  19.437  0.00  0.00    +0.000 C 
ENDBRANCH  32  33
ENDBRANCH  31  32
ENDBRANCH  30  31
ENDBRANCH  23  30
TORSDOF 4
ENDMDL
MODEL 9
REMARK VINA RESULT:      -6.3      6.011     10.166
REMARK  Name = 
REMARK  4 active torsions:
REMARK  status: ('A' for Active; 'I' for Inactive)
REMARK    1  A    between atoms: C_23  and  O_24
REMARK    2  A    between atoms: O_24  and  C_25
REMARK    3  A    between atoms: C_25  and  C_26
REMARK    4  A    between atoms: C_26  and  N_27
REMARK                            x       y       z     vdW  Elec       q    Type
REMARK                         _______ _______ _______ _____ _____    ______ ____
ROOT
ATOM      1  C   UNL     1      -1.440  15.830  19.758  0.00  0.00    +0.000 C 
ATOM      2  C   UNL     1      -0.127  16.092  19.876  0.00  0.00    +0.000 C 
ATOM      3  C   UNL     1       0.921  15.741  18.829  0.00  0.00    +0.000 C 
ATOM      4  N   UNL     1       1.475  14.430  19.192  0.00  0.00    +0.000 N 
ATOM      5  C   UNL     1       2.535  14.257  20.053  0.00  0.00    +0.000 A 
ATOM      6  C   UNL     1       2.277  13.116  20.785  0.00  0.00    +0.000 A 
ATOM      7  C   UNL     1       1.079  12.535  20.283  0.00  0.00    +0.000 A 
ATOM      8  C   UNL     1       0.246  11.479  20.693  0.00  0.00    +0.000 A 
ATOM      9  C   UNL     1      -0.916  11.193  19.958  0.00  0.00    +0.000 A 
ATOM     10  C   UNL     1      -1.233  11.886  18.782  0.00  0.00    +0.000 A 
ATOM     11  C   UNL     1      -0.401  12.940  18.369  0.00  0.00    +0.000 A 
ATOM     12  C   UNL     1       0.706  13.275  19.164  0.00  0.00    +0.000 A 
ATOM     13  C   UNL     1      -2.470  11.601  18.047  0.00  0.00    +0.000 A 
ATOM     14  C   UNL     1      -2.490  11.271  16.711  0.00  0.00    +0.000 A 
ATOM     15  C   UNL     1      -3.735  11.122  16.154  0.00  0.00    +0.000 A 
ATOM     16  N   UNL     1      -4.885  11.319  16.821  0.00  0.00    +0.000 NA
ATOM     17  C   UNL     1      -4.774  11.649  18.117  0.00  0.00    +0.000 A 
ATOM     18  N   UNL     1      -3.602  11.745  18.757  0.00  0.00    +0.000 NA
ATOM     19  N   UNL     1      -5.961  12.007  18.781  0.00  0.00    +0.000 N 
ATOM     20  C   UNL     1      -5.955  12.862  19.897  0.00  0.00    +0.000 A 
ATOM     21  C   UNL     1      -6.341  14.199  19.771  0.00  0.00    +0.000 A 
ATOM     22  C   UNL     1      -6.369  15.013  20.900  0.00  0.00    +0.000 A 
ATOM     23  C   UNL     1      -5.873  14.516  22.106  0.00  0.00    +0.000 A 
ATOM     24  C   UNL     1      -5.004  13.437  22.028  0.00  0.00    +0.000 A 
ATOM     25  C   UNL     1      -5.366  12.454  21.099  0.00  0.00    +0.000 A 
ATOM     26  C   UNL     1      -3.494  13.838  21.938  0.00  0.00    +0.000 C 
ATOM     27  O   UNL     1      -3.236  14.600  20.742  0.00  0.00    +0.000 OA
ATOM     28  C   UNL     1      -2.421  15.754  20.908  0.00  0.00    +0.000 C 
ATOM     29  H   UNL     1      -6.613  12.268  18.052  0.00  0.00    +0.000 HD
ENDROOT
BRANCH  23  30
ATOM     30  O   UNL     1      -6.342  14.908  23.347  0.00  0.00    +0.000 OA
BRANCH  30  31
ATOM     31  C   UNL     1      -5.230  15.136  24.237  0.00  0.00    +0.000 C 
BRANCH  31  32
ATOM     32  C   UNL     1      -4.585  16.536  24.219  0.00  0.00    +0.000 C 
BRANCH  32  33
ATOM     33  N   UNL     1      -3.453  16.541  25.176  0.00  0.00    +0.000 NA
ATOM     34  C   UNL     1      -2.374  17.474  24.846  0.00  0.00    +0.000 C 
ATOM     35  C   UNL     1      -1.249  16.615  24.306  0.00  0.00    +0.000 C 
ATOM     36  C   UNL     1      -1.350  15.370  25.161  0.00  0.00    +0.000 C 
ATOM     37  C   UNL     1      -2.847  15.209  25.370  0.00  0.00    +0.000 C 
ENDBRANCH  32  33
ENDBRANCH  31  32
ENDBRANCH  30  31
ENDBRANCH  23  30
TORSDOF 4
ENDMDL
