MODEL 1
REMARK VINA RESULT:      -8.6      0.000      0.000
REMARK  Name = 
REMARK  3 active torsions:
REMARK  status: ('A' for Active; 'I' for Inactive)
REMARK    1  A    between atoms: C_2  and  C_20
REMARK    2  A    between atoms: N_3  and  C_4
REMARK    3  A    between atoms: N_10  and  C_11
REMARK                            x       y       z     vdW  Elec       q    Type
REMARK                         _______ _______ _______ _____ _____    ______ ____
ROOT
ATOM      1  C   UNL     1       5.711   5.025  17.922  0.00  0.00    +0.000 C 
ATOM      2  C   UNL     1       4.677   4.252  18.747  0.00  0.00    +0.000 C 
ATOM      3  C   UNL     1       3.250   4.718  18.484  0.00  0.00    +0.000 C 
ATOM      4  N   UNL     1       3.133   6.171  18.618  0.00  0.00    +0.000 N 
ATOM      5  C   UNL     1       2.260   6.665  19.577  0.00  0.00    +0.000 C 
ATOM      6  O   UNL     1       1.642   5.896  20.309  0.00  0.00    +0.000 OA
ATOM      7  N   UNL     1       2.126   8.037  19.630  0.00  0.00    +0.000 N 
ATOM      8  C   UNL     1       4.036   6.926  17.754  0.00  0.00    +0.000 C 
ATOM      9  C   UNL     1       5.486   6.540  18.029  0.00  0.00    +0.000 C 
ATOM     10  H   UNL     1       2.391   8.545  18.804  0.00  0.00    +0.000 HD
ENDROOT
BRANCH   7  11
ATOM     11  C   UNL     1       1.296   8.745  20.535  0.00  0.00    +0.000 A 
ATOM     12  C   UNL     1       1.418   8.641  21.926  0.00  0.00    +0.000 A 
ATOM     13  C   UNL     1       0.532   9.302  22.777  0.00  0.00    +0.000 A 
ATOM     14  C   UNL     1      -0.480  10.076  22.231  0.00  0.00    +0.000 A 
ATOM     15  F   UNL     1      -1.349  10.696  23.042  0.00  0.00    +0.000 F 
ATOM     16  C   UNL     1      -0.608  10.220  20.856  0.00  0.00    +0.000 A 
ATOM     17  C   UNL     1       0.288   9.563  20.004  0.00  0.00    +0.000 A 
ENDBRANCH   7  11
BRANCH   1  20
ATOM     18  O   UNL     1       7.589   5.900  16.051  0.00  0.00    +0.000 OA
ATOM     19  C   UNL     1       6.748   5.089  15.689  0.00  0.00    +0.000 C 
ATOM     20  N   UNL     1       5.771   4.582  16.528  0.00  0.00    +0.000 N 
ATOM     21  H   UNL     1       5.119   3.887  16.189  0.00  0.00    +0.000 HD
BRANCH  19  22
ATOM     22  C   UNL     1       6.777   4.606  14.286  0.00  0.00    +0.000 A 
ATOM     23  C   UNL     1       7.720   5.179  13.413  0.00  0.00    +0.000 A 
ATOM     24  C   UNL     1       7.733   4.840  12.060  0.00  0.00    +0.000 A 
ATOM     25  C   UNL     1       6.797   3.932  11.572  0.00  0.00    +0.000 A 
ATOM     26  C   UNL     1       5.865   3.371  12.441  0.00  0.00    +0.000 A 
ATOM     27  F   UNL     1       4.949   2.521  11.959  0.00  0.00    +0.000 F 
ATOM     28  C   UNL     1       5.842   3.694  13.796  0.00  0.00    +0.000 A 
ENDBRANCH  19  22
ENDBRANCH   1  20
TORSDOF 3
ENDMDL
MODEL 2
REMARK VINA RESULT:      -8.6      0.362      1.011
REMARK  Name = 
REMARK  3 active torsions:
REMARK  status: ('A' for Active; 'I' for Inactive)
REMARK    1  A    between atoms: C_2  and  C_20
REMARK    2  A    between atoms: N_3  and  C_4
REMARK    3  A    between atoms: N_10  and  C_11
REMARK                            x       y       z     vdW  Elec       q    Type
REMARK                         _______ _______ _______ _____ _____    ______ ____
ROOT
ATOM      1  C   UNL     1       5.594   5.439  17.818  0.00  0.00    +0.000 C 
ATOM      2  C   UNL     1       4.720   4.638  18.788  0.00  0.00    +0.000 C 
ATOM      3  C   UNL     1       3.235   4.941  18.625  0.00  0.00    +0.000 C 
ATOM      4  N   UNL     1       2.981   6.382  18.665  0.00  0.00    +0.000 N 
ATOM      5  C   UNL     1       2.146   6.865  19.663  0.00  0.00    +0.000 C 
ATOM      6  O   UNL     1       1.675   6.101  20.503  0.00  0.00    +0.000 OA
ATOM      7  N   UNL     1       1.875   8.218  19.630  0.00  0.00    +0.000 N 
ATOM      8  C   UNL     1       3.723   7.149  17.670  0.00  0.00    +0.000 C 
ATOM      9  C   UNL     1       5.224   6.929  17.836  0.00  0.00    +0.000 C 
ATOM     10  H   UNL     1       2.014   8.680  18.749  0.00  0.00    +0.000 HD
ENDROOT
BRANCH   7  11
ATOM     11  C   UNL     1       1.056   8.912  20.555  0.00  0.00    +0.000 A 
ATOM     12  C   UNL     1       0.060   9.815  20.166  0.00  0.00    +0.000 A 
ATOM     13  C   UNL     1      -0.674  10.528  21.115  0.00  0.00    +0.000 A 
ATOM     14  C   UNL     1      -0.413  10.331  22.461  0.00  0.00    +0.000 A 
ATOM     15  F   UNL     1      -1.098  11.029  23.378  0.00  0.00    +0.000 F 
ATOM     16  C   UNL     1       0.551   9.420  22.876  0.00  0.00    +0.000 A 
ATOM     17  C   UNL     1       1.279   8.699  21.923  0.00  0.00    +0.000 A 
ENDBRANCH   7  11
BRANCH   1  20
ATOM     18  O   UNL     1       7.551   5.923  15.885  0.00  0.00    +0.000 OA
ATOM     19  C   UNL     1       6.607   5.205  15.585  0.00  0.00    +0.000 C 
ATOM     20  N   UNL     1       5.581   4.893  16.459  0.00  0.00    +0.000 N 
ATOM     21  H   UNL     1       4.840   4.266  16.172  0.00  0.00    +0.000 HD
BRANCH  19  22
ATOM     22  C   UNL     1       6.558   4.623  14.220  0.00  0.00    +0.000 A 
ATOM     23  C   UNL     1       7.617   4.918  13.341  0.00  0.00    +0.000 A 
ATOM     24  C   UNL     1       7.582   4.483  12.016  0.00  0.00    +0.000 A 
ATOM     25  C   UNL     1       6.483   3.758  11.562  0.00  0.00    +0.000 A 
ATOM     26  C   UNL     1       5.438   3.473  12.437  0.00  0.00    +0.000 A 
ATOM     27  F   UNL     1       4.371   2.801  11.984  0.00  0.00    +0.000 F 
ATOM     28  C   UNL     1       5.460   3.893  13.765  0.00  0.00    +0.000 A 
ENDBRANCH  19  22
ENDBRANCH   1  20
TORSDOF 3
ENDMDL
MODEL 3
REMARK VINA RESULT:      -8.2      0.937      1.311
REMARK  Name = 
REMARK  3 active torsions:
REMARK  status: ('A' for Active; 'I' for Inactive)
REMARK    1  A    between atoms: C_2  and  C_20
REMARK    2  A    between atoms: N_3  and  C_4
REMARK    3  A    between atoms: N_10  and  C_11
REMARK                            x       y       z     vdW  Elec       q    Type
REMARK                         _______ _______ _______ _____ _____    ______ ____
ROOT
ATOM      1  C   UNL     1       5.471   5.330  17.334  0.00  0.00    +0.000 C 
ATOM      2  C   UNL     1       4.759   4.561  18.452  0.00  0.00    +0.000 C 
ATOM      3  C   UNL     1       3.257   4.816  18.475  0.00  0.00    +0.000 C 
ATOM      4  N   UNL     1       2.963   6.250  18.475  0.00  0.00    +0.000 N 
ATOM      5  C   UNL     1       2.252   6.765  19.551  0.00  0.00    +0.000 C 
ATOM      6  O   UNL     1       1.922   6.035  20.483  0.00  0.00    +0.000 OA
ATOM      7  N   UNL     1       1.936   8.106  19.486  0.00  0.00    +0.000 N 
ATOM      8  C   UNL     1       3.542   6.980  17.352  0.00  0.00    +0.000 C 
ATOM      9  C   UNL     1       5.057   6.808  17.327  0.00  0.00    +0.000 C 
ATOM     10  H   UNL     1       1.941   8.523  18.572  0.00  0.00    +0.000 HD
ENDROOT
BRANCH   7  11
ATOM     11  C   UNL     1       1.224   8.828  20.476  0.00  0.00    +0.000 A 
ATOM     12  C   UNL     1       1.449   8.669  21.849  0.00  0.00    +0.000 A 
ATOM     13  C   UNL     1       0.674   9.350  22.788  0.00  0.00    +0.000 A 
ATOM     14  C   UNL     1      -0.328  10.201  22.350  0.00  0.00    +0.000 A 
ATOM     15  F   UNL     1      -1.091  10.841  23.247  0.00  0.00    +0.000 F 
ATOM     16  C   UNL     1      -0.555  10.400  20.994  0.00  0.00    +0.000 A 
ATOM     17  C   UNL     1       0.229   9.722  20.054  0.00  0.00    +0.000 A 
ENDBRANCH   7  11
BRANCH   1  20
ATOM     18  O   UNL     1       7.351   5.409  15.271  0.00  0.00    +0.000 OA
ATOM     19  C   UNL     1       6.298   4.818  15.071  0.00  0.00    +0.000 C 
ATOM     20  N   UNL     1       5.296   4.710  16.019  0.00  0.00    +0.000 N 
ATOM     21  H   UNL     1       4.458   4.181  15.815  0.00  0.00    +0.000 HD
BRANCH  19  22
ATOM     22  C   UNL     1       6.082   4.167  13.754  0.00  0.00    +0.000 A 
ATOM     23  C   UNL     1       4.756   3.974  13.326  0.00  0.00    +0.000 A 
ATOM     24  C   UNL     1       4.485   3.281  12.146  0.00  0.00    +0.000 A 
ATOM     25  C   UNL     1       5.540   2.771  11.394  0.00  0.00    +0.000 A 
ATOM     26  C   UNL     1       6.850   2.962  11.826  0.00  0.00    +0.000 A 
ATOM     27  F   UNL     1       7.857   2.442  11.113  0.00  0.00    +0.000 F 
ATOM     28  C   UNL     1       7.138   3.658  12.998  0.00  0.00    +0.000 A 
ENDBRANCH  19  22
ENDBRANCH   1  20
TORSDOF 3
ENDMDL
MODEL 4
REMARK VINA RESULT:      -8.1      4.516      9.599
REMARK  Name = 
REMARK  3 active torsions:
REMARK  status: ('A' for Active; 'I' for Inactive)
REMARK    1  A    between atoms: C_2  and  C_20
REMARK    2  A    between atoms: N_3  and  C_4
REMARK    3  A    between atoms: N_10  and  C_11
REMARK                            x       y       z     vdW  Elec       q    Type
REMARK                         _______ _______ _______ _____ _____    ______ ____
ROOT
ATOM      1  C   UNL     1      -0.078  10.419  19.073  0.00  0.00    +0.000 C 
ATOM      2  C   UNL     1      -0.093   9.627  20.384  0.00  0.00    +0.000 C 
ATOM      3  C   UNL     1       1.260   9.005  20.709  0.00  0.00    +0.000 C 
ATOM      4  N   UNL     1       1.779   8.242  19.573  0.00  0.00    +0.000 N 
ATOM      5  C   UNL     1       2.016   6.887  19.758  0.00  0.00    +0.000 C 
ATOM      6  O   UNL     1       1.757   6.352  20.834  0.00  0.00    +0.000 OA
ATOM      7  N   UNL     1       2.567   6.213  18.688  0.00  0.00    +0.000 N 
ATOM      8  C   UNL     1       1.906   9.013  18.341  0.00  0.00    +0.000 C 
ATOM      9  C   UNL     1       0.557   9.602  17.938  0.00  0.00    +0.000 C 
ATOM     10  H   UNL     1       3.046   6.774  18.004  0.00  0.00    +0.000 HD
ENDROOT
BRANCH   7  11
ATOM     11  C   UNL     1       2.881   4.831  18.664  0.00  0.00    +0.000 A 
ATOM     12  C   UNL     1       4.001   4.290  19.307  0.00  0.00    +0.000 A 
ATOM     13  C   UNL     1       4.307   2.933  19.197  0.00  0.00    +0.000 A 
ATOM     14  C   UNL     1       3.485   2.112  18.442  0.00  0.00    +0.000 A 
ATOM     15  F   UNL     1       3.786   0.813  18.312  0.00  0.00    +0.000 F 
ATOM     16  C   UNL     1       2.353   2.617  17.815  0.00  0.00    +0.000 A 
ATOM     17  C   UNL     1       2.042   3.976  17.935  0.00  0.00    +0.000 A 
ENDBRANCH   7  11
BRANCH   1  20
ATOM     18  O   UNL     1      -1.029  12.769  17.902  0.00  0.00    +0.000 OA
ATOM     19  C   UNL     1      -0.012  12.831  18.580  0.00  0.00    +0.000 C 
ATOM     20  N   UNL     1       0.549  11.735  19.211  0.00  0.00    +0.000 N 
ATOM     21  H   UNL     1       1.371  11.846  19.790  0.00  0.00    +0.000 HD
BRANCH  19  22
ATOM     22  C   UNL     1       0.651  14.148  18.755  0.00  0.00    +0.000 A 
ATOM     23  C   UNL     1      -0.161  15.259  19.048  0.00  0.00    +0.000 A 
ATOM     24  C   UNL     1       0.388  16.539  19.127  0.00  0.00    +0.000 A 
ATOM     25  C   UNL     1       1.751  16.714  18.904  0.00  0.00    +0.000 A 
ATOM     26  C   UNL     1       2.548  15.610  18.611  0.00  0.00    +0.000 A 
ATOM     27  F   UNL     1       3.853  15.791  18.368  0.00  0.00    +0.000 F 
ATOM     28  C   UNL     1       2.017  14.325  18.536  0.00  0.00    +0.000 A 
ENDBRANCH  19  22
ENDBRANCH   1  20
TORSDOF 3
ENDMDL
MODEL 5
REMARK VINA RESULT:      -8.0      3.460     11.272
REMARK  Name = 
REMARK  3 active torsions:
REMARK  status: ('A' for Active; 'I' for Inactive)
REMARK    1  A    between atoms: C_2  and  C_20
REMARK    2  A    between atoms: N_3  and  C_4
REMARK    3  A    between atoms: N_10  and  C_11
REMARK                            x       y       z     vdW  Elec       q    Type
REMARK                         _______ _______ _______ _____ _____    ______ ____
ROOT
ATOM      1  C   UNL     1       0.613  11.436  20.963  0.00  0.00    +0.000 C 
ATOM      2  C   UNL     1       0.946  11.696  19.490  0.00  0.00    +0.000 C 
ATOM      3  C   UNL     1       0.550  10.535  18.586  0.00  0.00    +0.000 C 
ATOM      4  N   UNL     1       1.081   9.267  19.089  0.00  0.00    +0.000 N 
ATOM      5  C   UNL     1       1.946   8.556  18.269  0.00  0.00    +0.000 C 
ATOM      6  O   UNL     1       2.277   9.009  17.175  0.00  0.00    +0.000 OA
ATOM      7  N   UNL     1       2.375   7.335  18.746  0.00  0.00    +0.000 N 
ATOM      8  C   UNL     1       0.680   8.949  20.456  0.00  0.00    +0.000 C 
ATOM      9  C   UNL     1       1.116  10.057  21.411  0.00  0.00    +0.000 C 
ATOM     10  H   UNL     1       1.807   6.909  19.458  0.00  0.00    +0.000 HD
ENDROOT
BRANCH   7  11
ATOM     11  C   UNL     1       3.262   6.458  18.073  0.00  0.00    +0.000 A 
ATOM     12  C   UNL     1       4.467   6.880  17.500  0.00  0.00    +0.000 A 
ATOM     13  C   UNL     1       5.273   5.992  16.786  0.00  0.00    +0.000 A 
ATOM     14  C   UNL     1       4.872   4.673  16.651  0.00  0.00    +0.000 A 
ATOM     15  F   UNL     1       5.630   3.820  15.948  0.00  0.00    +0.000 F 
ATOM     16  C   UNL     1       3.695   4.220  17.233  0.00  0.00    +0.000 A 
ATOM     17  C   UNL     1       2.893   5.110  17.957  0.00  0.00    +0.000 A 
ENDBRANCH   7  11
BRANCH   1  20
ATOM     18  O   UNL     1      -0.379  12.850  23.157  0.00  0.00    +0.000 OA
ATOM     19  C   UNL     1      -1.182  12.341  22.387  0.00  0.00    +0.000 C 
ATOM     20  N   UNL     1      -0.807  11.621  21.266  0.00  0.00    +0.000 N 
ATOM     21  H   UNL     1      -1.511  11.250  20.641  0.00  0.00    +0.000 HD
BRANCH  19  22
ATOM     22  C   UNL     1      -2.633  12.511  22.650  0.00  0.00    +0.000 A 
ATOM     23  C   UNL     1      -3.422  13.084  21.636  0.00  0.00    +0.000 A 
ATOM     24  C   UNL     1      -4.771  13.362  21.858  0.00  0.00    +0.000 A 
ATOM     25  C   UNL     1      -5.334  13.075  23.098  0.00  0.00    +0.000 A 
ATOM     26  C   UNL     1      -4.546  12.512  24.098  0.00  0.00    +0.000 A 
ATOM     27  F   UNL     1      -5.088  12.267  25.299  0.00  0.00    +0.000 F 
ATOM     28  C   UNL     1      -3.199  12.222  23.891  0.00  0.00    +0.000 A 
ENDBRANCH  19  22
ENDBRANCH   1  20
TORSDOF 3
ENDMDL
MODEL 6
REMARK VINA RESULT:      -8.0      4.477      9.729
REMARK  Name = 
REMARK  3 active torsions:
REMARK  status: ('A' for Active; 'I' for Inactive)
REMARK    1  A    between atoms: C_2  and  C_20
REMARK    2  A    between atoms: N_3  and  C_4
REMARK    3  A    between atoms: N_10  and  C_11
REMARK                            x       y       z     vdW  Elec       q    Type
REMARK                         _______ _______ _______ _____ _____    ______ ____
ROOT
ATOM      1  C   UNL     1      -0.010  10.380  18.963  0.00  0.00    +0.000 C 
ATOM      2  C   UNL     1      -0.074   9.596  20.278  0.00  0.00    +0.000 C 
ATOM      3  C   UNL     1       1.263   8.967  20.652  0.00  0.00    +0.000 C 
ATOM      4  N   UNL     1       1.815   8.194  19.538  0.00  0.00    +0.000 N 
ATOM      5  C   UNL     1       2.037   6.838  19.738  0.00  0.00    +0.000 C 
ATOM      6  O   UNL     1       1.737   6.311  20.808  0.00  0.00    +0.000 OA
ATOM      7  N   UNL     1       2.618   6.155  18.691  0.00  0.00    +0.000 N 
ATOM      8  C   UNL     1       1.988   8.958  18.307  0.00  0.00    +0.000 C 
ATOM      9  C   UNL     1       0.658   9.553  17.856  0.00  0.00    +0.000 C 
ATOM     10  H   UNL     1       3.123   6.709  18.021  0.00  0.00    +0.000 HD
ENDROOT
BRANCH   7  11
ATOM     11  C   UNL     1       2.924   4.771  18.685  0.00  0.00    +0.000 A 
ATOM     12  C   UNL     1       4.044   4.232  19.330  0.00  0.00    +0.000 A 
ATOM     13  C   UNL     1       4.341   2.872  19.237  0.00  0.00    +0.000 A 
ATOM     14  C   UNL     1       3.510   2.046  18.498  0.00  0.00    +0.000 A 
ATOM     15  F   UNL     1       3.802   0.743  18.386  0.00  0.00    +0.000 F 
ATOM     16  C   UNL     1       2.377   2.548  17.871  0.00  0.00    +0.000 A 
ATOM     17  C   UNL     1       2.075   3.911  17.973  0.00  0.00    +0.000 A 
ENDBRANCH   7  11
BRANCH   1  20
ATOM     18  O   UNL     1      -1.036  12.771  17.948  0.00  0.00    +0.000 OA
ATOM     19  C   UNL     1       0.019  12.811  18.565  0.00  0.00    +0.000 C 
ATOM     20  N   UNL     1       0.621  11.693  19.116  0.00  0.00    +0.000 N 
ATOM     21  H   UNL     1       1.477  11.785  19.648  0.00  0.00    +0.000 HD
BRANCH  19  22
ATOM     22  C   UNL     1       0.688  14.123  18.752  0.00  0.00    +0.000 A 
ATOM     23  C   UNL     1       2.095  14.144  18.795  0.00  0.00    +0.000 A 
ATOM     24  C   UNL     1       2.780  15.328  19.066  0.00  0.00    +0.000 A 
ATOM     25  C   UNL     1       2.060  16.496  19.304  0.00  0.00    +0.000 A 
ATOM     26  C   UNL     1       0.668  16.467  19.264  0.00  0.00    +0.000 A 
ATOM     27  F   UNL     1      -0.017  17.588  19.524  0.00  0.00    +0.000 F 
ATOM     28  C   UNL     1      -0.031  15.294  18.988  0.00  0.00    +0.000 A 
ENDBRANCH  19  22
ENDBRANCH   1  20
TORSDOF 3
ENDMDL
MODEL 7
REMARK VINA RESULT:      -7.9      3.601     11.266
REMARK  Name = 
REMARK  3 active torsions:
REMARK  status: ('A' for Active; 'I' for Inactive)
REMARK    1  A    between atoms: C_2  and  C_20
REMARK    2  A    between atoms: N_3  and  C_4
REMARK    3  A    between atoms: N_10  and  C_11
REMARK                            x       y       z     vdW  Elec       q    Type
REMARK                         _______ _______ _______ _____ _____    ______ ____
ROOT
ATOM      1  C   UNL     1       0.477  11.453  21.260  0.00  0.00    +0.000 C 
ATOM      2  C   UNL     1       0.891  11.806  19.827  0.00  0.00    +0.000 C 
ATOM      3  C   UNL     1       0.494  10.732  18.821  0.00  0.00    +0.000 C 
ATOM      4  N   UNL     1       0.952   9.409  19.250  0.00  0.00    +0.000 N 
ATOM      5  C   UNL     1       1.828   8.726  18.418  0.00  0.00    +0.000 C 
ATOM      6  O   UNL     1       2.229   9.244  17.379  0.00  0.00    +0.000 OA
ATOM      7  N   UNL     1       2.187   7.456  18.822  0.00  0.00    +0.000 N 
ATOM      8  C   UNL     1       0.474   9.009  20.570  0.00  0.00    +0.000 C 
ATOM      9  C   UNL     1       0.905  10.024  21.624  0.00  0.00    +0.000 C 
ATOM     10  H   UNL     1       1.569   7.003  19.472  0.00  0.00    +0.000 HD
ENDROOT
BRANCH   7  11
ATOM     11  C   UNL     1       3.070   6.594  18.125  0.00  0.00    +0.000 A 
ATOM     12  C   UNL     1       4.227   7.046  17.479  0.00  0.00    +0.000 A 
ATOM     13  C   UNL     1       5.029   6.170  16.746  0.00  0.00    +0.000 A 
ATOM     14  C   UNL     1       4.673   4.833  16.666  0.00  0.00    +0.000 A 
ATOM     15  F   UNL     1       5.426   3.990  15.945  0.00  0.00    +0.000 F 
ATOM     16  C   UNL     1       3.547   4.352  17.320  0.00  0.00    +0.000 A 
ATOM     17  C   UNL     1       2.749   5.231  18.062  0.00  0.00    +0.000 A 
ENDBRANCH   7  11
BRANCH   1  20
ATOM     18  O   UNL     1      -0.553  13.054  23.302  0.00  0.00    +0.000 OA
ATOM     19  C   UNL     1      -1.342  12.488  22.558  0.00  0.00    +0.000 C 
ATOM     20  N   UNL     1      -0.948  11.674  21.511  0.00  0.00    +0.000 N 
ATOM     21  H   UNL     1      -1.641  11.256  20.902  0.00  0.00    +0.000 HD
BRANCH  19  22
ATOM     22  C   UNL     1      -2.797  12.692  22.770  0.00  0.00    +0.000 A 
ATOM     23  C   UNL     1      -3.290  12.593  24.084  0.00  0.00    +0.000 A 
ATOM     24  C   UNL     1      -4.659  12.676  24.337  0.00  0.00    +0.000 A 
ATOM     25  C   UNL     1      -5.542  12.850  23.275  0.00  0.00    +0.000 A 
ATOM     26  C   UNL     1      -5.048  12.943  21.977  0.00  0.00    +0.000 A 
ATOM     27  F   UNL     1      -5.907  13.080  20.958  0.00  0.00    +0.000 F 
ATOM     28  C   UNL     1      -3.683  12.869  21.707  0.00  0.00    +0.000 A 
ENDBRANCH  19  22
ENDBRANCH   1  20
TORSDOF 3
ENDMDL
MODEL 8
REMARK VINA RESULT:      -7.7      5.163      7.242
REMARK  Name = 
REMARK  3 active torsions:
REMARK  status: ('A' for Active; 'I' for Inactive)
REMARK    1  A    between atoms: C_2  and  C_20
REMARK    2  A    between atoms: N_3  and  C_4
REMARK    3  A    between atoms: N_10  and  C_11
REMARK                            x       y       z     vdW  Elec       q    Type
REMARK                         _______ _______ _______ _____ _____    ______ ____
ROOT
ATOM      1  C   UNL     1       1.765   8.768  20.953  0.00  0.00    +0.000 C 
ATOM      2  C   UNL     1       1.588   9.292  22.382  0.00  0.00    +0.000 C 
ATOM      3  C   UNL     1       0.122   9.459  22.767  0.00  0.00    +0.000 C 
ATOM      4  N   UNL     1      -0.603  10.242  21.765  0.00  0.00    +0.000 N 
ATOM      5  C   UNL     1      -1.196  11.429  22.174  0.00  0.00    +0.000 C 
ATOM      6  O   UNL     1      -1.072  11.816  23.334  0.00  0.00    +0.000 OA
ATOM      7  N   UNL     1      -1.926  12.106  21.220  0.00  0.00    +0.000 N 
ATOM      8  C   UNL     1      -0.537   9.693  20.414  0.00  0.00    +0.000 C 
ATOM      9  C   UNL     1       0.913   9.569  19.958  0.00  0.00    +0.000 C 
ATOM     10  H   UNL     1      -2.246  11.565  20.435  0.00  0.00    +0.000 HD
ENDROOT
BRANCH   7  11
ATOM     11  C   UNL     1      -2.603  13.334  21.426  0.00  0.00    +0.000 A 
ATOM     12  C   UNL     1      -1.992  14.582  21.255  0.00  0.00    +0.000 A 
ATOM     13  C   UNL     1      -2.679  15.763  21.538  0.00  0.00    +0.000 A 
ATOM     14  C   UNL     1      -3.987  15.694  21.988  0.00  0.00    +0.000 A 
ATOM     15  F   UNL     1      -4.645  16.824  22.284  0.00  0.00    +0.000 F 
ATOM     16  C   UNL     1      -4.628  14.471  22.140  0.00  0.00    +0.000 A 
ATOM     17  C   UNL     1      -3.940  13.288  21.847  0.00  0.00    +0.000 A 
ENDBRANCH   7  11
BRANCH   1  20
ATOM     18  O   UNL     1       2.994   7.080  19.100  0.00  0.00    +0.000 OA
ATOM     19  C   UNL     1       2.188   6.592  19.880  0.00  0.00    +0.000 C 
ATOM     20  N   UNL     1       1.521   7.328  20.842  0.00  0.00    +0.000 N 
ATOM     21  H   UNL     1       0.888   6.871  21.487  0.00  0.00    +0.000 HD
BRANCH  19  22
ATOM     22  C   UNL     1       1.916   5.134  19.809  0.00  0.00    +0.000 A 
ATOM     23  C   UNL     1       1.758   4.556  18.535  0.00  0.00    +0.000 A 
ATOM     24  C   UNL     1       1.404   3.213  18.404  0.00  0.00    +0.000 A 
ATOM     25  C   UNL     1       1.199   2.445  19.547  0.00  0.00    +0.000 A 
ATOM     26  C   UNL     1       1.354   3.024  20.803  0.00  0.00    +0.000 A 
ATOM     27  F   UNL     1       1.125   2.286  21.897  0.00  0.00    +0.000 F 
ATOM     28  C   UNL     1       1.713   4.362  20.952  0.00  0.00    +0.000 A 
ENDBRANCH  19  22
ENDBRANCH   1  20
TORSDOF 3
ENDMDL
MODEL 9
REMARK VINA RESULT:      -7.6      4.673      6.928
REMARK  Name = 
REMARK  3 active torsions:
REMARK  status: ('A' for Active; 'I' for Inactive)
REMARK    1  A    between atoms: C_2  and  C_20
REMARK    2  A    between atoms: N_3  and  C_4
REMARK    3  A    between atoms: N_10  and  C_11
REMARK                            x       y       z     vdW  Elec       q    Type
REMARK                         _______ _______ _______ _____ _____    ______ ____
ROOT
ATOM      1  C   UNL     1       1.793   8.634  20.894  0.00  0.00    +0.000 C 
ATOM      2  C   UNL     1       1.589   9.100  22.339  0.00  0.00    +0.000 C 
ATOM      3  C   UNL     1       0.119   9.293  22.691  0.00  0.00    +0.000 C 
ATOM      4  N   UNL     1      -0.555  10.140  21.705  0.00  0.00    +0.000 N 
ATOM      5  C   UNL     1      -1.125  11.324  22.151  0.00  0.00    +0.000 C 
ATOM      6  O   UNL     1      -1.025  11.657  23.330  0.00  0.00    +0.000 OA
ATOM      7  N   UNL     1      -1.809  12.065  21.208  0.00  0.00    +0.000 N 
ATOM      8  C   UNL     1      -0.466   9.650  20.333  0.00  0.00    +0.000 C 
ATOM      9  C   UNL     1       0.993   9.503  19.913  0.00  0.00    +0.000 C 
ATOM     10  H   UNL     1      -2.121  11.569  20.392  0.00  0.00    +0.000 HD
ENDROOT
BRANCH   7  11
ATOM     11  C   UNL     1      -2.456  13.302  21.451  0.00  0.00    +0.000 A 
ATOM     12  C   UNL     1      -1.806  14.538  21.350  0.00  0.00    +0.000 A 
ATOM     13  C   UNL     1      -2.467  15.725  21.667  0.00  0.00    +0.000 A 
ATOM     14  C   UNL     1      -3.788  15.675  22.081  0.00  0.00    +0.000 A 
ATOM     15  F   UNL     1      -4.423  16.809  22.409  0.00  0.00    +0.000 F 
ATOM     16  C   UNL     1      -4.466  14.465  22.163  0.00  0.00    +0.000 A 
ATOM     17  C   UNL     1      -3.804  13.276  21.836  0.00  0.00    +0.000 A 
ENDBRANCH   7  11
BRANCH   1  20
ATOM     18  O   UNL     1       3.063   6.983  19.034  0.00  0.00    +0.000 OA
ATOM     19  C   UNL     1       2.204   6.491  19.753  0.00  0.00    +0.000 C 
ATOM     20  N   UNL     1       1.511   7.209  20.711  0.00  0.00    +0.000 N 
ATOM     21  H   UNL     1       0.834   6.746  21.304  0.00  0.00    +0.000 HD
BRANCH  19  22
ATOM     22  C   UNL     1       1.893   5.046  19.608  0.00  0.00    +0.000 A 
ATOM     23  C   UNL     1       1.404   4.363  20.736  0.00  0.00    +0.000 A 
ATOM     24  C   UNL     1       1.186   2.986  20.693  0.00  0.00    +0.000 A 
ATOM     25  C   UNL     1       1.465   2.285  19.523  0.00  0.00    +0.000 A 
ATOM     26  C   UNL     1       1.953   2.967  18.411  0.00  0.00    +0.000 A 
ATOM     27  F   UNL     1       2.247   2.281  17.299  0.00  0.00    +0.000 F 
ATOM     28  C   UNL     1       2.169   4.343  18.435  0.00  0.00    +0.000 A 
ENDBRANCH  19  22
ENDBRANCH   1  20
TORSDOF 3
ENDMDL
