MODEL 1
REMARK VINA RESULT:      -7.5      0.000      0.000
REMARK  Name = 
REMARK  2 active torsions:
REMARK  status: ('A' for Active; 'I' for Inactive)
REMARK    1  A    between atoms: N_4  and  C_5
REMARK    2  A    between atoms: C_5  and  C_6
REMARK                            x       y       z     vdW  Elec       q    Type
REMARK                         _______ _______ _______ _____ _____    ______ ____
ROOT
ATOM      1  C   UNL     1       3.718   4.953  17.562  0.00  0.00    +0.000 A 
ATOM      2  C   UNL     1       3.773   6.357  17.667  0.00  0.00    +0.000 A 
ATOM      3  C   UNL     1       2.992   7.035  18.595  0.00  0.00    +0.000 A 
ATOM      4  C   UNL     1       2.154   6.321  19.446  0.00  0.00    +0.000 A 
ATOM      5  C   UNL     1       2.065   4.922  19.366  0.00  0.00    +0.000 A 
ATOM      6  C   UNL     1       1.216   4.224  20.244  0.00  0.00    +0.000 A 
ATOM      7  C   UNL     1       1.102   2.838  20.179  0.00  0.00    +0.000 A 
ATOM      8  C   UNL     1       1.839   2.131  19.241  0.00  0.00    +0.000 A 
ATOM      9  C   UNL     1       2.704   2.807  18.378  0.00  0.00    +0.000 A 
ATOM     10  C   UNL     1       2.845   4.216  18.414  0.00  0.00    +0.000 A 
ENDROOT
BRANCH   1  11
ATOM     11  C   UNL     1       4.689   4.289  16.603  0.00  0.00    +0.000 C 
BRANCH  11  15
ATOM     12  N   UNL     1       7.171   5.589  16.073  0.00  0.00    +0.000 NA
ATOM     13  C   UNL     1       7.078   4.663  16.954  0.00  0.00    +0.000 C 
ATOM     14  N   UNL     1       8.127   4.210  17.666  0.00  0.00    +0.000 N 
ATOM     15  N   UNL     1       5.936   4.036  17.304  0.00  0.00    +0.000 N 
ATOM     16  H   UNL     1       8.138   5.892  15.992  0.00  0.00    +0.000 HD
ATOM     17  H   UNL     1       8.946   4.803  17.635  0.00  0.00    +0.000 HD
ATOM     18  H   UNL     1       7.878   3.992  18.624  0.00  0.00    +0.000 HD
ATOM     19  H   UNL     1       6.061   3.062  17.554  0.00  0.00    +0.000 HD
ENDBRANCH  11  15
ENDBRANCH   1  11
TORSDOF 2
ENDMDL
MODEL 2
REMARK VINA RESULT:      -7.3      1.430      2.024
REMARK  Name = 
REMARK  2 active torsions:
REMARK  status: ('A' for Active; 'I' for Inactive)
REMARK    1  A    between atoms: N_4  and  C_5
REMARK    2  A    between atoms: C_5  and  C_6
REMARK                            x       y       z     vdW  Elec       q    Type
REMARK                         _______ _______ _______ _____ _____    ______ ____
ROOT
ATOM      1  C   UNL     1       5.043   5.060  17.243  0.00  0.00    +0.000 A 
ATOM      2  C   UNL     1       4.985   6.467  17.273  0.00  0.00    +0.000 A 
ATOM      3  C   UNL     1       3.812   7.125  17.623  0.00  0.00    +0.000 A 
ATOM      4  C   UNL     1       2.681   6.389  17.965  0.00  0.00    +0.000 A 
ATOM      5  C   UNL     1       2.699   4.985  17.938  0.00  0.00    +0.000 A 
ATOM      6  C   UNL     1       1.545   4.266  18.295  0.00  0.00    +0.000 A 
ATOM      7  C   UNL     1       1.532   2.873  18.269  0.00  0.00    +0.000 A 
ATOM      8  C   UNL     1       2.673   2.183  17.890  0.00  0.00    +0.000 A 
ATOM      9  C   UNL     1       3.834   2.883  17.553  0.00  0.00    +0.000 A 
ATOM     10  C   UNL     1       3.884   4.299  17.569  0.00  0.00    +0.000 A 
ENDROOT
BRANCH   1  11
ATOM     11  C   UNL     1       6.394   4.427  16.963  0.00  0.00    +0.000 C 
BRANCH  11  15
ATOM     12  N   UNL     1       6.378   3.684  14.210  0.00  0.00    +0.000 NA
ATOM     13  C   UNL     1       7.024   4.713  14.620  0.00  0.00    +0.000 C 
ATOM     14  N   UNL     1       7.762   5.495  13.809  0.00  0.00    +0.000 N 
ATOM     15  N   UNL     1       7.041   5.164  15.891  0.00  0.00    +0.000 N 
ATOM     16  H   UNL     1       6.533   3.555  13.213  0.00  0.00    +0.000 HD
ATOM     17  H   UNL     1       7.587   5.364  12.822  0.00  0.00    +0.000 HD
ATOM     18  H   UNL     1       7.699   6.476  14.057  0.00  0.00    +0.000 HD
ATOM     19  H   UNL     1       7.922   5.579  16.169  0.00  0.00    +0.000 HD
ENDBRANCH  11  15
ENDBRANCH   1  11
TORSDOF 2
ENDMDL
MODEL 3
REMARK VINA RESULT:      -7.3      1.586      1.889
REMARK  Name = 
REMARK  2 active torsions:
REMARK  status: ('A' for Active; 'I' for Inactive)
REMARK    1  A    between atoms: N_4  and  C_5
REMARK    2  A    between atoms: C_5  and  C_6
REMARK                            x       y       z     vdW  Elec       q    Type
REMARK                         _______ _______ _______ _____ _____    ______ ____
ROOT
ATOM      1  C   UNL     1       4.839   5.327  17.449  0.00  0.00    +0.000 A 
ATOM      2  C   UNL     1       4.533   6.699  17.530  0.00  0.00    +0.000 A 
ATOM      3  C   UNL     1       3.237   7.127  17.793  0.00  0.00    +0.000 A 
ATOM      4  C   UNL     1       2.227   6.191  17.996  0.00  0.00    +0.000 A 
ATOM      5  C   UNL     1       2.493   4.814  17.915  0.00  0.00    +0.000 A 
ATOM      6  C   UNL     1       1.456   3.889  18.132  0.00  0.00    +0.000 A 
ATOM      7  C   UNL     1       1.690   2.519  18.048  0.00  0.00    +0.000 A 
ATOM      8  C   UNL     1       2.963   2.056  17.752  0.00  0.00    +0.000 A 
ATOM      9  C   UNL     1       4.008   2.961  17.555  0.00  0.00    +0.000 A 
ATOM     10  C   UNL     1       3.807   4.362  17.633  0.00  0.00    +0.000 A 
ENDROOT
BRANCH   1  11
ATOM     11  C   UNL     1       6.300   4.950  17.273  0.00  0.00    +0.000 C 
BRANCH  11  15
ATOM     12  N   UNL     1       8.013   6.847  18.537  0.00  0.00    +0.000 NA
ATOM     13  C   UNL     1       7.741   5.723  19.088  0.00  0.00    +0.000 C 
ATOM     14  N   UNL     1       8.257   5.334  20.270  0.00  0.00    +0.000 N 
ATOM     15  N   UNL     1       6.900   4.794  18.587  0.00  0.00    +0.000 N 
ATOM     16  H   UNL     1       8.676   7.362  19.112  0.00  0.00    +0.000 HD
ATOM     17  H   UNL     1       8.683   6.076  20.809  0.00  0.00    +0.000 HD
ATOM     18  H   UNL     1       7.587   4.821  20.833  0.00  0.00    +0.000 HD
ATOM     19  H   UNL     1       7.174   3.840  18.788  0.00  0.00    +0.000 HD
ENDBRANCH  11  15
ENDBRANCH   1  11
TORSDOF 2
ENDMDL
MODEL 4
REMARK VINA RESULT:      -7.2      0.812      1.161
REMARK  Name = 
REMARK  2 active torsions:
REMARK  status: ('A' for Active; 'I' for Inactive)
REMARK    1  A    between atoms: N_4  and  C_5
REMARK    2  A    between atoms: C_5  and  C_6
REMARK                            x       y       z     vdW  Elec       q    Type
REMARK                         _______ _______ _______ _____ _____    ______ ____
ROOT
ATOM      1  C   UNL     1       4.001   4.724  17.589  0.00  0.00    +0.000 A 
ATOM      2  C   UNL     1       4.135   6.089  17.272  0.00  0.00    +0.000 A 
ATOM      3  C   UNL     1       3.400   7.055  17.948  0.00  0.00    +0.000 A 
ATOM      4  C   UNL     1       2.530   6.675  18.966  0.00  0.00    +0.000 A 
ATOM      5  C   UNL     1       2.364   5.322  19.306  0.00  0.00    +0.000 A 
ATOM      6  C   UNL     1       1.484   4.966  20.344  0.00  0.00    +0.000 A 
ATOM      7  C   UNL     1       1.294   3.632  20.695  0.00  0.00    +0.000 A 
ATOM      8  C   UNL     1       1.983   2.638  20.017  0.00  0.00    +0.000 A 
ATOM      9  C   UNL     1       2.876   2.977  18.999  0.00  0.00    +0.000 A 
ATOM     10  C   UNL     1       3.096   4.323  18.615  0.00  0.00    +0.000 A 
ENDROOT
BRANCH   1  11
ATOM     11  C   UNL     1       4.926   3.751  16.880  0.00  0.00    +0.000 C 
BRANCH  11  15
ATOM     12  N   UNL     1       7.745   4.173  16.970  0.00  0.00    +0.000 NA
ATOM     13  C   UNL     1       7.024   4.676  16.037  0.00  0.00    +0.000 C 
ATOM     14  N   UNL     1       7.520   5.459  15.059  0.00  0.00    +0.000 N 
ATOM     15  N   UNL     1       5.697   4.482  15.889  0.00  0.00    +0.000 N 
ATOM     16  H   UNL     1       8.710   4.474  16.860  0.00  0.00    +0.000 HD
ATOM     17  H   UNL     1       8.527   5.433  14.967  0.00  0.00    +0.000 HD
ATOM     18  H   UNL     1       7.074   5.288  14.165  0.00  0.00    +0.000 HD
ATOM     19  H   UNL     1       5.204   5.283  15.513  0.00  0.00    +0.000 HD
ENDBRANCH  11  15
ENDBRANCH   1  11
TORSDOF 2
ENDMDL
MODEL 5
REMARK VINA RESULT:      -7.1      1.086      1.300
REMARK  Name = 
REMARK  2 active torsions:
REMARK  status: ('A' for Active; 'I' for Inactive)
REMARK    1  A    between atoms: N_4  and  C_5
REMARK    2  A    between atoms: C_5  and  C_6
REMARK                            x       y       z     vdW  Elec       q    Type
REMARK                         _______ _______ _______ _____ _____    ______ ____
ROOT
ATOM      1  C   UNL     1       3.766   4.722  17.349  0.00  0.00    +0.000 A 
ATOM      2  C   UNL     1       3.954   6.116  17.417  0.00  0.00    +0.000 A 
ATOM      3  C   UNL     1       3.251   6.889  18.334  0.00  0.00    +0.000 A 
ATOM      4  C   UNL     1       2.359   6.279  19.211  0.00  0.00    +0.000 A 
ATOM      5  C   UNL     1       2.138   4.893  19.168  0.00  0.00    +0.000 A 
ATOM      6  C   UNL     1       1.237   4.301  20.071  0.00  0.00    +0.000 A 
ATOM      7  C   UNL     1       0.993   2.930  20.044  0.00  0.00    +0.000 A 
ATOM      8  C   UNL     1       1.649   2.133  19.118  0.00  0.00    +0.000 A 
ATOM      9  C   UNL     1       2.563   2.703  18.230  0.00  0.00    +0.000 A 
ATOM     10  C   UNL     1       2.837   4.093  18.228  0.00  0.00    +0.000 A 
ENDROOT
BRANCH   1  11
ATOM     11  C   UNL     1       4.659   3.945  16.399  0.00  0.00    +0.000 C 
BRANCH  11  15
ATOM     12  N   UNL     1       6.295   3.607  14.088  0.00  0.00    +0.000 NA
ATOM     13  C   UNL     1       6.548   4.513  14.957  0.00  0.00    +0.000 C 
ATOM     14  N   UNL     1       7.605   5.344  14.874  0.00  0.00    +0.000 N 
ATOM     15  N   UNL     1       5.798   4.777  16.047  0.00  0.00    +0.000 N 
ATOM     16  H   UNL     1       7.013   3.609  13.368  0.00  0.00    +0.000 HD
ATOM     17  H   UNL     1       8.053   5.369  13.968  0.00  0.00    +0.000 HD
ATOM     18  H   UNL     1       7.384   6.282  15.191  0.00  0.00    +0.000 HD
ATOM     19  H   UNL     1       6.333   5.079  16.853  0.00  0.00    +0.000 HD
ENDBRANCH  11  15
ENDBRANCH   1  11
TORSDOF 2
ENDMDL
MODEL 6
REMARK VINA RESULT:      -7.0      0.828      2.667
REMARK  Name = 
REMARK  2 active torsions:
REMARK  status: ('A' for Active; 'I' for Inactive)
REMARK    1  A    between atoms: N_4  and  C_5
REMARK    2  A    between atoms: C_5  and  C_6
REMARK                            x       y       z     vdW  Elec       q    Type
REMARK                         _______ _______ _______ _____ _____    ______ ____
ROOT
ATOM      1  C   UNL     1       3.665   3.574  17.894  0.00  0.00    +0.000 A 
ATOM      2  C   UNL     1       3.292   2.218  17.830  0.00  0.00    +0.000 A 
ATOM      3  C   UNL     1       2.257   1.723  18.615  0.00  0.00    +0.000 A 
ATOM      4  C   UNL     1       1.565   2.580  19.466  0.00  0.00    +0.000 A 
ATOM      5  C   UNL     1       1.913   3.937  19.563  0.00  0.00    +0.000 A 
ATOM      6  C   UNL     1       1.192   4.783  20.425  0.00  0.00    +0.000 A 
ATOM      7  C   UNL     1       1.522   6.131  20.547  0.00  0.00    +0.000 A 
ATOM      8  C   UNL     1       2.573   6.651  19.807  0.00  0.00    +0.000 A 
ATOM      9  C   UNL     1       3.284   5.828  18.930  0.00  0.00    +0.000 A 
ATOM     10  C   UNL     1       2.976   4.454  18.780  0.00  0.00    +0.000 A 
ENDROOT
BRANCH   1  11
ATOM     11  C   UNL     1       4.727   4.050  16.919  0.00  0.00    +0.000 C 
BRANCH  11  15
ATOM     12  N   UNL     1       7.123   5.283  15.989  0.00  0.00    +0.000 NA
ATOM     13  C   UNL     1       7.120   4.529  17.024  0.00  0.00    +0.000 C 
ATOM     14  N   UNL     1       8.230   4.233  17.728  0.00  0.00    +0.000 N 
ATOM     15  N   UNL     1       6.026   3.952  17.563  0.00  0.00    +0.000 N 
ATOM     16  H   UNL     1       8.073   5.587  15.786  0.00  0.00    +0.000 HD
ATOM     17  H   UNL     1       9.025   4.827  17.533  0.00  0.00    +0.000 HD
ATOM     18  H   UNL     1       8.053   4.185  18.725  0.00  0.00    +0.000 HD
ATOM     19  H   UNL     1       6.199   3.041  17.971  0.00  0.00    +0.000 HD
ENDBRANCH  11  15
ENDBRANCH   1  11
TORSDOF 2
ENDMDL
MODEL 7
REMARK VINA RESULT:      -7.0      1.018      1.293
REMARK  Name = 
REMARK  2 active torsions:
REMARK  status: ('A' for Active; 'I' for Inactive)
REMARK    1  A    between atoms: N_4  and  C_5
REMARK    2  A    between atoms: C_5  and  C_6
REMARK                            x       y       z     vdW  Elec       q    Type
REMARK                         _______ _______ _______ _____ _____    ______ ____
ROOT
ATOM      1  C   UNL     1       3.288   5.750  18.181  0.00  0.00    +0.000 A 
ATOM      2  C   UNL     1       3.074   6.878  18.997  0.00  0.00    +0.000 A 
ATOM      3  C   UNL     1       2.206   6.821  20.080  0.00  0.00    +0.000 A 
ATOM      4  C   UNL     1       1.549   5.630  20.378  0.00  0.00    +0.000 A 
ATOM      5  C   UNL     1       1.731   4.487  19.584  0.00  0.00    +0.000 A 
ATOM      6  C   UNL     1       1.061   3.295  19.912  0.00  0.00    +0.000 A 
ATOM      7  C   UNL     1       1.216   2.149  19.135  0.00  0.00    +0.000 A 
ATOM      8  C   UNL     1       2.046   2.179  18.025  0.00  0.00    +0.000 A 
ATOM      9  C   UNL     1       2.736   3.349  17.699  0.00  0.00    +0.000 A 
ATOM     10  C   UNL     1       2.602   4.533  18.465  0.00  0.00    +0.000 A 
ENDROOT
BRANCH   1  11
ATOM     11  C   UNL     1       4.339   5.869  17.092  0.00  0.00    +0.000 C 
BRANCH  11  15
ATOM     12  N   UNL     1       6.049   3.728  16.304  0.00  0.00    +0.000 NA
ATOM     13  C   UNL     1       6.363   4.512  17.267  0.00  0.00    +0.000 C 
ATOM     14  N   UNL     1       7.487   4.376  17.996  0.00  0.00    +0.000 N 
ATOM     15  N   UNL     1       5.641   5.579  17.668  0.00  0.00    +0.000 N 
ATOM     16  H   UNL     1       6.755   3.002  16.207  0.00  0.00    +0.000 HD
ATOM     17  H   UNL     1       8.183   3.765  17.590  0.00  0.00    +0.000 HD
ATOM     18  H   UNL     1       7.896   5.270  18.245  0.00  0.00    +0.000 HD
ATOM     19  H   UNL     1       5.682   5.753  18.665  0.00  0.00    +0.000 HD
ENDBRANCH  11  15
ENDBRANCH   1  11
TORSDOF 2
ENDMDL
MODEL 8
REMARK VINA RESULT:      -7.0      1.391      1.643
REMARK  Name = 
REMARK  2 active torsions:
REMARK  status: ('A' for Active; 'I' for Inactive)
REMARK    1  A    between atoms: N_4  and  C_5
REMARK    2  A    between atoms: C_5  and  C_6
REMARK                            x       y       z     vdW  Elec       q    Type
REMARK                         _______ _______ _______ _____ _____    ______ ____
ROOT
ATOM      1  C   UNL     1       4.815   5.269  18.000  0.00  0.00    +0.000 A 
ATOM      2  C   UNL     1       4.582   6.532  17.422  0.00  0.00    +0.000 A 
ATOM      3  C   UNL     1       3.450   7.269  17.748  0.00  0.00    +0.000 A 
ATOM      4  C   UNL     1       2.538   6.763  18.671  0.00  0.00    +0.000 A 
ATOM      5  C   UNL     1       2.732   5.505  19.262  0.00  0.00    +0.000 A 
ATOM      6  C   UNL     1       1.800   5.021  20.197  0.00  0.00    +0.000 A 
ATOM      7  C   UNL     1       1.964   3.772  20.792  0.00  0.00    +0.000 A 
ATOM      8  C   UNL     1       3.063   2.994  20.463  0.00  0.00    +0.000 A 
ATOM      9  C   UNL     1       4.009   3.470  19.553  0.00  0.00    +0.000 A 
ATOM     10  C   UNL     1       3.876   4.734  18.929  0.00  0.00    +0.000 A 
ENDROOT
BRANCH   1  11
ATOM     11  C   UNL     1       6.133   4.589  17.675  0.00  0.00    +0.000 C 
BRANCH  11  15
ATOM     12  N   UNL     1       7.470   5.284  15.255  0.00  0.00    +0.000 NA
ATOM     13  C   UNL     1       6.629   4.319  15.298  0.00  0.00    +0.000 C 
ATOM     14  N   UNL     1       6.285   3.588  14.220  0.00  0.00    +0.000 N 
ATOM     15  N   UNL     1       5.994   3.890  16.408  0.00  0.00    +0.000 N 
ATOM     16  H   UNL     1       7.802   5.411  14.301  0.00  0.00    +0.000 HD
ATOM     17  H   UNL     1       6.903   3.689  13.426  0.00  0.00    +0.000 HD
ATOM     18  H   UNL     1       6.148   2.609  14.446  0.00  0.00    +0.000 HD
ATOM     19  H   UNL     1       5.053   3.553  16.241  0.00  0.00    +0.000 HD
ENDBRANCH  11  15
ENDBRANCH   1  11
TORSDOF 2
ENDMDL
MODEL 9
REMARK VINA RESULT:      -7.0      2.715      4.920
REMARK  Name = 
REMARK  2 active torsions:
REMARK  status: ('A' for Active; 'I' for Inactive)
REMARK    1  A    between atoms: N_4  and  C_5
REMARK    2  A    between atoms: C_5  and  C_6
REMARK                            x       y       z     vdW  Elec       q    Type
REMARK                         _______ _______ _______ _____ _____    ______ ____
ROOT
ATOM      1  C   UNL     1       2.993   4.617  18.064  0.00  0.00    +0.000 A 
ATOM      2  C   UNL     1       2.370   5.756  18.610  0.00  0.00    +0.000 A 
ATOM      3  C   UNL     1       2.815   7.034  18.295  0.00  0.00    +0.000 A 
ATOM      4  C   UNL     1       3.881   7.197  17.415  0.00  0.00    +0.000 A 
ATOM      5  C   UNL     1       4.533   6.085  16.857  0.00  0.00    +0.000 A 
ATOM      6  C   UNL     1       5.603   6.279  15.964  0.00  0.00    +0.000 A 
ATOM      7  C   UNL     1       6.272   5.194  15.404  0.00  0.00    +0.000 A 
ATOM      8  C   UNL     1       5.879   3.903  15.724  0.00  0.00    +0.000 A 
ATOM      9  C   UNL     1       4.804   3.695  16.591  0.00  0.00    +0.000 A 
ATOM     10  C   UNL     1       4.100   4.774  17.180  0.00  0.00    +0.000 A 
ENDROOT
BRANCH   1  11
ATOM     11  C   UNL     1       2.368   3.268  18.372  0.00  0.00    +0.000 C 
BRANCH  11  15
ATOM     12  N   UNL     1       0.534   3.126  20.550  0.00  0.00    +0.000 NA
ATOM     13  C   UNL     1       1.785   2.904  20.716  0.00  0.00    +0.000 C 
ATOM     14  N   UNL     1       2.334   2.625  21.914  0.00  0.00    +0.000 N 
ATOM     15  N   UNL     1       2.710   2.897  19.734  0.00  0.00    +0.000 N 
ATOM     16  H   UNL     1       0.053   3.078  21.445  0.00  0.00    +0.000 HD
ATOM     17  H   UNL     1       1.672   2.367  22.633  0.00  0.00    +0.000 HD
ATOM     18  H   UNL     1       3.077   1.938  21.846  0.00  0.00    +0.000 HD
ATOM     19  H   UNL     1       3.619   3.239  20.023  0.00  0.00    +0.000 HD
ENDBRANCH  11  15
ENDBRANCH   1  11
TORSDOF 2
ENDMDL
