MODEL 1
REMARK VINA RESULT:      -8.6      0.000      0.000
REMARK  Name = 
REMARK  9 active torsions:
REMARK  status: ('A' for Active; 'I' for Inactive)
REMARK    1  A    between atoms: C_1  and  C_2
REMARK    2  A    between atoms: C_2  and  N_3
REMARK    3  A    between atoms: N_3  and  C_4
REMARK    4  A    between atoms: C_4  and  C_5
REMARK    5  A    between atoms: C_5  and  C_6
REMARK    6  A    between atoms: C_8  and  C_9
REMARK    7  A    between atoms: C_18  and  C_20
REMARK    8  A    between atoms: C_22  and  C_23
REMARK    9  A    between atoms: C_26  and  N_27
REMARK                            x       y       z     vdW  Elec       q    Type
REMARK                         _______ _______ _______ _____ _____    ______ ____
ROOT
ATOM      1  N   UNL     1       4.025   5.052  18.170  0.00  0.00    +0.000 N 
ATOM      2  C   UNL     1       4.601   4.012  17.393  0.00  0.00    +0.000 C 
ATOM      3  O   UNL     1       4.377   2.822  17.604  0.00  0.00    +0.000 OA
ENDROOT
BRANCH   2   4
ATOM      4  C   UNL     1       5.428   4.346  16.195  0.00  0.00    +0.000 A 
ATOM      5  C   UNL     1       4.998   3.802  14.975  0.00  0.00    +0.000 A 
ATOM      6  C   UNL     1       5.664   4.042  13.770  0.00  0.00    +0.000 A 
ATOM      7  C   UNL     1       5.097   3.545  12.476  0.00  0.00    +0.000 C 
ATOM      8  C   UNL     1       6.874   4.730  13.802  0.00  0.00    +0.000 A 
ATOM      9  C   UNL     1       7.398   5.159  15.022  0.00  0.00    +0.000 A 
ATOM     10  C   UNL     1       6.677   4.986  16.224  0.00  0.00    +0.000 A 
BRANCH  10  11
ATOM     11  N   UNL     1       7.292   5.434  17.418  0.00  0.00    +0.000 N 
ATOM     12  N   UNL     1       7.539   4.563  18.446  0.00  0.00    +0.000 NA
ATOM     13  C   UNL     1       7.942   5.385  19.415  0.00  0.00    +0.000 A 
ATOM     14  C   UNL     1       8.085   6.677  18.906  0.00  0.00    +0.000 A 
ATOM     15  N   UNL     1       7.745   6.699  17.615  0.00  0.00    +0.000 NA
ENDBRANCH  10  11
ENDBRANCH   2   4
BRANCH   1  17
ATOM     16  C   UNL     1       1.806   4.415  19.231  0.00  0.00    +0.000 C 
ATOM     17  C   UNL     1       3.305   4.628  19.381  0.00  0.00    +0.000 C 
ENDBRANCH   1  17
BRANCH   1  18
ATOM     18  C   UNL     1       4.445   6.465  18.079  0.00  0.00    +0.000 C 
BRANCH  18  19
ATOM     19  C   UNL     1       3.588   7.313  17.121  0.00  0.00    +0.000 C 
BRANCH  19  20
ATOM     20  C   UNL     1       2.581   8.115  17.852  0.00  0.00    +0.000 A 
ATOM     21  C   UNL     1       2.061   8.029  19.116  0.00  0.00    +0.000 A 
ATOM     22  C   UNL     1       1.245   9.179  19.249  0.00  0.00    +0.000 A 
ATOM     23  N   UNL     1       1.194   9.856  18.090  0.00  0.00    +0.000 NA
ATOM     24  O   UNL     1       2.028   9.176  17.215  0.00  0.00    +0.000 OA
BRANCH  22  25
ATOM     25  C   UNL     1       0.607   9.629  20.486  0.00  0.00    +0.000 A 
ATOM     26  C   UNL     1       0.251   8.742  21.499  0.00  0.00    +0.000 A 
ATOM     27  C   UNL     1      -0.451   9.235  22.599  0.00  0.00    +0.000 A 
ATOM     28  C   UNL     1      -0.768  10.586  22.645  0.00  0.00    +0.000 A 
ATOM     29  F   UNL     1      -1.463  11.077  23.682  0.00  0.00    +0.000 F 
ATOM     30  C   UNL     1      -0.369  11.409  21.615  0.00  0.00    +0.000 A 
ATOM     31  N   UNL     1       0.312  10.959  20.536  0.00  0.00    +0.000 NA
ENDBRANCH  22  25
ENDBRANCH  19  20
ENDBRANCH  18  19
ENDBRANCH   1  18
TORSDOF 7
ENDMDL
MODEL 2
REMARK VINA RESULT:      -8.2      2.108      2.463
REMARK  Name = 
REMARK  9 active torsions:
REMARK  status: ('A' for Active; 'I' for Inactive)
REMARK    1  A    between atoms: C_1  and  C_2
REMARK    2  A    between atoms: C_2  and  N_3
REMARK    3  A    between atoms: N_3  and  C_4
REMARK    4  A    between atoms: C_4  and  C_5
REMARK    5  A    between atoms: C_5  and  C_6
REMARK    6  A    between atoms: C_8  and  C_9
REMARK    7  A    between atoms: C_18  and  C_20
REMARK    8  A    between atoms: C_22  and  C_23
REMARK    9  A    between atoms: C_26  and  N_27
REMARK                            x       y       z     vdW  Elec       q    Type
REMARK                         _______ _______ _______ _____ _____    ______ ____
ROOT
ATOM      1  N   UNL     1       3.611   5.005  17.396  0.00  0.00    +0.000 N 
ATOM      2  C   UNL     1       4.597   4.060  17.007  0.00  0.00    +0.000 C 
ATOM      3  O   UNL     1       4.714   2.961  17.545  0.00  0.00    +0.000 OA
ENDROOT
BRANCH   2   4
ATOM      4  C   UNL     1       5.469   4.335  15.827  0.00  0.00    +0.000 A 
ATOM      5  C   UNL     1       5.107   3.702  14.627  0.00  0.00    +0.000 A 
ATOM      6  C   UNL     1       5.822   3.879  13.439  0.00  0.00    +0.000 A 
ATOM      7  C   UNL     1       5.325   3.285  12.158  0.00  0.00    +0.000 C 
ATOM      8  C   UNL     1       7.015   4.596  13.479  0.00  0.00    +0.000 A 
ATOM      9  C   UNL     1       7.474   5.116  14.689  0.00  0.00    +0.000 A 
ATOM     10  C   UNL     1       6.703   5.005  15.868  0.00  0.00    +0.000 A 
BRANCH  10  11
ATOM     11  N   UNL     1       7.253   5.545  17.055  0.00  0.00    +0.000 N 
ATOM     12  N   UNL     1       7.552   4.734  18.117  0.00  0.00    +0.000 NA
ATOM     13  C   UNL     1       7.865   5.620  19.063  0.00  0.00    +0.000 A 
ATOM     14  C   UNL     1       7.907   6.901  18.511  0.00  0.00    +0.000 A 
ATOM     15  N   UNL     1       7.593   6.850  17.214  0.00  0.00    +0.000 NA
ENDBRANCH  10  11
ENDBRANCH   2   4
BRANCH   1  17
ATOM     16  C   UNL     1       1.460   4.133  18.428  0.00  0.00    +0.000 C 
ATOM     17  C   UNL     1       2.863   4.689  18.622  0.00  0.00    +0.000 C 
ENDBRANCH   1  17
BRANCH   1  18
ATOM     18  C   UNL     1       3.590   6.403  16.919  0.00  0.00    +0.000 C 
BRANCH  18  19
ATOM     19  C   UNL     1       3.902   7.442  18.012  0.00  0.00    +0.000 C 
BRANCH  19  20
ATOM     20  C   UNL     1       2.701   8.224  18.383  0.00  0.00    +0.000 A 
ATOM     21  C   UNL     1       1.923   9.117  17.696  0.00  0.00    +0.000 A 
ATOM     22  C   UNL     1       0.844   9.401  18.568  0.00  0.00    +0.000 A 
ATOM     23  N   UNL     1       1.025   8.796  19.753  0.00  0.00    +0.000 NA
ATOM     24  O   UNL     1       2.199   8.065  19.632  0.00  0.00    +0.000 OA
BRANCH  22  25
ATOM     25  C   UNL     1      -0.349  10.173  18.220  0.00  0.00    +0.000 A 
ATOM     26  C   UNL     1      -0.686  11.351  18.882  0.00  0.00    +0.000 A 
ATOM     27  C   UNL     1      -1.896  11.969  18.566  0.00  0.00    +0.000 A 
ATOM     28  C   UNL     1      -2.718  11.391  17.607  0.00  0.00    +0.000 A 
ATOM     29  F   UNL     1      -3.896  11.956  17.304  0.00  0.00    +0.000 F 
ATOM     30  C   UNL     1      -2.312  10.233  16.980  0.00  0.00    +0.000 A 
ATOM     31  N   UNL     1      -1.146   9.612  17.266  0.00  0.00    +0.000 NA
ENDBRANCH  22  25
ENDBRANCH  19  20
ENDBRANCH  18  19
ENDBRANCH   1  18
TORSDOF 7
ENDMDL
MODEL 3
REMARK VINA RESULT:      -8.1      0.502      1.117
REMARK  Name = 
REMARK  9 active torsions:
REMARK  status: ('A' for Active; 'I' for Inactive)
REMARK    1  A    between atoms: C_1  and  C_2
REMARK    2  A    between atoms: C_2  and  N_3
REMARK    3  A    between atoms: N_3  and  C_4
REMARK    4  A    between atoms: C_4  and  C_5
REMARK    5  A    between atoms: C_5  and  C_6
REMARK    6  A    between atoms: C_8  and  C_9
REMARK    7  A    between atoms: C_18  and  C_20
REMARK    8  A    between atoms: C_22  and  C_23
REMARK    9  A    between atoms: C_26  and  N_27
REMARK                            x       y       z     vdW  Elec       q    Type
REMARK                         _______ _______ _______ _____ _____    ______ ____
ROOT
ATOM      1  N   UNL     1       3.944   4.961  18.286  0.00  0.00    +0.000 N 
ATOM      2  C   UNL     1       4.557   3.947  17.504  0.00  0.00    +0.000 C 
ATOM      3  O   UNL     1       4.354   2.749  17.690  0.00  0.00    +0.000 OA
ENDROOT
BRANCH   2   4
ATOM      4  C   UNL     1       5.398   4.319  16.328  0.00  0.00    +0.000 A 
ATOM      5  C   UNL     1       5.008   3.779  15.092  0.00  0.00    +0.000 A 
ATOM      6  C   UNL     1       5.693   4.053  13.904  0.00  0.00    +0.000 A 
ATOM      7  C   UNL     1       5.166   3.559  12.593  0.00  0.00    +0.000 C 
ATOM      8  C   UNL     1       6.883   4.772  13.971  0.00  0.00    +0.000 A 
ATOM      9  C   UNL     1       7.370   5.199  15.206  0.00  0.00    +0.000 A 
ATOM     10  C   UNL     1       6.630   4.991  16.391  0.00  0.00    +0.000 A 
BRANCH  10  11
ATOM     11  N   UNL     1       7.208   5.440  17.603  0.00  0.00    +0.000 N 
ATOM     12  N   UNL     1       7.494   6.766  17.790  0.00  0.00    +0.000 NA
ATOM     13  C   UNL     1       8.168   6.744  18.941  0.00  0.00    +0.000 A 
ATOM     14  C   UNL     1       8.125   5.460  19.485  0.00  0.00    +0.000 A 
ATOM     15  N   UNL     1       7.449   4.642  18.675  0.00  0.00    +0.000 NA
ENDBRANCH  10  11
ENDBRANCH   2   4
BRANCH   1  17
ATOM     16  C   UNL     1       1.700   4.389  19.331  0.00  0.00    +0.000 C 
ATOM     17  C   UNL     1       3.210   4.502  19.476  0.00  0.00    +0.000 C 
ENDBRANCH   1  17
BRANCH   1  18
ATOM     18  C   UNL     1       4.335   6.384  18.227  0.00  0.00    +0.000 C 
BRANCH  18  19
ATOM     19  C   UNL     1       3.556   7.205  17.183  0.00  0.00    +0.000 C 
BRANCH  19  20
ATOM     20  C   UNL     1       2.575   8.112  17.820  0.00  0.00    +0.000 A 
ATOM     21  C   UNL     1       1.881   8.053  18.999  0.00  0.00    +0.000 A 
ATOM     22  C   UNL     1       1.216   9.299  19.090  0.00  0.00    +0.000 A 
ATOM     23  N   UNL     1       1.414  10.020  17.974  0.00  0.00    +0.000 NA
ATOM     24  O   UNL     1       2.262   9.264  17.178  0.00  0.00    +0.000 OA
BRANCH  22  25
ATOM     25  C   UNL     1       0.481   9.787  20.256  0.00  0.00    +0.000 A 
ATOM     26  C   UNL     1       0.156  11.132  20.415  0.00  0.00    +0.000 A 
ATOM     27  C   UNL     1      -0.449  11.535  21.606  0.00  0.00    +0.000 A 
ATOM     28  C   UNL     1      -0.704  10.585  22.586  0.00  0.00    +0.000 A 
ATOM     29  F   UNL     1      -1.264  10.954  23.748  0.00  0.00    +0.000 F 
ATOM     30  C   UNL     1      -0.371   9.269  22.354  0.00  0.00    +0.000 A 
ATOM     31  N   UNL     1       0.217   8.849  21.210  0.00  0.00    +0.000 NA
ENDBRANCH  22  25
ENDBRANCH  19  20
ENDBRANCH  18  19
ENDBRANCH   1  18
TORSDOF 7
ENDMDL
MODEL 4
REMARK VINA RESULT:      -8.1      3.917      7.209
REMARK  Name = 
REMARK  9 active torsions:
REMARK  status: ('A' for Active; 'I' for Inactive)
REMARK    1  A    between atoms: C_1  and  C_2
REMARK    2  A    between atoms: C_2  and  N_3
REMARK    3  A    between atoms: N_3  and  C_4
REMARK    4  A    between atoms: C_4  and  C_5
REMARK    5  A    between atoms: C_5  and  C_6
REMARK    6  A    between atoms: C_8  and  C_9
REMARK    7  A    between atoms: C_18  and  C_20
REMARK    8  A    between atoms: C_22  and  C_23
REMARK    9  A    between atoms: C_26  and  N_27
REMARK                            x       y       z     vdW  Elec       q    Type
REMARK                         _______ _______ _______ _____ _____    ______ ____
ROOT
ATOM      1  N   UNL     1       4.777   4.679  17.549  0.00  0.00    +0.000 N 
ATOM      2  C   UNL     1       3.362   4.804  17.553  0.00  0.00    +0.000 C 
ATOM      3  O   UNL     1       2.625   4.037  16.935  0.00  0.00    +0.000 OA
ENDROOT
BRANCH   2   4
ATOM      4  C   UNL     1       2.705   5.826  18.420  0.00  0.00    +0.000 A 
ATOM      5  C   UNL     1       2.754   7.151  17.960  0.00  0.00    +0.000 A 
ATOM      6  C   UNL     1       2.168   8.210  18.660  0.00  0.00    +0.000 A 
ATOM      7  C   UNL     1       2.135   9.586  18.068  0.00  0.00    +0.000 C 
ATOM      8  C   UNL     1       1.641   7.964  19.924  0.00  0.00    +0.000 A 
ATOM      9  C   UNL     1       1.708   6.681  20.468  0.00  0.00    +0.000 A 
ATOM     10  C   UNL     1       2.225   5.600  19.720  0.00  0.00    +0.000 A 
BRANCH  10  11
ATOM     11  N   UNL     1       2.273   4.336  20.356  0.00  0.00    +0.000 N 
ATOM     12  N   UNL     1       1.139   3.778  20.884  0.00  0.00    +0.000 NA
ATOM     13  C   UNL     1       1.627   2.716  21.527  0.00  0.00    +0.000 A 
ATOM     14  C   UNL     1       2.985   2.574  21.236  0.00  0.00    +0.000 A 
ATOM     15  N   UNL     1       3.385   3.560  20.428  0.00  0.00    +0.000 NA
ENDBRANCH  10  11
ENDBRANCH   2   4
BRANCH   1  17
ATOM     16  C   UNL     1       5.519   4.198  15.167  0.00  0.00    +0.000 C 
ATOM     17  C   UNL     1       5.337   3.708  16.596  0.00  0.00    +0.000 C 
ENDBRANCH   1  17
BRANCH   1  18
ATOM     18  C   UNL     1       5.686   5.706  18.097  0.00  0.00    +0.000 C 
BRANCH  18  19
ATOM     19  C   UNL     1       6.285   6.645  17.033  0.00  0.00    +0.000 C 
BRANCH  19  20
ATOM     20  C   UNL     1       7.285   7.567  17.617  0.00  0.00    +0.000 A 
ATOM     21  C   UNL     1       7.577   8.886  17.394  0.00  0.00    +0.000 A 
ATOM     22  C   UNL     1       8.544   9.213  18.376  0.00  0.00    +0.000 A 
ATOM     23  N   UNL     1       8.891   8.120  19.076  0.00  0.00    +0.000 NA
ATOM     24  O   UNL     1       8.102   7.089  18.587  0.00  0.00    +0.000 OA
BRANCH  22  25
ATOM     25  C   UNL     1       9.045  10.557  18.660  0.00  0.00    +0.000 A 
ATOM     26  C   UNL     1       9.779  10.844  19.809  0.00  0.00    +0.000 A 
ATOM     27  C   UNL     1      10.127  12.171  20.062  0.00  0.00    +0.000 A 
ATOM     28  C   UNL     1       9.732  13.154  19.164  0.00  0.00    +0.000 A 
ATOM     29  F   UNL     1      10.036  14.439  19.399  0.00  0.00    +0.000 F 
ATOM     30  C   UNL     1       9.022  12.795  18.039  0.00  0.00    +0.000 A 
ATOM     31  N   UNL     1       8.670  11.517  17.768  0.00  0.00    +0.000 NA
ENDBRANCH  22  25
ENDBRANCH  19  20
ENDBRANCH  18  19
ENDBRANCH   1  18
TORSDOF 7
ENDMDL
MODEL 5
REMARK VINA RESULT:      -8.1      1.398      1.622
REMARK  Name = 
REMARK  9 active torsions:
REMARK  status: ('A' for Active; 'I' for Inactive)
REMARK    1  A    between atoms: C_1  and  C_2
REMARK    2  A    between atoms: C_2  and  N_3
REMARK    3  A    between atoms: N_3  and  C_4
REMARK    4  A    between atoms: C_4  and  C_5
REMARK    5  A    between atoms: C_5  and  C_6
REMARK    6  A    between atoms: C_8  and  C_9
REMARK    7  A    between atoms: C_18  and  C_20
REMARK    8  A    between atoms: C_22  and  C_23
REMARK    9  A    between atoms: C_26  and  N_27
REMARK                            x       y       z     vdW  Elec       q    Type
REMARK                         _______ _______ _______ _____ _____    ______ ____
ROOT
ATOM      1  N   UNL     1       3.862   5.099  18.052  0.00  0.00    +0.000 N 
ATOM      2  C   UNL     1       4.588   4.070  17.395  0.00  0.00    +0.000 C 
ATOM      3  O   UNL     1       4.500   2.886  17.714  0.00  0.00    +0.000 OA
ENDROOT
BRANCH   2   4
ATOM      4  C   UNL     1       5.412   4.390  16.192  0.00  0.00    +0.000 A 
ATOM      5  C   UNL     1       4.986   3.823  14.980  0.00  0.00    +0.000 A 
ATOM      6  C   UNL     1       5.651   4.048  13.771  0.00  0.00    +0.000 A 
ATOM      7  C   UNL     1       5.087   3.528  12.486  0.00  0.00    +0.000 C 
ATOM      8  C   UNL     1       6.857   4.743  13.793  0.00  0.00    +0.000 A 
ATOM      9  C   UNL     1       7.378   5.195  15.005  0.00  0.00    +0.000 A 
ATOM     10  C   UNL     1       6.658   5.037  16.211  0.00  0.00    +0.000 A 
BRANCH  10  11
ATOM     11  N   UNL     1       7.271   5.508  17.397  0.00  0.00    +0.000 N 
ATOM     12  N   UNL     1       7.593   4.641  18.407  0.00  0.00    +0.000 NA
ATOM     13  C   UNL     1       7.966   5.474  19.379  0.00  0.00    +0.000 A 
ATOM     14  C   UNL     1       8.017   6.778  18.885  0.00  0.00    +0.000 A 
ATOM     15  N   UNL     1       7.649   6.796  17.601  0.00  0.00    +0.000 NA
ENDBRANCH  10  11
ENDBRANCH   2   4
BRANCH   1  17
ATOM     16  C   UNL     1       1.688   4.329  19.117  0.00  0.00    +0.000 C 
ATOM     17  C   UNL     1       3.154   4.705  19.280  0.00  0.00    +0.000 C 
ENDBRANCH   1  17
BRANCH   1  18
ATOM     18  C   UNL     1       4.113   6.538  17.835  0.00  0.00    +0.000 C 
BRANCH  18  19
ATOM     19  C   UNL     1       2.933   7.290  17.192  0.00  0.00    +0.000 C 
BRANCH  19  20
ATOM     20  C   UNL     1       2.259   8.182  18.162  0.00  0.00    +0.000 A 
ATOM     21  C   UNL     1       1.636   9.395  18.034  0.00  0.00    +0.000 A 
ATOM     22  C   UNL     1       1.073   9.648  19.308  0.00  0.00    +0.000 A 
ATOM     23  N   UNL     1       1.432   8.691  20.179  0.00  0.00    +0.000 NA
ATOM     24  O   UNL     1       2.185   7.778  19.453  0.00  0.00    +0.000 OA
BRANCH  22  25
ATOM     25  C   UNL     1       0.159  10.743  19.631  0.00  0.00    +0.000 A 
ATOM     26  C   UNL     1      -0.447  10.856  20.880  0.00  0.00    +0.000 A 
ATOM     27  C   UNL     1      -1.389  11.866  21.074  0.00  0.00    +0.000 A 
ATOM     28  C   UNL     1      -1.688  12.720  20.020  0.00  0.00    +0.000 A 
ATOM     29  F   UNL     1      -2.607  13.684  20.178  0.00  0.00    +0.000 F 
ATOM     30  C   UNL     1      -1.037  12.560  18.817  0.00  0.00    +0.000 A 
ATOM     31  N   UNL     1      -0.120  11.590  18.600  0.00  0.00    +0.000 NA
ENDBRANCH  22  25
ENDBRANCH  19  20
ENDBRANCH  18  19
ENDBRANCH   1  18
TORSDOF 7
ENDMDL
MODEL 6
REMARK VINA RESULT:      -8.0      3.711      9.443
REMARK  Name = 
REMARK  9 active torsions:
REMARK  status: ('A' for Active; 'I' for Inactive)
REMARK    1  A    between atoms: C_1  and  C_2
REMARK    2  A    between atoms: C_2  and  N_3
REMARK    3  A    between atoms: N_3  and  C_4
REMARK    4  A    between atoms: C_4  and  C_5
REMARK    5  A    between atoms: C_5  and  C_6
REMARK    6  A    between atoms: C_8  and  C_9
REMARK    7  A    between atoms: C_18  and  C_20
REMARK    8  A    between atoms: C_22  and  C_23
REMARK    9  A    between atoms: C_26  and  N_27
REMARK                            x       y       z     vdW  Elec       q    Type
REMARK                         _______ _______ _______ _____ _____    ______ ____
ROOT
ATOM      1  N   UNL     1      -0.867  10.603  18.450  0.00  0.00    +0.000 N 
ATOM      2  C   UNL     1      -1.093  11.934  18.890  0.00  0.00    +0.000 C 
ATOM      3  O   UNL     1      -2.211  12.444  18.918  0.00  0.00    +0.000 OA
ENDROOT
BRANCH   2   4
ATOM      4  C   UNL     1       0.034  12.734  19.455  0.00  0.00    +0.000 A 
ATOM      5  C   UNL     1       0.914  13.307  18.523  0.00  0.00    +0.000 A 
ATOM      6  C   UNL     1       2.004  14.094  18.907  0.00  0.00    +0.000 A 
ATOM      7  C   UNL     1       2.840  14.787  17.876  0.00  0.00    +0.000 C 
ATOM      8  C   UNL     1       2.308  14.198  20.261  0.00  0.00    +0.000 A 
ATOM      9  C   UNL     1       1.534  13.520  21.202  0.00  0.00    +0.000 A 
ATOM     10  C   UNL     1       0.384  12.797  20.813  0.00  0.00    +0.000 A 
BRANCH  10  11
ATOM     11  N   UNL     1      -0.333  12.124  21.831  0.00  0.00    +0.000 N 
ATOM     12  N   UNL     1       0.103  10.917  22.311  0.00  0.00    +0.000 NA
ATOM     13  C   UNL     1      -0.911  10.549  23.096  0.00  0.00    +0.000 A 
ATOM     14  C   UNL     1      -1.830  11.595  23.197  0.00  0.00    +0.000 A 
ATOM     15  N   UNL     1      -1.429  12.629  22.453  0.00  0.00    +0.000 NA
ENDBRANCH  10  11
ENDBRANCH   2   4
BRANCH   1  17
ATOM     16  C   UNL     1      -2.250  10.226  16.352  0.00  0.00    +0.000 C 
ATOM     17  C   UNL     1      -2.014   9.926  17.825  0.00  0.00    +0.000 C 
ENDBRANCH   1  17
BRANCH   1  18
ATOM     18  C   UNL     1       0.478  10.045  18.201  0.00  0.00    +0.000 C 
BRANCH  18  19
ATOM     19  C   UNL     1       1.125   9.393  19.437  0.00  0.00    +0.000 C 
BRANCH  19  20
ATOM     20  C   UNL     1       1.889   8.177  19.078  0.00  0.00    +0.000 A 
ATOM     21  C   UNL     1       2.459   7.747  17.910  0.00  0.00    +0.000 A 
ATOM     22  C   UNL     1       3.167   6.573  18.264  0.00  0.00    +0.000 A 
ATOM     23  N   UNL     1       2.943   6.259  19.551  0.00  0.00    +0.000 NA
ATOM     24  O   UNL     1       2.132   7.267  20.053  0.00  0.00    +0.000 OA
BRANCH  22  25
ATOM     25  C   UNL     1       4.084   5.838  17.393  0.00  0.00    +0.000 A 
ATOM     26  C   UNL     1       4.852   6.477  16.422  0.00  0.00    +0.000 A 
ATOM     27  C   UNL     1       5.619   5.694  15.559  0.00  0.00    +0.000 A 
ATOM     28  C   UNL     1       5.591   4.312  15.698  0.00  0.00    +0.000 A 
ATOM     29  F   UNL     1       6.303   3.539  14.865  0.00  0.00    +0.000 F 
ATOM     30  C   UNL     1       4.821   3.750  16.693  0.00  0.00    +0.000 A 
ATOM     31  N   UNL     1       4.067   4.483  17.543  0.00  0.00    +0.000 NA
ENDBRANCH  22  25
ENDBRANCH  19  20
ENDBRANCH  18  19
ENDBRANCH   1  18
TORSDOF 7
ENDMDL
MODEL 7
REMARK VINA RESULT:      -8.0      2.143      2.514
REMARK  Name = 
REMARK  9 active torsions:
REMARK  status: ('A' for Active; 'I' for Inactive)
REMARK    1  A    between atoms: C_1  and  C_2
REMARK    2  A    between atoms: C_2  and  N_3
REMARK    3  A    between atoms: N_3  and  C_4
REMARK    4  A    between atoms: C_4  and  C_5
REMARK    5  A    between atoms: C_5  and  C_6
REMARK    6  A    between atoms: C_8  and  C_9
REMARK    7  A    between atoms: C_18  and  C_20
REMARK    8  A    between atoms: C_22  and  C_23
REMARK    9  A    between atoms: C_26  and  N_27
REMARK                            x       y       z     vdW  Elec       q    Type
REMARK                         _______ _______ _______ _____ _____    ______ ____
ROOT
ATOM      1  N   UNL     1       3.362   5.025  17.601  0.00  0.00    +0.000 N 
ATOM      2  C   UNL     1       4.414   4.124  17.285  0.00  0.00    +0.000 C 
ATOM      3  O   UNL     1       4.578   3.059  17.878  0.00  0.00    +0.000 OA
ENDROOT
BRANCH   2   4
ATOM      4  C   UNL     1       5.305   4.396  16.119  0.00  0.00    +0.000 A 
ATOM      5  C   UNL     1       4.938   3.793  14.905  0.00  0.00    +0.000 A 
ATOM      6  C   UNL     1       5.669   3.972  13.727  0.00  0.00    +0.000 A 
ATOM      7  C   UNL     1       5.169   3.414  12.431  0.00  0.00    +0.000 C 
ATOM      8  C   UNL     1       6.879   4.656  13.791  0.00  0.00    +0.000 A 
ATOM      9  C   UNL     1       7.340   5.143  15.014  0.00  0.00    +0.000 A 
ATOM     10  C   UNL     1       6.555   5.032  16.183  0.00  0.00    +0.000 A 
BRANCH  10  11
ATOM     11  N   UNL     1       7.107   5.537  17.385  0.00  0.00    +0.000 N 
ATOM     12  N   UNL     1       7.258   6.886  17.571  0.00  0.00    +0.000 NA
ATOM     13  C   UNL     1       7.954   6.932  18.707  0.00  0.00    +0.000 A 
ATOM     14  C   UNL     1       8.055   5.650  19.249  0.00  0.00    +0.000 A 
ATOM     15  N   UNL     1       7.452   4.767  18.449  0.00  0.00    +0.000 NA
ENDBRANCH  10  11
ENDBRANCH   2   4
BRANCH   1  17
ATOM     16  C   UNL     1       1.286   3.975  18.620  0.00  0.00    +0.000 C 
ATOM     17  C   UNL     1       2.596   4.721  18.820  0.00  0.00    +0.000 C 
ENDBRANCH   1  17
BRANCH   1  18
ATOM     18  C   UNL     1       3.275   6.396  17.058  0.00  0.00    +0.000 C 
BRANCH  18  19
ATOM     19  C   UNL     1       3.615   7.497  18.079  0.00  0.00    +0.000 C 
BRANCH  19  20
ATOM     20  C   UNL     1       2.419   8.285  18.454  0.00  0.00    +0.000 A 
ATOM     21  C   UNL     1       1.504   8.994  17.722  0.00  0.00    +0.000 A 
ATOM     22  C   UNL     1       0.523   9.396  18.661  0.00  0.00    +0.000 A 
ATOM     23  N   UNL     1       0.888   9.039  19.904  0.00  0.00    +0.000 NA
ATOM     24  O   UNL     1       2.084   8.349  19.766  0.00  0.00    +0.000 OA
BRANCH  22  25
ATOM     25  C   UNL     1      -0.752  10.034  18.338  0.00  0.00    +0.000 A 
ATOM     26  C   UNL     1      -1.436   9.762  17.155  0.00  0.00    +0.000 A 
ATOM     27  C   UNL     1      -2.589  10.492  16.869  0.00  0.00    +0.000 A 
ATOM     28  C   UNL     1      -3.013  11.461  17.771  0.00  0.00    +0.000 A 
ATOM     29  F   UNL     1      -4.107  12.190  17.505  0.00  0.00    +0.000 F 
ATOM     30  C   UNL     1      -2.297  11.664  18.929  0.00  0.00    +0.000 A 
ATOM     31  N   UNL     1      -1.175  10.972  19.232  0.00  0.00    +0.000 NA
ENDBRANCH  22  25
ENDBRANCH  19  20
ENDBRANCH  18  19
ENDBRANCH   1  18
TORSDOF 7
ENDMDL
MODEL 8
REMARK VINA RESULT:      -7.9      4.301      9.748
REMARK  Name = 
REMARK  9 active torsions:
REMARK  status: ('A' for Active; 'I' for Inactive)
REMARK    1  A    between atoms: C_1  and  C_2
REMARK    2  A    between atoms: C_2  and  N_3
REMARK    3  A    between atoms: N_3  and  C_4
REMARK    4  A    between atoms: C_4  and  C_5
REMARK    5  A    between atoms: C_5  and  C_6
REMARK    6  A    between atoms: C_8  and  C_9
REMARK    7  A    between atoms: C_18  and  C_20
REMARK    8  A    between atoms: C_22  and  C_23
REMARK    9  A    between atoms: C_26  and  N_27
REMARK                            x       y       z     vdW  Elec       q    Type
REMARK                         _______ _______ _______ _____ _____    ______ ____
ROOT
ATOM      1  N   UNL     1       0.745  11.881  18.628  0.00  0.00    +0.000 N 
ATOM      2  C   UNL     1      -0.445  12.640  18.471  0.00  0.00    +0.000 C 
ATOM      3  O   UNL     1      -0.461  13.868  18.508  0.00  0.00    +0.000 OA
ENDROOT
BRANCH   2   4
ATOM      4  C   UNL     1      -1.728  11.954  18.136  0.00  0.00    +0.000 A 
ATOM      5  C   UNL     1      -1.847  11.470  16.823  0.00  0.00    +0.000 A 
ATOM      6  C   UNL     1      -2.985  10.794  16.373  0.00  0.00    +0.000 A 
ATOM      7  C   UNL     1      -3.015  10.186  15.005  0.00  0.00    +0.000 C 
ATOM      8  C   UNL     1      -4.093  10.721  17.212  0.00  0.00    +0.000 A 
ATOM      9  C   UNL     1      -4.053  11.319  18.471  0.00  0.00    +0.000 A 
ATOM     10  C   UNL     1      -2.871  11.926  18.951  0.00  0.00    +0.000 A 
BRANCH  10  11
ATOM     11  N   UNL     1      -2.925  12.525  20.233  0.00  0.00    +0.000 N 
ATOM     12  N   UNL     1      -3.931  13.398  20.553  0.00  0.00    +0.000 NA
ATOM     13  C   UNL     1      -3.530  13.858  21.739  0.00  0.00    +0.000 A 
ATOM     14  C   UNL     1      -2.409  13.144  22.166  0.00  0.00    +0.000 A 
ATOM     15  N   UNL     1      -2.064  12.241  21.244  0.00  0.00    +0.000 NA
ENDBRANCH  10  11
ENDBRANCH   2   4
BRANCH   1  17
ATOM     16  C   UNL     1       2.060  12.923  20.536  0.00  0.00    +0.000 C 
ATOM     17  C   UNL     1       1.938  12.633  19.047  0.00  0.00    +0.000 C 
ENDBRANCH   1  17
BRANCH   1  18
ATOM     18  C   UNL     1       0.759  10.415  18.806  0.00  0.00    +0.000 C 
BRANCH  18  19
ATOM     19  C   UNL     1       1.988   9.720  18.191  0.00  0.00    +0.000 C 
BRANCH  19  20
ATOM     20  C   UNL     1       2.071   8.298  18.592  0.00  0.00    +0.000 A 
ATOM     21  C   UNL     1       2.277   7.142  17.886  0.00  0.00    +0.000 A 
ATOM     22  C   UNL     1       2.388   6.132  18.872  0.00  0.00    +0.000 A 
ATOM     23  N   UNL     1       2.153   6.639  20.093  0.00  0.00    +0.000 NA
ATOM     24  O   UNL     1       1.945   7.999  19.908  0.00  0.00    +0.000 OA
BRANCH  22  25
ATOM     25  C   UNL     1       2.785   4.746  18.627  0.00  0.00    +0.000 A 
ATOM     26  C   UNL     1       2.114   3.936  17.714  0.00  0.00    +0.000 A 
ATOM     27  C   UNL     1       2.484   2.594  17.618  0.00  0.00    +0.000 A 
ATOM     28  C   UNL     1       3.503   2.116  18.432  0.00  0.00    +0.000 A 
ATOM     29  F   UNL     1       3.859   0.824  18.372  0.00  0.00    +0.000 F 
ATOM     30  C   UNL     1       4.134   2.979  19.300  0.00  0.00    +0.000 A 
ATOM     31  N   UNL     1       3.797   4.284  19.416  0.00  0.00    +0.000 NA
ENDBRANCH  22  25
ENDBRANCH  19  20
ENDBRANCH  18  19
ENDBRANCH   1  18
TORSDOF 7
ENDMDL
MODEL 9
REMARK VINA RESULT:      -7.8      1.407      1.909
REMARK  Name = 
REMARK  9 active torsions:
REMARK  status: ('A' for Active; 'I' for Inactive)
REMARK    1  A    between atoms: C_1  and  C_2
REMARK    2  A    between atoms: C_2  and  N_3
REMARK    3  A    between atoms: N_3  and  C_4
REMARK    4  A    between atoms: C_4  and  C_5
REMARK    5  A    between atoms: C_5  and  C_6
REMARK    6  A    between atoms: C_8  and  C_9
REMARK    7  A    between atoms: C_18  and  C_20
REMARK    8  A    between atoms: C_22  and  C_23
REMARK    9  A    between atoms: C_26  and  N_27
REMARK                            x       y       z     vdW  Elec       q    Type
REMARK                         _______ _______ _______ _____ _____    ______ ____
ROOT
ATOM      1  N   UNL     1       3.547   4.546  17.689  0.00  0.00    +0.000 N 
ATOM      2  C   UNL     1       4.466   3.641  17.095  0.00  0.00    +0.000 C 
ATOM      3  O   UNL     1       4.507   2.448  17.387  0.00  0.00    +0.000 OA
ENDROOT
BRANCH   2   4
ATOM      4  C   UNL     1       5.353   4.100  15.985  0.00  0.00    +0.000 A 
ATOM      5  C   UNL     1       5.089   3.558  14.717  0.00  0.00    +0.000 A 
ATOM      6  C   UNL     1       5.829   3.908  13.583  0.00  0.00    +0.000 A 
ATOM      7  C   UNL     1       5.430   3.403  12.231  0.00  0.00    +0.000 C 
ATOM      8  C   UNL     1       6.953   4.713  13.743  0.00  0.00    +0.000 A 
ATOM      9  C   UNL     1       7.323   5.149  15.015  0.00  0.00    +0.000 A 
ATOM     10  C   UNL     1       6.522   4.861  16.143  0.00  0.00    +0.000 A 
BRANCH  10  11
ATOM     11  N   UNL     1       6.982   5.327  17.399  0.00  0.00    +0.000 N 
ATOM     12  N   UNL     1       7.332   6.640  17.570  0.00  0.00    +0.000 NA
ATOM     13  C   UNL     1       7.862   6.627  18.794  0.00  0.00    +0.000 A 
ATOM     14  C   UNL     1       7.669   5.373  19.376  0.00  0.00    +0.000 A 
ATOM     15  N   UNL     1       7.040   4.563  18.520  0.00  0.00    +0.000 NA
ENDBRANCH  10  11
ENDBRANCH   2   4
BRANCH   1  17
ATOM     16  C   UNL     1       1.345   3.615  18.548  0.00  0.00    +0.000 C 
ATOM     17  C   UNL     1       2.781   4.029  18.834  0.00  0.00    +0.000 C 
ENDBRANCH   1  17
BRANCH   1  18
ATOM     18  C   UNL     1       3.622   6.011  17.518  0.00  0.00    +0.000 C 
BRANCH  18  19
ATOM     19  C   UNL     1       3.348   6.808  18.807  0.00  0.00    +0.000 C 
BRANCH  19  20
ATOM     20  C   UNL     1       2.515   8.004  18.546  0.00  0.00    +0.000 A 
ATOM     21  C   UNL     1       1.580   8.668  19.294  0.00  0.00    +0.000 A 
ATOM     22  C   UNL     1       1.255   9.815  18.530  0.00  0.00    +0.000 A 
ATOM     23  N   UNL     1       1.880   9.781  17.341  0.00  0.00    +0.000 NA
ATOM     24  O   UNL     1       2.663   8.635  17.356  0.00  0.00    +0.000 OA
BRANCH  22  25
ATOM     25  C   UNL     1       0.426  10.931  18.983  0.00  0.00    +0.000 A 
ATOM     26  C   UNL     1       0.768  12.257  18.728  0.00  0.00    +0.000 A 
ATOM     27  C   UNL     1      -0.016  13.266  19.288  0.00  0.00    +0.000 A 
ATOM     28  C   UNL     1      -1.106  12.914  20.074  0.00  0.00    +0.000 A 
ATOM     29  F   UNL     1      -1.861  13.868  20.640  0.00  0.00    +0.000 F 
ATOM     30  C   UNL     1      -1.396  11.582  20.269  0.00  0.00    +0.000 A 
ATOM     31  N   UNL     1      -0.653  10.582  19.740  0.00  0.00    +0.000 NA
ENDBRANCH  22  25
ENDBRANCH  19  20
ENDBRANCH  18  19
ENDBRANCH   1  18
TORSDOF 7
ENDMDL
