MODEL 1
REMARK VINA RESULT:      -8.5      0.000      0.000
REMARK  Name = 
REMARK  4 active torsions:
REMARK  status: ('A' for Active; 'I' for Inactive)
REMARK    1  A    between atoms: C_1  and  C_2
REMARK    2  A    between atoms: C_5  and  C_6
REMARK    3  A    between atoms: N_10  and  C_11
REMARK    4  A    between atoms: C_15  and  C_16
REMARK                            x       y       z     vdW  Elec       q    Type
REMARK                         _______ _______ _______ _____ _____    ______ ____
ROOT
ATOM      1  C   UNL     1      -0.221  10.647  18.385  0.00  0.00    +0.000 A 
ATOM      2  C   UNL     1      -1.379  10.160  17.770  0.00  0.00    +0.000 A 
ATOM      3  C   UNL     1      -2.653  10.647  18.117  0.00  0.00    +0.000 A 
ATOM      4  C   UNL     1      -2.777  11.653  19.099  0.00  0.00    +0.000 A 
ATOM      5  C   UNL     1      -3.852  12.407  19.658  0.00  0.00    +0.000 A 
ATOM      6  C   UNL     1      -3.322  13.290  20.576  0.00  0.00    +0.000 A 
ATOM      7  N   UNL     1      -1.970  13.082  20.620  0.00  0.00    +0.000 N 
ATOM      8  C   UNL     1      -1.615  12.109  19.716  0.00  0.00    +0.000 A 
ATOM      9  C   UNL     1      -0.347  11.623  19.388  0.00  0.00    +0.000 A 
ATOM     10  H   UNL     1      -1.314  13.585  21.201  0.00  0.00    +0.000 HD
ENDROOT
BRANCH   1  15
ATOM     11  C   UNL     1       2.964   7.407  18.116  0.00  0.00    +0.000 A 
ATOM     12  C   UNL     1       2.349   7.399  19.348  0.00  0.00    +0.000 A 
ATOM     13  N   UNL     1       1.537   8.486  19.475  0.00  0.00    +0.000 NA
ATOM     14  C   UNL     1       1.679   9.134  18.338  0.00  0.00    +0.000 A 
ATOM     15  N   UNL     1       1.048  10.246  17.915  0.00  0.00    +0.000 N 
ATOM     16  O   UNL     1       2.568   8.556  17.472  0.00  0.00    +0.000 OA
ATOM     17  H   UNL     1       1.389  10.730  17.096  0.00  0.00    +0.000 HD
BRANCH  11  22
ATOM     18  C   UNL     1       6.118   3.637  15.085  0.00  0.00    +0.000 C 
ATOM     19  C   UNL     1       5.342   4.612  15.918  0.00  0.00    +0.000 A 
ATOM     20  C   UNL     1       4.357   4.170  16.804  0.00  0.00    +0.000 A 
ATOM     21  C   UNL     1       3.609   5.091  17.542  0.00  0.00    +0.000 A 
ATOM     22  C   UNL     1       3.826   6.472  17.411  0.00  0.00    +0.000 A 
ATOM     23  C   UNL     1       4.833   6.907  16.542  0.00  0.00    +0.000 A 
ATOM     24  C   UNL     1       5.584   5.986  15.803  0.00  0.00    +0.000 A 
ENDBRANCH  11  22
ENDBRANCH   1  15
BRANCH   5  25
ATOM     25  C   UNL     1      -5.292  12.300  19.330  0.00  0.00    +0.000 A 
ATOM     26  C   UNL     1      -6.306  11.802  20.122  0.00  0.00    +0.000 A 
ATOM     27  N   UNL     1      -7.508  11.853  19.459  0.00  0.00    +0.000 NA
ATOM     28  C   UNL     1      -7.184  12.379  18.300  0.00  0.00    +0.000 A 
ATOM     29  O   UNL     1      -5.869  12.684  18.146  0.00  0.00    +0.000 OA
ENDBRANCH   5  25
TORSDOF 3
ENDMDL
MODEL 2
REMARK VINA RESULT:      -8.2      3.593     10.511
REMARK  Name = 
REMARK  4 active torsions:
REMARK  status: ('A' for Active; 'I' for Inactive)
REMARK    1  A    between atoms: C_1  and  C_2
REMARK    2  A    between atoms: C_5  and  C_6
REMARK    3  A    between atoms: N_10  and  C_11
REMARK    4  A    between atoms: C_15  and  C_16
REMARK                            x       y       z     vdW  Elec       q    Type
REMARK                         _______ _______ _______ _____ _____    ______ ____
ROOT
ATOM      1  C   UNL     1       1.535   8.670  19.090  0.00  0.00    +0.000 A 
ATOM      2  C   UNL     1       2.237   8.867  17.897  0.00  0.00    +0.000 A 
ATOM      3  C   UNL     1       3.255   7.984  17.492  0.00  0.00    +0.000 A 
ATOM      4  C   UNL     1       3.578   6.868  18.294  0.00  0.00    +0.000 A 
ATOM      5  C   UNL     1       4.477   5.764  18.193  0.00  0.00    +0.000 A 
ATOM      6  C   UNL     1       4.299   4.968  19.306  0.00  0.00    +0.000 A 
ATOM      7  N   UNL     1       3.350   5.560  20.094  0.00  0.00    +0.000 N 
ATOM      8  C   UNL     1       2.883   6.702  19.489  0.00  0.00    +0.000 A 
ATOM      9  C   UNL     1       1.879   7.580  19.906  0.00  0.00    +0.000 A 
ATOM     10  H   UNL     1       3.010   5.203  20.976  0.00  0.00    +0.000 HD
ENDROOT
BRANCH   1  15
ATOM     11  C   UNL     1      -0.894  10.883  22.239  0.00  0.00    +0.000 A 
ATOM     12  C   UNL     1      -0.415   9.689  22.728  0.00  0.00    +0.000 A 
ATOM     13  N   UNL     1       0.146   8.960  21.723  0.00  0.00    +0.000 NA
ATOM     14  C   UNL     1      -0.011   9.708  20.652  0.00  0.00    +0.000 A 
ATOM     15  N   UNL     1       0.424   9.486  19.396  0.00  0.00    +0.000 N 
ATOM     16  O   UNL     1      -0.676  10.882  20.881  0.00  0.00    +0.000 OA
ATOM     17  H   UNL     1       0.076  10.060  18.641  0.00  0.00    +0.000 HD
BRANCH  11  22
ATOM     18  C   UNL     1      -3.147  15.433  24.992  0.00  0.00    +0.000 C 
ATOM     19  C   UNL     1      -2.588  14.273  24.224  0.00  0.00    +0.000 A 
ATOM     20  C   UNL     1      -3.310  13.085  24.099  0.00  0.00    +0.000 A 
ATOM     21  C   UNL     1      -2.760  11.995  23.420  0.00  0.00    +0.000 A 
ATOM     22  C   UNL     1      -1.478  12.066  22.852  0.00  0.00    +0.000 A 
ATOM     23  C   UNL     1      -0.771  13.269  22.956  0.00  0.00    +0.000 A 
ATOM     24  C   UNL     1      -1.321  14.362  23.635  0.00  0.00    +0.000 A 
ENDBRANCH  11  22
ENDBRANCH   1  15
BRANCH   5  25
ATOM     25  C   UNL     1       5.435   5.481  17.101  0.00  0.00    +0.000 A 
ATOM     26  C   UNL     1       6.636   6.112  16.844  0.00  0.00    +0.000 A 
ATOM     27  N   UNL     1       7.233   5.578  15.729  0.00  0.00    +0.000 NA
ATOM     28  C   UNL     1       6.383   4.650  15.352  0.00  0.00    +0.000 A 
ATOM     29  O   UNL     1       5.277   4.523  16.132  0.00  0.00    +0.000 OA
ENDBRANCH   5  25
TORSDOF 3
ENDMDL
MODEL 3
REMARK VINA RESULT:      -8.2      2.306     10.170
REMARK  Name = 
REMARK  4 active torsions:
REMARK  status: ('A' for Active; 'I' for Inactive)
REMARK    1  A    between atoms: C_1  and  C_2
REMARK    2  A    between atoms: C_5  and  C_6
REMARK    3  A    between atoms: N_10  and  C_11
REMARK    4  A    between atoms: C_15  and  C_16
REMARK                            x       y       z     vdW  Elec       q    Type
REMARK                         _______ _______ _______ _____ _____    ______ ____
ROOT
ATOM      1  C   UNL     1       1.323   9.430  19.012  0.00  0.00    +0.000 A 
ATOM      2  C   UNL     1       2.091   9.223  17.861  0.00  0.00    +0.000 A 
ATOM      3  C   UNL     1       2.861   8.057  17.695  0.00  0.00    +0.000 A 
ATOM      4  C   UNL     1       2.861   7.065  18.699  0.00  0.00    +0.000 A 
ATOM      5  C   UNL     1       3.450   5.775  18.861  0.00  0.00    +0.000 A 
ATOM      6  C   UNL     1       3.038   5.268  20.077  0.00  0.00    +0.000 A 
ATOM      7  N   UNL     1       2.248   6.211  20.674  0.00  0.00    +0.000 N 
ATOM      8  C   UNL     1       2.108   7.301  19.847  0.00  0.00    +0.000 A 
ATOM      9  C   UNL     1       1.351   8.460  20.028  0.00  0.00    +0.000 A 
ATOM     10  H   UNL     1       1.799   6.120  21.575  0.00  0.00    +0.000 HD
ENDROOT
BRANCH   1  15
ATOM     11  C   UNL     1      -2.837  11.135  18.306  0.00  0.00    +0.000 A 
ATOM     12  C   UNL     1      -2.485  10.253  17.310  0.00  0.00    +0.000 A 
ATOM     13  N   UNL     1      -1.175   9.900  17.435  0.00  0.00    +0.000 NA
ATOM     14  C   UNL     1      -0.756  10.573  18.486  0.00  0.00    +0.000 A 
ATOM     15  N   UNL     1       0.450  10.537  19.086  0.00  0.00    +0.000 N 
ATOM     16  O   UNL     1      -1.706  11.382  19.048  0.00  0.00    +0.000 OA
ATOM     17  H   UNL     1       0.684  11.240  19.773  0.00  0.00    +0.000 HD
BRANCH  11  22
ATOM     18  C   UNL     1      -7.902  13.250  20.104  0.00  0.00    +0.000 C 
ATOM     19  C   UNL     1      -6.582  12.751  19.598  0.00  0.00    +0.000 A 
ATOM     20  C   UNL     1      -6.515  11.896  18.496  0.00  0.00    +0.000 A 
ATOM     21  C   UNL     1      -5.283  11.401  18.063  0.00  0.00    +0.000 A 
ATOM     22  C   UNL     1      -4.091  11.746  18.719  0.00  0.00    +0.000 A 
ATOM     23  C   UNL     1      -4.162  12.625  19.806  0.00  0.00    +0.000 A 
ATOM     24  C   UNL     1      -5.395  13.122  20.241  0.00  0.00    +0.000 A 
ENDBRANCH  11  22
ENDBRANCH   1  15
BRANCH   5  25
ATOM     25  C   UNL     1       4.338   5.067  17.912  0.00  0.00    +0.000 A 
ATOM     26  C   UNL     1       5.718   5.036  17.906  0.00  0.00    +0.000 A 
ATOM     27  N   UNL     1       6.180   4.284  16.855  0.00  0.00    +0.000 NA
ATOM     28  C   UNL     1       5.076   3.886  16.266  0.00  0.00    +0.000 A 
ATOM     29  O   UNL     1       3.922   4.309  16.846  0.00  0.00    +0.000 OA
ENDBRANCH   5  25
TORSDOF 3
ENDMDL
MODEL 4
REMARK VINA RESULT:      -8.1      2.256     10.179
REMARK  Name = 
REMARK  4 active torsions:
REMARK  status: ('A' for Active; 'I' for Inactive)
REMARK    1  A    between atoms: C_1  and  C_2
REMARK    2  A    between atoms: C_5  and  C_6
REMARK    3  A    between atoms: N_10  and  C_11
REMARK    4  A    between atoms: C_15  and  C_16
REMARK                            x       y       z     vdW  Elec       q    Type
REMARK                         _______ _______ _______ _____ _____    ______ ____
ROOT
ATOM      1  C   UNL     1       1.116   9.581  19.015  0.00  0.00    +0.000 A 
ATOM      2  C   UNL     1       1.890   9.348  17.874  0.00  0.00    +0.000 A 
ATOM      3  C   UNL     1       2.672   8.185  17.744  0.00  0.00    +0.000 A 
ATOM      4  C   UNL     1       2.677   7.223  18.777  0.00  0.00    +0.000 A 
ATOM      5  C   UNL     1       3.277   5.944  18.978  0.00  0.00    +0.000 A 
ATOM      6  C   UNL     1       2.865   5.468  20.206  0.00  0.00    +0.000 A 
ATOM      7  N   UNL     1       2.063   6.420  20.773  0.00  0.00    +0.000 N 
ATOM      8  C   UNL     1       1.917   7.485  19.914  0.00  0.00    +0.000 A 
ATOM      9  C   UNL     1       1.148   8.641  20.059  0.00  0.00    +0.000 A 
ATOM     10  H   UNL     1       1.612   6.351  21.675  0.00  0.00    +0.000 HD
ENDROOT
BRANCH   1  15
ATOM     11  C   UNL     1      -3.056  11.227  18.240  0.00  0.00    +0.000 A 
ATOM     12  C   UNL     1      -2.690  10.322  17.270  0.00  0.00    +0.000 A 
ATOM     13  N   UNL     1      -1.378   9.984  17.413  0.00  0.00    +0.000 NA
ATOM     14  C   UNL     1      -0.971  10.689  18.446  0.00  0.00    +0.000 A 
ATOM     15  N   UNL     1       0.232  10.681  19.054  0.00  0.00    +0.000 N 
ATOM     16  O   UNL     1      -1.932  11.505  18.981  0.00  0.00    +0.000 OA
ATOM     17  H   UNL     1       0.455  11.405  19.723  0.00  0.00    +0.000 HD
BRANCH  11  22
ATOM     18  C   UNL     1      -7.916  13.970  19.728  0.00  0.00    +0.000 C 
ATOM     19  C   UNL     1      -6.678  13.205  19.368  0.00  0.00    +0.000 A 
ATOM     20  C   UNL     1      -5.598  13.136  20.249  0.00  0.00    +0.000 A 
ATOM     21  C   UNL     1      -4.432  12.458  19.883  0.00  0.00    +0.000 A 
ATOM     22  C   UNL     1      -4.318  11.837  18.629  0.00  0.00    +0.000 A 
ATOM     23  C   UNL     1      -5.414  11.886  17.761  0.00  0.00    +0.000 A 
ATOM     24  C   UNL     1      -6.583  12.564  18.127  0.00  0.00    +0.000 A 
ENDBRANCH  11  22
ENDBRANCH   1  15
BRANCH   5  25
ATOM     25  C   UNL     1       4.176   5.217  18.053  0.00  0.00    +0.000 A 
ATOM     26  C   UNL     1       3.864   4.149  17.235  0.00  0.00    +0.000 A 
ATOM     27  N   UNL     1       4.972   3.737  16.536  0.00  0.00    +0.000 NA
ATOM     28  C   UNL     1       5.907   4.562  16.948  0.00  0.00    +0.000 A 
ATOM     29  O   UNL     1       5.506   5.490  17.856  0.00  0.00    +0.000 OA
ENDBRANCH   5  25
TORSDOF 3
ENDMDL
MODEL 5
REMARK VINA RESULT:      -8.1      1.808      2.437
REMARK  Name = 
REMARK  4 active torsions:
REMARK  status: ('A' for Active; 'I' for Inactive)
REMARK    1  A    between atoms: C_1  and  C_2
REMARK    2  A    between atoms: C_5  and  C_6
REMARK    3  A    between atoms: N_10  and  C_11
REMARK    4  A    between atoms: C_15  and  C_16
REMARK                            x       y       z     vdW  Elec       q    Type
REMARK                         _______ _______ _______ _____ _____    ______ ____
ROOT
ATOM      1  C   UNL     1      -0.341  11.411  18.790  0.00  0.00    +0.000 A 
ATOM      2  C   UNL     1      -0.428  11.891  20.100  0.00  0.00    +0.000 A 
ATOM      3  C   UNL     1      -1.656  12.308  20.648  0.00  0.00    +0.000 A 
ATOM      4  C   UNL     1      -2.832  12.238  19.870  0.00  0.00    +0.000 A 
ATOM      5  C   UNL     1      -4.216  12.509  20.086  0.00  0.00    +0.000 A 
ATOM      6  C   UNL     1      -4.896  12.203  18.925  0.00  0.00    +0.000 A 
ATOM      7  N   UNL     1      -3.976  11.786  18.002  0.00  0.00    +0.000 N 
ATOM      8  C   UNL     1      -2.720  11.779  18.560  0.00  0.00    +0.000 A 
ATOM      9  C   UNL     1      -1.505  11.374  18.003  0.00  0.00    +0.000 A 
ATOM     10  H   UNL     1      -4.181  11.493  17.056  0.00  0.00    +0.000 HD
ENDROOT
BRANCH   1  15
ATOM     11  C   UNL     1       2.449   7.824  18.531  0.00  0.00    +0.000 A 
ATOM     12  C   UNL     1       1.840   7.893  19.762  0.00  0.00    +0.000 A 
ATOM     13  N   UNL     1       1.159   9.066  19.886  0.00  0.00    +0.000 NA
ATOM     14  C   UNL     1       1.373   9.689  18.747  0.00  0.00    +0.000 A 
ATOM     15  N   UNL     1       0.873  10.864  18.320  0.00  0.00    +0.000 N 
ATOM     16  O   UNL     1       2.188   9.009  17.882  0.00  0.00    +0.000 OA
ATOM     17  H   UNL     1       1.266  11.302  17.498  0.00  0.00    +0.000 HD
BRANCH  11  22
ATOM     18  C   UNL     1       5.677   3.768  15.985  0.00  0.00    +0.000 C 
ATOM     19  C   UNL     1       4.804   4.823  16.594  0.00  0.00    +0.000 A 
ATOM     20  C   UNL     1       5.106   6.177  16.439  0.00  0.00    +0.000 A 
ATOM     21  C   UNL     1       4.310   7.150  17.049  0.00  0.00    +0.000 A 
ATOM     22  C   UNL     1       3.197   6.794  17.828  0.00  0.00    +0.000 A 
ATOM     23  C   UNL     1       2.884   5.436  17.956  0.00  0.00    +0.000 A 
ATOM     24  C   UNL     1       3.680   4.460  17.345  0.00  0.00    +0.000 A 
ENDBRANCH  11  22
ENDBRANCH   1  15
BRANCH   5  25
ATOM     25  C   UNL     1      -4.851  13.015  21.324  0.00  0.00    +0.000 A 
ATOM     26  C   UNL     1      -5.603  14.162  21.481  0.00  0.00    +0.000 A 
ATOM     27  N   UNL     1      -6.006  14.301  22.786  0.00  0.00    +0.000 NA
ATOM     28  C   UNL     1      -5.492  13.242  23.369  0.00  0.00    +0.000 A 
ATOM     29  O   UNL     1      -4.789  12.412  22.554  0.00  0.00    +0.000 OA
ENDBRANCH   5  25
TORSDOF 3
ENDMDL
MODEL 6
REMARK VINA RESULT:      -8.1      1.551      2.041
REMARK  Name = 
REMARK  4 active torsions:
REMARK  status: ('A' for Active; 'I' for Inactive)
REMARK    1  A    between atoms: C_1  and  C_2
REMARK    2  A    between atoms: C_5  and  C_6
REMARK    3  A    between atoms: N_10  and  C_11
REMARK    4  A    between atoms: C_15  and  C_16
REMARK                            x       y       z     vdW  Elec       q    Type
REMARK                         _______ _______ _______ _____ _____    ______ ____
ROOT
ATOM      1  C   UNL     1      -0.448  11.149  18.298  0.00  0.00    +0.000 A 
ATOM      2  C   UNL     1      -0.592  11.889  19.476  0.00  0.00    +0.000 A 
ATOM      3  C   UNL     1      -1.861  12.255  19.960  0.00  0.00    +0.000 A 
ATOM      4  C   UNL     1      -3.021  11.865  19.256  0.00  0.00    +0.000 A 
ATOM      5  C   UNL     1      -4.429  11.996  19.455  0.00  0.00    +0.000 A 
ATOM      6  C   UNL     1      -5.067  11.359  18.411  0.00  0.00    +0.000 A 
ATOM      7  N   UNL     1      -4.104  10.872  17.570  0.00  0.00    +0.000 N 
ATOM      8  C   UNL     1      -2.856  11.149  18.074  0.00  0.00    +0.000 A 
ATOM      9  C   UNL     1      -1.600  10.792  17.577  0.00  0.00    +0.000 A 
ATOM     10  H   UNL     1      -4.273  10.355  16.717  0.00  0.00    +0.000 HD
ENDROOT
BRANCH   1  15
ATOM     11  C   UNL     1       2.605   7.774  18.361  0.00  0.00    +0.000 A 
ATOM     12  C   UNL     1       1.928   7.855  19.556  0.00  0.00    +0.000 A 
ATOM     13  N   UNL     1       1.158   8.979  19.586  0.00  0.00    +0.000 NA
ATOM     14  C   UNL     1       1.387   9.561  18.428  0.00  0.00    +0.000 A 
ATOM     15  N   UNL     1       0.825  10.674  17.916  0.00  0.00    +0.000 N 
ATOM     16  O   UNL     1       2.293   8.903  17.640  0.00  0.00    +0.000 OA
ATOM     17  H   UNL     1       1.229  11.100  17.094  0.00  0.00    +0.000 HD
BRANCH  11  22
ATOM     18  C   UNL     1       5.755   3.741  15.683  0.00  0.00    +0.000 C 
ATOM     19  C   UNL     1       4.976   4.783  16.428  0.00  0.00    +0.000 A 
ATOM     20  C   UNL     1       3.895   4.425  17.235  0.00  0.00    +0.000 A 
ATOM     21  C   UNL     1       3.148   5.409  17.889  0.00  0.00    +0.000 A 
ATOM     22  C   UNL     1       3.462   6.770  17.749  0.00  0.00    +0.000 A 
ATOM     23  C   UNL     1       4.564   7.120  16.960  0.00  0.00    +0.000 A 
ATOM     24  C   UNL     1       5.313   6.136  16.306  0.00  0.00    +0.000 A 
ENDBRANCH  11  22
ENDBRANCH   1  15
BRANCH   5  25
ATOM     25  C   UNL     1      -5.119  12.676  20.574  0.00  0.00    +0.000 A 
ATOM     26  C   UNL     1      -6.048  13.694  20.502  0.00  0.00    +0.000 A 
ATOM     27  N   UNL     1      -6.448  14.074  21.760  0.00  0.00    +0.000 NA
ATOM     28  C   UNL     1      -5.757  13.278  22.543  0.00  0.00    +0.000 A 
ATOM     29  O   UNL     1      -4.938  12.400  21.906  0.00  0.00    +0.000 OA
ENDBRANCH   5  25
TORSDOF 3
ENDMDL
MODEL 7
REMARK VINA RESULT:      -8.0      3.406     10.429
REMARK  Name = 
REMARK  4 active torsions:
REMARK  status: ('A' for Active; 'I' for Inactive)
REMARK    1  A    between atoms: C_1  and  C_2
REMARK    2  A    between atoms: C_5  and  C_6
REMARK    3  A    between atoms: N_10  and  C_11
REMARK    4  A    between atoms: C_15  and  C_16
REMARK                            x       y       z     vdW  Elec       q    Type
REMARK                         _______ _______ _______ _____ _____    ______ ____
ROOT
ATOM      1  C   UNL     1       0.909   9.226  19.332  0.00  0.00    +0.000 A 
ATOM      2  C   UNL     1       1.461   9.320  18.050  0.00  0.00    +0.000 A 
ATOM      3  C   UNL     1       2.422   8.397  17.597  0.00  0.00    +0.000 A 
ATOM      4  C   UNL     1       2.838   7.345  18.442  0.00  0.00    +0.000 A 
ATOM      5  C   UNL     1       3.718   6.227  18.322  0.00  0.00    +0.000 A 
ATOM      6  C   UNL     1       3.676   5.524  19.509  0.00  0.00    +0.000 A 
ATOM      7  N   UNL     1       2.830   6.187  20.355  0.00  0.00    +0.000 N 
ATOM      8  C   UNL     1       2.294   7.283  19.721  0.00  0.00    +0.000 A 
ATOM      9  C   UNL     1       1.350   8.201  20.186  0.00  0.00    +0.000 A 
ATOM     10  H   UNL     1       2.600   5.905  21.298  0.00  0.00    +0.000 HD
ENDROOT
BRANCH   1  15
ATOM     11  C   UNL     1      -1.306  11.442  22.633  0.00  0.00    +0.000 A 
ATOM     12  C   UNL     1      -0.856  10.217  23.071  0.00  0.00    +0.000 A 
ATOM     13  N   UNL     1      -0.364   9.495  22.025  0.00  0.00    +0.000 NA
ATOM     14  C   UNL     1      -0.532  10.279  20.981  0.00  0.00    +0.000 A 
ATOM     15  N   UNL     1      -0.155  10.076  19.704  0.00  0.00    +0.000 N 
ATOM     16  O   UNL     1      -1.140  11.471  21.268  0.00  0.00    +0.000 OA
ATOM     17  H   UNL     1      -0.509  10.685  18.979  0.00  0.00    +0.000 HD
BRANCH  11  22
ATOM     18  C   UNL     1      -3.384  16.304  24.958  0.00  0.00    +0.000 C 
ATOM     19  C   UNL     1      -2.823  15.025  24.412  0.00  0.00    +0.000 A 
ATOM     20  C   UNL     1      -1.515  14.967  23.927  0.00  0.00    +0.000 A 
ATOM     21  C   UNL     1      -1.019  13.782  23.379  0.00  0.00    +0.000 A 
ATOM     22  C   UNL     1      -1.818  12.629  23.300  0.00  0.00    +0.000 A 
ATOM     23  C   UNL     1      -3.119  12.686  23.813  0.00  0.00    +0.000 A 
ATOM     24  C   UNL     1      -3.616  13.873  24.363  0.00  0.00    +0.000 A 
ENDBRANCH  11  22
ENDBRANCH   1  15
BRANCH   5  25
ATOM     25  C   UNL     1       4.536   5.848  17.148  0.00  0.00    +0.000 A 
ATOM     26  C   UNL     1       5.392   6.648  16.419  0.00  0.00    +0.000 A 
ATOM     27  N   UNL     1       5.958   5.938  15.389  0.00  0.00    +0.000 NA
ATOM     28  C   UNL     1       5.433   4.743  15.529  0.00  0.00    +0.000 A 
ATOM     29  O   UNL     1       4.571   4.604  16.571  0.00  0.00    +0.000 OA
ENDBRANCH   5  25
TORSDOF 3
ENDMDL
MODEL 8
REMARK VINA RESULT:      -8.0      2.119     10.182
REMARK  Name = 
REMARK  4 active torsions:
REMARK  status: ('A' for Active; 'I' for Inactive)
REMARK    1  A    between atoms: C_1  and  C_2
REMARK    2  A    between atoms: C_5  and  C_6
REMARK    3  A    between atoms: N_10  and  C_11
REMARK    4  A    between atoms: C_15  and  C_16
REMARK                            x       y       z     vdW  Elec       q    Type
REMARK                         _______ _______ _______ _____ _____    ______ ____
ROOT
ATOM      1  C   UNL     1       1.098   9.849  19.249  0.00  0.00    +0.000 A 
ATOM      2  C   UNL     1       1.756   9.700  18.024  0.00  0.00    +0.000 A 
ATOM      3  C   UNL     1       2.476   8.530  17.717  0.00  0.00    +0.000 A 
ATOM      4  C   UNL     1       2.536   7.476  18.653  0.00  0.00    +0.000 A 
ATOM      5  C   UNL     1       3.101   6.165  18.680  0.00  0.00    +0.000 A 
ATOM      6  C   UNL     1       2.784   5.590  19.893  0.00  0.00    +0.000 A 
ATOM      7  N   UNL     1       2.075   6.509  20.617  0.00  0.00    +0.000 N 
ATOM      8  C   UNL     1       1.894   7.653  19.876  0.00  0.00    +0.000 A 
ATOM      9  C   UNL     1       1.188   8.815  20.196  0.00  0.00    +0.000 A 
ATOM     10  H   UNL     1       1.705   6.369  21.547  0.00  0.00    +0.000 HD
ENDROOT
BRANCH   1  15
ATOM     11  C   UNL     1      -3.045  11.710  18.962  0.00  0.00    +0.000 A 
ATOM     12  C   UNL     1      -2.785  10.906  17.877  0.00  0.00    +0.000 A 
ATOM     13  N   UNL     1      -1.481  10.510  17.886  0.00  0.00    +0.000 NA
ATOM     14  C   UNL     1      -0.974  11.083  18.957  0.00  0.00    +0.000 A 
ATOM     15  N   UNL     1       0.266  10.967  19.470  0.00  0.00    +0.000 N 
ATOM     16  O   UNL     1      -1.861  11.868  19.644  0.00  0.00    +0.000 OA
ATOM     17  H   UNL     1       0.565  11.605  20.194  0.00  0.00    +0.000 HD
BRANCH  11  22
ATOM     18  C   UNL     1      -7.914  13.799  21.262  0.00  0.00    +0.000 C 
ATOM     19  C   UNL     1      -6.646  13.309  20.630  0.00  0.00    +0.000 A 
ATOM     20  C   UNL     1      -6.679  12.534  19.469  0.00  0.00    +0.000 A 
ATOM     21  C   UNL     1      -5.494  12.045  18.914  0.00  0.00    +0.000 A 
ATOM     22  C   UNL     1      -4.250  12.317  19.506  0.00  0.00    +0.000 A 
ATOM     23  C   UNL     1      -4.221  13.117  20.654  0.00  0.00    +0.000 A 
ATOM     24  C   UNL     1      -5.408  13.608  21.210  0.00  0.00    +0.000 A 
ENDBRANCH  11  22
ENDBRANCH   1  15
BRANCH   5  25
ATOM     25  C   UNL     1       3.883   5.501  17.613  0.00  0.00    +0.000 A 
ATOM     26  C   UNL     1       3.867   4.167  17.258  0.00  0.00    +0.000 A 
ATOM     27  N   UNL     1       4.745   3.930  16.229  0.00  0.00    +0.000 NA
ATOM     28  C   UNL     1       5.255   5.117  15.995  0.00  0.00    +0.000 A 
ATOM     29  O   UNL     1       4.782   6.119  16.781  0.00  0.00    +0.000 OA
ENDBRANCH   5  25
TORSDOF 3
ENDMDL
MODEL 9
REMARK VINA RESULT:      -7.8      2.631     10.388
REMARK  Name = 
REMARK  4 active torsions:
REMARK  status: ('A' for Active; 'I' for Inactive)
REMARK    1  A    between atoms: C_1  and  C_2
REMARK    2  A    between atoms: C_5  and  C_6
REMARK    3  A    between atoms: N_10  and  C_11
REMARK    4  A    between atoms: C_15  and  C_16
REMARK                            x       y       z     vdW  Elec       q    Type
REMARK                         _______ _______ _______ _____ _____    ______ ____
ROOT
ATOM      1  C   UNL     1       2.267   7.558  19.455  0.00  0.00    +0.000 A 
ATOM      2  C   UNL     1       2.807   8.004  18.245  0.00  0.00    +0.000 A 
ATOM      3  C   UNL     1       3.716   7.217  17.514  0.00  0.00    +0.000 A 
ATOM      4  C   UNL     1       4.093   5.946  17.999  0.00  0.00    +0.000 A 
ATOM      5  C   UNL     1       4.916   4.877  17.532  0.00  0.00    +0.000 A 
ATOM      6  C   UNL     1       4.856   3.857  18.459  0.00  0.00    +0.000 A 
ATOM      7  N   UNL     1       4.054   4.274  19.485  0.00  0.00    +0.000 N 
ATOM      8  C   UNL     1       3.562   5.530  19.217  0.00  0.00    +0.000 A 
ATOM      9  C   UNL     1       2.669   6.309  19.957  0.00  0.00    +0.000 A 
ATOM     10  H   UNL     1       3.822   3.736  20.309  0.00  0.00    +0.000 HD
ENDROOT
BRANCH   1  15
ATOM     11  C   UNL     1      -0.723  10.984  19.254  0.00  0.00    +0.000 A 
ATOM     12  C   UNL     1       0.452  11.310  18.616  0.00  0.00    +0.000 A 
ATOM     13  N   UNL     1       1.395  10.354  18.846  0.00  0.00    +0.000 NA
ATOM     14  C   UNL     1       0.788   9.479  19.620  0.00  0.00    +0.000 A 
ATOM     15  N   UNL     1       1.250   8.303  20.089  0.00  0.00    +0.000 N 
ATOM     16  O   UNL     1      -0.498   9.817  19.947  0.00  0.00    +0.000 OA
ATOM     17  H   UNL     1       0.738   7.824  20.817  0.00  0.00    +0.000 HD
BRANCH  11  22
ATOM     18  C   UNL     1      -6.145  12.963  19.455  0.00  0.00    +0.000 C 
ATOM     19  C   UNL     1      -4.722  12.499  19.368  0.00  0.00    +0.000 A 
ATOM     20  C   UNL     1      -4.307  11.657  18.335  0.00  0.00    +0.000 A 
ATOM     21  C   UNL     1      -2.989  11.195  18.289  0.00  0.00    +0.000 A 
ATOM     22  C   UNL     1      -2.057  11.561  19.274  0.00  0.00    +0.000 A 
ATOM     23  C   UNL     1      -2.473  12.428  20.291  0.00  0.00    +0.000 A 
ATOM     24  C   UNL     1      -3.792  12.892  20.338  0.00  0.00    +0.000 A 
ENDBRANCH  11  22
ENDBRANCH   1  15
BRANCH   5  25
ATOM     25  C   UNL     1       5.700   4.829  16.277  0.00  0.00    +0.000 A 
ATOM     26  C   UNL     1       6.908   5.442  16.009  0.00  0.00    +0.000 A 
ATOM     27  N   UNL     1       7.310   5.175  14.724  0.00  0.00    +0.000 NA
ATOM     28  C   UNL     1       6.344   4.414  14.262  0.00  0.00    +0.000 A 
ATOM     29  O   UNL     1       5.340   4.152  15.139  0.00  0.00    +0.000 OA
ENDBRANCH   5  25
TORSDOF 3
ENDMDL
