MODEL 1
REMARK VINA RESULT:      -7.2      0.000      0.000
REMARK  Name = 
REMARK  7 active torsions:
REMARK  status: ('A' for Active; 'I' for Inactive)
REMARK    1  A    between atoms: C_1  and  C_2
REMARK    2  A    between atoms: C_2  and  N_3
REMARK    3  A    between atoms: C_5  and  S_6
REMARK    4  A    between atoms: S_6  and  N_9
REMARK    5  A    between atoms: N_9  and  C_10
REMARK    6  A    between atoms: C_10  and  C_11
REMARK    7  A    between atoms: C_11  and  C_12
REMARK                            x       y       z     vdW  Elec       q    Type
REMARK                         _______ _______ _______ _____ _____    ______ ____
ROOT
ATOM      1  N   UNL     1       4.434   5.858  19.468  0.00  0.00    +0.000 NA
ATOM      2  H   UNL     1       4.604   6.417  20.305  0.00  0.00    +0.000 HD
ENDROOT
BRANCH   1   3
ATOM      3  S   UNL     1       5.824   4.933  19.172  0.00  0.00    +0.000 S 
ATOM      4  O   UNL     1       5.407   3.550  19.210  0.00  0.00    +0.000 OA
ATOM      5  O   UNL     1       6.901   5.440  19.989  0.00  0.00    +0.000 OA
BRANCH   3   8
ATOM      6  N   UNL     1       6.768   5.010  15.434  0.00  0.00    +0.000 N 
ATOM      7  C   UNL     1       6.026   4.451  16.436  0.00  0.00    +0.000 A 
ATOM      8  C   UNL     1       6.343   5.171  17.566  0.00  0.00    +0.000 A 
ATOM      9  C   UNL     1       7.249   6.152  17.144  0.00  0.00    +0.000 A 
ATOM     10  N   UNL     1       7.502   6.067  15.834  0.00  0.00    +0.000 NA
BRANCH   6  12
ATOM     11  C   UNL     1       5.596   3.823  13.630  0.00  0.00    +0.000 C 
ATOM     12  C   UNL     1       6.857   4.551  14.060  0.00  0.00    +0.000 C 
ENDBRANCH   6  12
ENDBRANCH   3   8
ENDBRANCH   1   3
BRANCH   1  13
ATOM     13  C   UNL     1       3.930   6.628  18.312  0.00  0.00    +0.000 C 
BRANCH  13  14
ATOM     14  C   UNL     1       2.426   6.397  18.140  0.00  0.00    +0.000 C 
BRANCH  14  15
ATOM     15  C   UNL     1       2.060   4.969  18.467  0.00  0.00    +0.000 A 
ATOM     16  C   UNL     1       1.471   4.649  19.701  0.00  0.00    +0.000 A 
ATOM     17  C   UNL     1       1.187   3.321  20.022  0.00  0.00    +0.000 A 
ATOM     18  C   UNL     1       1.494   2.315  19.114  0.00  0.00    +0.000 A 
ATOM     19  F   UNL     1       1.225   1.040  19.427  0.00  0.00    +0.000 F 
ATOM     20  C   UNL     1       2.079   2.609  17.890  0.00  0.00    +0.000 A 
ATOM     21  C   UNL     1       2.364   3.936  17.565  0.00  0.00    +0.000 A 
ENDBRANCH  14  15
ENDBRANCH  13  14
ENDBRANCH   1  13
TORSDOF 6
ENDMDL
MODEL 2
REMARK VINA RESULT:      -7.2      2.304      2.873
REMARK  Name = 
REMARK  7 active torsions:
REMARK  status: ('A' for Active; 'I' for Inactive)
REMARK    1  A    between atoms: C_1  and  C_2
REMARK    2  A    between atoms: C_2  and  N_3
REMARK    3  A    between atoms: C_5  and  S_6
REMARK    4  A    between atoms: S_6  and  N_9
REMARK    5  A    between atoms: N_9  and  C_10
REMARK    6  A    between atoms: C_10  and  C_11
REMARK    7  A    between atoms: C_11  and  C_12
REMARK                            x       y       z     vdW  Elec       q    Type
REMARK                         _______ _______ _______ _____ _____    ______ ____
ROOT
ATOM      1  N   UNL     1       5.638   4.136  17.251  0.00  0.00    +0.000 NA
ATOM      2  H   UNL     1       6.127   3.697  18.033  0.00  0.00    +0.000 HD
ENDROOT
BRANCH   1   3
ATOM      3  S   UNL     1       6.781   4.991  16.338  0.00  0.00    +0.000 S 
ATOM      4  O   UNL     1       8.078   4.509  16.757  0.00  0.00    +0.000 OA
ATOM      5  O   UNL     1       6.434   6.392  16.355  0.00  0.00    +0.000 OA
BRANCH   3   8
ATOM      6  N   UNL     1       6.195   3.584  12.797  0.00  0.00    +0.000 N 
ATOM      7  C   UNL     1       5.807   3.641  14.105  0.00  0.00    +0.000 A 
ATOM      8  C   UNL     1       6.672   4.532  14.701  0.00  0.00    +0.000 A 
ATOM      9  C   UNL     1       7.514   4.980  13.675  0.00  0.00    +0.000 A 
ATOM     10  N   UNL     1       7.217   4.412  12.502  0.00  0.00    +0.000 NA
BRANCH   6  12
ATOM     11  C   UNL     1       6.701   1.754  11.237  0.00  0.00    +0.000 C 
ATOM     12  C   UNL     1       5.653   2.717  11.767  0.00  0.00    +0.000 C 
ENDBRANCH   6  12
ENDBRANCH   3   8
ENDBRANCH   1   3
BRANCH   1  13
ATOM     13  C   UNL     1       4.435   4.904  17.638  0.00  0.00    +0.000 C 
BRANCH  13  14
ATOM     14  C   UNL     1       3.176   4.063  17.408  0.00  0.00    +0.000 C 
BRANCH  14  15
ATOM     15  C   UNL     1       2.593   3.599  18.722  0.00  0.00    +0.000 A 
ATOM     16  C   UNL     1       1.252   3.863  19.039  0.00  0.00    +0.000 A 
ATOM     17  C   UNL     1       0.733   3.482  20.277  0.00  0.00    +0.000 A 
ATOM     18  C   UNL     1       1.553   2.840  21.197  0.00  0.00    +0.000 A 
ATOM     19  F   UNL     1       1.054   2.480  22.387  0.00  0.00    +0.000 F 
ATOM     20  C   UNL     1       2.884   2.571  20.904  0.00  0.00    +0.000 A 
ATOM     21  C   UNL     1       3.406   2.951  19.666  0.00  0.00    +0.000 A 
ENDBRANCH  14  15
ENDBRANCH  13  14
ENDBRANCH   1  13
TORSDOF 6
ENDMDL
MODEL 3
REMARK VINA RESULT:      -7.2      1.425      1.674
REMARK  Name = 
REMARK  7 active torsions:
REMARK  status: ('A' for Active; 'I' for Inactive)
REMARK    1  A    between atoms: C_1  and  C_2
REMARK    2  A    between atoms: C_2  and  N_3
REMARK    3  A    between atoms: C_5  and  S_6
REMARK    4  A    between atoms: S_6  and  N_9
REMARK    5  A    between atoms: N_9  and  C_10
REMARK    6  A    between atoms: C_10  and  C_11
REMARK    7  A    between atoms: C_11  and  C_12
REMARK                            x       y       z     vdW  Elec       q    Type
REMARK                         _______ _______ _______ _____ _____    ______ ____
ROOT
ATOM      1  N   UNL     1       5.425   6.132  18.161  0.00  0.00    +0.000 NA
ATOM      2  H   UNL     1       6.201   6.779  18.310  0.00  0.00    +0.000 HD
ENDROOT
BRANCH   1   3
ATOM      3  S   UNL     1       6.077   4.632  17.718  0.00  0.00    +0.000 S 
ATOM      4  O   UNL     1       5.061   3.646  18.008  0.00  0.00    +0.000 OA
ATOM      5  O   UNL     1       7.419   4.537  18.241  0.00  0.00    +0.000 OA
BRANCH   3   8
ATOM      6  N   UNL     1       6.168   4.054  13.907  0.00  0.00    +0.000 N 
ATOM      7  C   UNL     1       5.583   3.783  15.111  0.00  0.00    +0.000 A 
ATOM      8  C   UNL     1       6.260   4.560  16.025  0.00  0.00    +0.000 A 
ATOM      9  C   UNL     1       7.202   5.281  15.281  0.00  0.00    +0.000 A 
ATOM     10  N   UNL     1       7.141   4.985  13.978  0.00  0.00    +0.000 NA
BRANCH   6  12
ATOM     11  C   UNL     1       7.122   3.251  11.790  0.00  0.00    +0.000 C 
ATOM     12  C   UNL     1       5.872   3.420  12.636  0.00  0.00    +0.000 C 
ENDBRANCH   6  12
ENDBRANCH   3   8
ENDBRANCH   1   3
BRANCH   1  13
ATOM     13  C   UNL     1       4.364   6.648  17.270  0.00  0.00    +0.000 C 
BRANCH  13  14
ATOM     14  C   UNL     1       3.162   7.114  18.096  0.00  0.00    +0.000 C 
BRANCH  14  15
ATOM     15  C   UNL     1       2.411   5.934  18.666  0.00  0.00    +0.000 A 
ATOM     16  C   UNL     1       2.227   5.809  20.052  0.00  0.00    +0.000 A 
ATOM     17  C   UNL     1       1.583   4.689  20.578  0.00  0.00    +0.000 A 
ATOM     18  C   UNL     1       1.127   3.693  19.722  0.00  0.00    +0.000 A 
ATOM     19  F   UNL     1       0.513   2.616  20.230  0.00  0.00    +0.000 F 
ATOM     20  C   UNL     1       1.302   3.797  18.348  0.00  0.00    +0.000 A 
ATOM     21  C   UNL     1       1.945   4.916  17.818  0.00  0.00    +0.000 A 
ENDBRANCH  14  15
ENDBRANCH  13  14
ENDBRANCH   1  13
TORSDOF 6
ENDMDL
MODEL 4
REMARK VINA RESULT:      -7.1      2.296      2.717
REMARK  Name = 
REMARK  7 active torsions:
REMARK  status: ('A' for Active; 'I' for Inactive)
REMARK    1  A    between atoms: C_1  and  C_2
REMARK    2  A    between atoms: C_2  and  N_3
REMARK    3  A    between atoms: C_5  and  S_6
REMARK    4  A    between atoms: S_6  and  N_9
REMARK    5  A    between atoms: N_9  and  C_10
REMARK    6  A    between atoms: C_10  and  C_11
REMARK    7  A    between atoms: C_11  and  C_12
REMARK                            x       y       z     vdW  Elec       q    Type
REMARK                         _______ _______ _______ _____ _____    ______ ____
ROOT
ATOM      1  N   UNL     1       5.559   4.560  17.299  0.00  0.00    +0.000 NA
ATOM      2  H   UNL     1       5.896   4.309  18.230  0.00  0.00    +0.000 HD
ENDROOT
BRANCH   1   3
ATOM      3  S   UNL     1       6.886   5.113  16.400  0.00  0.00    +0.000 S 
ATOM      4  O   UNL     1       8.035   4.380  16.879  0.00  0.00    +0.000 OA
ATOM      5  O   UNL     1       6.849   6.556  16.361  0.00  0.00    +0.000 OA
BRANCH   3   8
ATOM      6  N   UNL     1       6.186   3.648  12.903  0.00  0.00    +0.000 N 
ATOM      7  C   UNL     1       5.838   3.729  14.221  0.00  0.00    +0.000 A 
ATOM      8  C   UNL     1       6.724   4.627  14.775  0.00  0.00    +0.000 A 
ATOM      9  C   UNL     1       7.537   5.052  13.717  0.00  0.00    +0.000 A 
ATOM     10  N   UNL     1       7.202   4.465  12.563  0.00  0.00    +0.000 NA
BRANCH   6  12
ATOM     11  C   UNL     1       4.273   3.286  11.404  0.00  0.00    +0.000 C 
ATOM     12  C   UNL     1       5.609   2.766  11.906  0.00  0.00    +0.000 C 
ENDBRANCH   6  12
ENDBRANCH   3   8
ENDBRANCH   1   3
BRANCH   1  13
ATOM     13  C   UNL     1       4.379   5.450  17.296  0.00  0.00    +0.000 C 
BRANCH  13  14
ATOM     14  C   UNL     1       4.117   5.984  18.707  0.00  0.00    +0.000 C 
BRANCH  14  15
ATOM     15  C   UNL     1       3.250   5.028  19.491  0.00  0.00    +0.000 A 
ATOM     16  C   UNL     1       2.001   5.439  19.982  0.00  0.00    +0.000 A 
ATOM     17  C   UNL     1       1.228   4.570  20.754  0.00  0.00    +0.000 A 
ATOM     18  C   UNL     1       1.702   3.295  21.037  0.00  0.00    +0.000 A 
ATOM     19  F   UNL     1       0.960   2.465  21.782  0.00  0.00    +0.000 F 
ATOM     20  C   UNL     1       2.936   2.870  20.562  0.00  0.00    +0.000 A 
ATOM     21  C   UNL     1       3.712   3.736  19.790  0.00  0.00    +0.000 A 
ENDBRANCH  14  15
ENDBRANCH  13  14
ENDBRANCH   1  13
TORSDOF 6
ENDMDL
MODEL 5
REMARK VINA RESULT:      -7.0      1.432      1.685
REMARK  Name = 
REMARK  7 active torsions:
REMARK  status: ('A' for Active; 'I' for Inactive)
REMARK    1  A    between atoms: C_1  and  C_2
REMARK    2  A    between atoms: C_2  and  N_3
REMARK    3  A    between atoms: C_5  and  S_6
REMARK    4  A    between atoms: S_6  and  N_9
REMARK    5  A    between atoms: N_9  and  C_10
REMARK    6  A    between atoms: C_10  and  C_11
REMARK    7  A    between atoms: C_11  and  C_12
REMARK                            x       y       z     vdW  Elec       q    Type
REMARK                         _______ _______ _______ _____ _____    ______ ____
ROOT
ATOM      1  N   UNL     1       4.590   5.739  18.238  0.00  0.00    +0.000 NA
ATOM      2  H   UNL     1       5.191   6.549  18.080  0.00  0.00    +0.000 HD
ENDROOT
BRANCH   1   3
ATOM      3  S   UNL     1       5.457   4.353  17.789  0.00  0.00    +0.000 S 
ATOM      4  O   UNL     1       4.481   3.304  17.607  0.00  0.00    +0.000 OA
ATOM      5  O   UNL     1       6.592   4.211  18.670  0.00  0.00    +0.000 OA
BRANCH   3   8
ATOM      6  N   UNL     1       6.675   4.448  14.132  0.00  0.00    +0.000 N 
ATOM      7  C   UNL     1       5.767   3.992  15.044  0.00  0.00    +0.000 A 
ATOM      8  C   UNL     1       6.131   4.572  16.239  0.00  0.00    +0.000 A 
ATOM      9  C   UNL     1       7.237   5.379  15.943  0.00  0.00    +0.000 A 
ATOM     10  N   UNL     1       7.567   5.318  14.648  0.00  0.00    +0.000 NA
BRANCH   6  12
ATOM     11  C   UNL     1       5.594   3.208  12.307  0.00  0.00    +0.000 C 
ATOM     12  C   UNL     1       6.777   4.057  12.738  0.00  0.00    +0.000 C 
ENDBRANCH   6  12
ENDBRANCH   3   8
ENDBRANCH   1   3
BRANCH   1  13
ATOM     13  C   UNL     1       3.239   5.857  17.649  0.00  0.00    +0.000 C 
BRANCH  13  14
ATOM     14  C   UNL     1       2.220   6.217  18.733  0.00  0.00    +0.000 C 
BRANCH  14  15
ATOM     15  C   UNL     1       1.958   5.035  19.638  0.00  0.00    +0.000 A 
ATOM     16  C   UNL     1       2.395   5.050  20.971  0.00  0.00    +0.000 A 
ATOM     17  C   UNL     1       2.200   3.934  21.787  0.00  0.00    +0.000 A 
ATOM     18  C   UNL     1       1.575   2.806  21.270  0.00  0.00    +0.000 A 
ATOM     19  F   UNL     1       1.394   1.734  22.054  0.00  0.00    +0.000 F 
ATOM     20  C   UNL     1       1.138   2.771  19.952  0.00  0.00    +0.000 A 
ATOM     21  C   UNL     1       1.329   3.885  19.134  0.00  0.00    +0.000 A 
ENDBRANCH  14  15
ENDBRANCH  13  14
ENDBRANCH   1  13
TORSDOF 6
ENDMDL
MODEL 6
REMARK VINA RESULT:      -7.0      1.683      2.339
REMARK  Name = 
REMARK  7 active torsions:
REMARK  status: ('A' for Active; 'I' for Inactive)
REMARK    1  A    between atoms: C_1  and  C_2
REMARK    2  A    between atoms: C_2  and  N_3
REMARK    3  A    between atoms: C_5  and  S_6
REMARK    4  A    between atoms: S_6  and  N_9
REMARK    5  A    between atoms: N_9  and  C_10
REMARK    6  A    between atoms: C_10  and  C_11
REMARK    7  A    between atoms: C_11  and  C_12
REMARK                            x       y       z     vdW  Elec       q    Type
REMARK                         _______ _______ _______ _____ _____    ______ ____
ROOT
ATOM      1  N   UNL     1       5.658   6.412  17.962  0.00  0.00    +0.000 NA
ATOM      2  H   UNL     1       5.905   7.261  18.472  0.00  0.00    +0.000 HD
ENDROOT
BRANCH   1   3
ATOM      3  S   UNL     1       7.072   5.801  17.255  0.00  0.00    +0.000 S 
ATOM      4  O   UNL     1       7.604   4.828  18.182  0.00  0.00    +0.000 OA
ATOM      5  O   UNL     1       7.857   6.907  16.760  0.00  0.00    +0.000 OA
BRANCH   3   8
ATOM      6  N   UNL     1       6.465   4.089  13.854  0.00  0.00    +0.000 N 
ATOM      7  C   UNL     1       7.169   5.001  14.588  0.00  0.00    +0.000 A 
ATOM      8  C   UNL     1       6.677   4.890  15.870  0.00  0.00    +0.000 A 
ATOM      9  C   UNL     1       5.715   3.873  15.817  0.00  0.00    +0.000 A 
ATOM     10  N   UNL     1       5.591   3.369  14.585  0.00  0.00    +0.000 NA
BRANCH   6  12
ATOM     11  C   UNL     1       5.648   2.742  11.968  0.00  0.00    +0.000 C 
ATOM     12  C   UNL     1       6.548   3.879  12.421  0.00  0.00    +0.000 C 
ENDBRANCH   6  12
ENDBRANCH   3   8
ENDBRANCH   1   3
BRANCH   1  13
ATOM     13  C   UNL     1       4.508   6.563  17.046  0.00  0.00    +0.000 C 
BRANCH  13  14
ATOM     14  C   UNL     1       3.265   6.998  17.828  0.00  0.00    +0.000 C 
BRANCH  14  15
ATOM     15  C   UNL     1       2.605   5.813  18.492  0.00  0.00    +0.000 A 
ATOM     16  C   UNL     1       2.159   4.725  17.726  0.00  0.00    +0.000 A 
ATOM     17  C   UNL     1       1.500   3.658  18.337  0.00  0.00    +0.000 A 
ATOM     18  C   UNL     1       1.284   3.679  19.710  0.00  0.00    +0.000 A 
ATOM     19  F   UNL     1       0.646   2.655  20.293  0.00  0.00    +0.000 F 
ATOM     20  C   UNL     1       1.715   4.747  20.485  0.00  0.00    +0.000 A 
ATOM     21  C   UNL     1       2.376   5.816  19.877  0.00  0.00    +0.000 A 
ENDBRANCH  14  15
ENDBRANCH  13  14
ENDBRANCH   1  13
TORSDOF 6
ENDMDL
MODEL 7
REMARK VINA RESULT:      -7.0      1.769      2.347
REMARK  Name = 
REMARK  7 active torsions:
REMARK  status: ('A' for Active; 'I' for Inactive)
REMARK    1  A    between atoms: C_1  and  C_2
REMARK    2  A    between atoms: C_2  and  N_3
REMARK    3  A    between atoms: C_5  and  S_6
REMARK    4  A    between atoms: S_6  and  N_9
REMARK    5  A    between atoms: N_9  and  C_10
REMARK    6  A    between atoms: C_10  and  C_11
REMARK    7  A    between atoms: C_11  and  C_12
REMARK                            x       y       z     vdW  Elec       q    Type
REMARK                         _______ _______ _______ _____ _____    ______ ____
ROOT
ATOM      1  N   UNL     1       5.807   6.188  18.108  0.00  0.00    +0.000 NA
ATOM      2  H   UNL     1       5.057   6.432  17.460  0.00  0.00    +0.000 HD
ENDROOT
BRANCH   1   3
ATOM      3  S   UNL     1       7.123   5.634  17.194  0.00  0.00    +0.000 S 
ATOM      4  O   UNL     1       7.755   4.598  17.979  0.00  0.00    +0.000 OA
ATOM      5  O   UNL     1       7.850   6.774  16.689  0.00  0.00    +0.000 OA
BRANCH   3   8
ATOM      6  N   UNL     1       6.279   3.982  13.814  0.00  0.00    +0.000 N 
ATOM      7  C   UNL     1       7.199   4.610  14.604  0.00  0.00    +0.000 A 
ATOM      8  C   UNL     1       6.559   4.823  15.805  0.00  0.00    +0.000 A 
ATOM      9  C   UNL     1       5.283   4.265  15.655  0.00  0.00    +0.000 A 
ATOM     10  N   UNL     1       5.110   3.735  14.439  0.00  0.00    +0.000 NA
BRANCH   6  12
ATOM     11  C   UNL     1       5.114   3.215  11.791  0.00  0.00    +0.000 C 
ATOM     12  C   UNL     1       6.436   3.621  12.417  0.00  0.00    +0.000 C 
ENDBRANCH   6  12
ENDBRANCH   3   8
ENDBRANCH   1   3
BRANCH   1  13
ATOM     13  C   UNL     1       5.392   5.304  19.217  0.00  0.00    +0.000 C 
BRANCH  13  14
ATOM     14  C   UNL     1       3.997   5.698  19.712  0.00  0.00    +0.000 C 
BRANCH  14  15
ATOM     15  C   UNL     1       2.985   4.628  19.375  0.00  0.00    +0.000 A 
ATOM     16  C   UNL     1       2.364   4.606  18.116  0.00  0.00    +0.000 A 
ATOM     17  C   UNL     1       1.389   3.649  17.829  0.00  0.00    +0.000 A 
ATOM     18  C   UNL     1       1.034   2.719  18.798  0.00  0.00    +0.000 A 
ATOM     19  F   UNL     1       0.094   1.805  18.522  0.00  0.00    +0.000 F 
ATOM     20  C   UNL     1       1.635   2.725  20.050  0.00  0.00    +0.000 A 
ATOM     21  C   UNL     1       2.611   3.680  20.341  0.00  0.00    +0.000 A 
ENDBRANCH  14  15
ENDBRANCH  13  14
ENDBRANCH   1  13
TORSDOF 6
ENDMDL
MODEL 8
REMARK VINA RESULT:      -7.0      1.923      2.519
REMARK  Name = 
REMARK  7 active torsions:
REMARK  status: ('A' for Active; 'I' for Inactive)
REMARK    1  A    between atoms: C_1  and  C_2
REMARK    2  A    between atoms: C_2  and  N_3
REMARK    3  A    between atoms: C_5  and  S_6
REMARK    4  A    between atoms: S_6  and  N_9
REMARK    5  A    between atoms: N_9  and  C_10
REMARK    6  A    between atoms: C_10  and  C_11
REMARK    7  A    between atoms: C_11  and  C_12
REMARK                            x       y       z     vdW  Elec       q    Type
REMARK                         _______ _______ _______ _____ _____    ______ ____
ROOT
ATOM      1  N   UNL     1       5.205   6.311  16.793  0.00  0.00    +0.000 NA
ATOM      2  H   UNL     1       4.675   6.444  15.931  0.00  0.00    +0.000 HD
ENDROOT
BRANCH   1   3
ATOM      3  S   UNL     1       6.194   4.949  16.589  0.00  0.00    +0.000 S 
ATOM      4  O   UNL     1       5.476   3.836  17.166  0.00  0.00    +0.000 OA
ATOM      5  O   UNL     1       7.540   5.290  16.985  0.00  0.00    +0.000 OA
BRANCH   3   8
ATOM      6  N   UNL     1       6.096   3.700  12.943  0.00  0.00    +0.000 N 
ATOM      7  C   UNL     1       5.534   3.700  14.188  0.00  0.00    +0.000 A 
ATOM      8  C   UNL     1       6.308   4.562  14.934  0.00  0.00    +0.000 A 
ATOM      9  C   UNL     1       7.281   5.051  14.052  0.00  0.00    +0.000 A 
ATOM     10  N   UNL     1       7.147   4.536  12.826  0.00  0.00    +0.000 NA
BRANCH   6  12
ATOM     11  C   UNL     1       4.275   3.175  11.380  0.00  0.00    +0.000 C 
ATOM     12  C   UNL     1       5.700   2.880  11.813  0.00  0.00    +0.000 C 
ENDBRANCH   6  12
ENDBRANCH   3   8
ENDBRANCH   1   3
BRANCH   1  13
ATOM     13  C   UNL     1       4.383   6.316  18.021  0.00  0.00    +0.000 C 
BRANCH  13  14
ATOM     14  C   UNL     1       2.955   5.865  17.702  0.00  0.00    +0.000 C 
BRANCH  14  15
ATOM     15  C   UNL     1       2.421   4.961  18.789  0.00  0.00    +0.000 A 
ATOM     16  C   UNL     1       1.551   3.906  18.473  0.00  0.00    +0.000 A 
ATOM     17  C   UNL     1       1.016   3.109  19.487  0.00  0.00    +0.000 A 
ATOM     18  C   UNL     1       1.347   3.368  20.811  0.00  0.00    +0.000 A 
ATOM     19  F   UNL     1       0.828   2.604  21.782  0.00  0.00    +0.000 F 
ATOM     20  C   UNL     1       2.204   4.409  21.144  0.00  0.00    +0.000 A 
ATOM     21  C   UNL     1       2.742   5.208  20.133  0.00  0.00    +0.000 A 
ENDBRANCH  14  15
ENDBRANCH  13  14
ENDBRANCH   1  13
TORSDOF 6
ENDMDL
MODEL 9
REMARK VINA RESULT:      -7.0      2.436      3.714
REMARK  Name = 
REMARK  7 active torsions:
REMARK  status: ('A' for Active; 'I' for Inactive)
REMARK    1  A    between atoms: C_1  and  C_2
REMARK    2  A    between atoms: C_2  and  N_3
REMARK    3  A    between atoms: C_5  and  S_6
REMARK    4  A    between atoms: S_6  and  N_9
REMARK    5  A    between atoms: N_9  and  C_10
REMARK    6  A    between atoms: C_10  and  C_11
REMARK    7  A    between atoms: C_11  and  C_12
REMARK                            x       y       z     vdW  Elec       q    Type
REMARK                         _______ _______ _______ _____ _____    ______ ____
ROOT
ATOM      1  N   UNL     1       5.523   4.920  16.674  0.00  0.00    +0.000 NA
ATOM      2  H   UNL     1       5.834   4.768  15.713  0.00  0.00    +0.000 HD
ENDROOT
BRANCH   1   3
ATOM      3  S   UNL     1       6.900   5.005  17.658  0.00  0.00    +0.000 S 
ATOM      4  O   UNL     1       7.963   4.352  16.927  0.00  0.00    +0.000 OA
ATOM      5  O   UNL     1       6.536   4.620  19.001  0.00  0.00    +0.000 OA
BRANCH   3   8
ATOM      6  N   UNL     1       8.322   8.513  18.390  0.00  0.00    +0.000 N 
ATOM      7  C   UNL     1       8.348   7.171  18.643  0.00  0.00    +0.000 A 
ATOM      8  C   UNL     1       7.415   6.624  17.791  0.00  0.00    +0.000 A 
ATOM      9  C   UNL     1       6.909   7.698  17.048  0.00  0.00    +0.000 A 
ATOM     10  N   UNL     1       7.473   8.858  17.402  0.00  0.00    +0.000 NA
BRANCH   6  12
ATOM     11  C   UNL     1       9.330  10.746  18.205  0.00  0.00    +0.000 C 
ATOM     12  C   UNL     1       9.064   9.543  19.093  0.00  0.00    +0.000 C 
ENDBRANCH   6  12
ENDBRANCH   3   8
ENDBRANCH   1   3
BRANCH   1  13
ATOM     13  C   UNL     1       4.476   3.981  17.132  0.00  0.00    +0.000 C 
BRANCH  13  14
ATOM     14  C   UNL     1       3.222   4.753  17.552  0.00  0.00    +0.000 C 
BRANCH  14  15
ATOM     15  C   UNL     1       2.609   4.148  18.793  0.00  0.00    +0.000 A 
ATOM     16  C   UNL     1       1.891   2.944  18.717  0.00  0.00    +0.000 A 
ATOM     17  C   UNL     1       1.278   2.418  19.856  0.00  0.00    +0.000 A 
ATOM     18  C   UNL     1       1.380   3.095  21.065  0.00  0.00    +0.000 A 
ATOM     19  F   UNL     1       0.787   2.590  22.155  0.00  0.00    +0.000 F 
ATOM     20  C   UNL     1       2.084   4.288  21.160  0.00  0.00    +0.000 A 
ATOM     21  C   UNL     1       2.698   4.817  20.024  0.00  0.00    +0.000 A 
ENDBRANCH  14  15
ENDBRANCH  13  14
ENDBRANCH   1  13
TORSDOF 6
ENDMDL
