MODEL 1
REMARK VINA RESULT:      -8.1      0.000      0.000
REMARK  Name = 
REMARK  6 active torsions:
REMARK  status: ('A' for Active; 'I' for Inactive)
REMARK    1  A    between atoms: C_2  and  C_5
REMARK    2  A    between atoms: C_8  and  C_9
REMARK    3  A    between atoms: C_9  and  N_10
REMARK    4  A    between atoms: N_10  and  C_11
REMARK    5  A    between atoms: N_14  and  C_15
REMARK    6  A    between atoms: C_15  and  C_16
REMARK                            x       y       z     vdW  Elec       q    Type
REMARK                         _______ _______ _______ _____ _____    ______ ____
ROOT
ATOM      1  N   UNL     1       7.957   7.648  18.178  0.00  0.00    +0.000 NA
ATOM      2  H   UNL     1       7.444   7.572  19.058  0.00  0.00    +0.000 HD
ENDROOT
BRANCH   1   3
ATOM      3  C   UNL     1       7.529   6.552  17.277  0.00  0.00    +0.000 C 
ATOM      4  C   UNL     1       6.087   6.765  16.744  0.00  0.00    +0.000 C 
ATOM      5  C   UNL     1       4.949   6.284  17.680  0.00  0.00    +0.000 C 
ATOM      6  N   UNL     1       5.229   4.947  18.230  0.00  0.00    +0.000 NA
ATOM      7  C   UNL     1       6.494   5.024  18.975  0.00  0.00    +0.000 C 
ATOM      8  C   UNL     1       7.602   5.173  17.940  0.00  0.00    +0.000 C 
BRANCH   6   9
ATOM      9  C   UNL     1       4.182   4.388  19.100  0.00  0.00    +0.000 C 
BRANCH   9  10
ATOM     10  C   UNL     1       2.780   5.051  19.049  0.00  0.00    +0.000 C 
ATOM     11  C   UNL     1       1.759   4.362  18.121  0.00  0.00    +0.000 C 
ATOM     12  C   UNL     1       1.204   3.040  18.654  0.00  0.00    +0.000 C 
ATOM     13  C   UNL     1       0.683   3.149  20.085  0.00  0.00    +0.000 C 
ATOM     14  C   UNL     1       1.702   3.793  21.015  0.00  0.00    +0.000 C 
ATOM     15  C   UNL     1       2.184   5.140  20.473  0.00  0.00    +0.000 C 
ENDBRANCH   9  10
ENDBRANCH   6   9
ENDBRANCH   1   3
BRANCH   1  16
ATOM     16  C   UNL     1       7.671   8.979  17.617  0.00  0.00    +0.000 C 
BRANCH  16  20
ATOM     17  C   UNL     1       9.980  12.167  19.435  0.00  0.00    +0.000 A 
ATOM     18  C   UNL     1       9.282  12.378  18.236  0.00  0.00    +0.000 A 
ATOM     19  C   UNL     1       8.567  11.337  17.641  0.00  0.00    +0.000 A 
ATOM     20  C   UNL     1       8.538  10.063  18.220  0.00  0.00    +0.000 A 
ATOM     21  C   UNL     1       9.239   9.847  19.414  0.00  0.00    +0.000 A 
ATOM     22  C   UNL     1       9.962  10.883  20.012  0.00  0.00    +0.000 A 
BRANCH  17  24
ATOM     23  F   UNL     1      10.462  14.517  19.588  0.00  0.00    +0.000 F 
ATOM     24  C   UNL     1      10.743  13.284  20.097  0.00  0.00    +0.000 C 
ATOM     25  F   UNL     1      12.091  13.134  19.979  0.00  0.00    +0.000 F 
ATOM     26  F   UNL     1      10.494  13.368  21.436  0.00  0.00    +0.000 F 
ENDBRANCH  17  24
ENDBRANCH  16  20
ENDBRANCH   1  16
TORSDOF 6
ENDMDL
MODEL 2
REMARK VINA RESULT:      -8.0      0.870      1.609
REMARK  Name = 
REMARK  6 active torsions:
REMARK  status: ('A' for Active; 'I' for Inactive)
REMARK    1  A    between atoms: C_2  and  C_5
REMARK    2  A    between atoms: C_8  and  C_9
REMARK    3  A    between atoms: C_9  and  N_10
REMARK    4  A    between atoms: N_10  and  C_11
REMARK    5  A    between atoms: N_14  and  C_15
REMARK    6  A    between atoms: C_15  and  C_16
REMARK                            x       y       z     vdW  Elec       q    Type
REMARK                         _______ _______ _______ _____ _____    ______ ____
ROOT
ATOM      1  N   UNL     1       7.297   7.899  17.385  0.00  0.00    +0.000 NA
ATOM      2  H   UNL     1       7.494   8.481  16.569  0.00  0.00    +0.000 HD
ENDROOT
BRANCH   1   3
ATOM      3  C   UNL     1       7.301   6.477  16.972  0.00  0.00    +0.000 C 
ATOM      4  C   UNL     1       6.001   6.083  16.220  0.00  0.00    +0.000 C 
ATOM      5  C   UNL     1       4.797   5.700  17.118  0.00  0.00    +0.000 C 
ATOM      6  N   UNL     1       5.200   4.790  18.203  0.00  0.00    +0.000 NA
ATOM      7  C   UNL     1       6.227   5.471  19.004  0.00  0.00    +0.000 C 
ATOM      8  C   UNL     1       7.489   5.515  18.151  0.00  0.00    +0.000 C 
BRANCH   6   9
ATOM      9  C   UNL     1       4.113   4.336  19.086  0.00  0.00    +0.000 C 
BRANCH   9  10
ATOM     10  C   UNL     1       2.684   4.865  18.791  0.00  0.00    +0.000 C 
ATOM     11  C   UNL     1       1.788   3.916  17.970  0.00  0.00    +0.000 C 
ATOM     12  C   UNL     1       1.267   2.704  18.743  0.00  0.00    +0.000 C 
ATOM     13  C   UNL     1       0.621   3.081  20.073  0.00  0.00    +0.000 C 
ATOM     14  C   UNL     1       1.518   3.986  20.906  0.00  0.00    +0.000 C 
ATOM     15  C   UNL     1       1.966   5.216  20.114  0.00  0.00    +0.000 C 
ENDBRANCH   9  10
ENDBRANCH   6   9
ENDBRANCH   1   3
BRANCH   1  16
ATOM     16  C   UNL     1       8.329   8.194  18.394  0.00  0.00    +0.000 C 
BRANCH  16  20
ATOM     17  C   UNL     1       9.414  12.388  18.557  0.00  0.00    +0.000 A 
ATOM     18  C   UNL     1       9.960  11.468  19.465  0.00  0.00    +0.000 A 
ATOM     19  C   UNL     1       9.581  10.125  19.426  0.00  0.00    +0.000 A 
ATOM     20  C   UNL     1       8.645   9.670  18.489  0.00  0.00    +0.000 A 
ATOM     21  C   UNL     1       8.093  10.587  17.584  0.00  0.00    +0.000 A 
ATOM     22  C   UNL     1       8.464  11.934  17.622  0.00  0.00    +0.000 A 
BRANCH  17  24
ATOM     23  F   UNL     1      10.432  14.218  19.736  0.00  0.00    +0.000 F 
ATOM     24  C   UNL     1       9.824  13.837  18.577  0.00  0.00    +0.000 C 
ATOM     25  F   UNL     1       8.766  14.679  18.420  0.00  0.00    +0.000 F 
ATOM     26  F   UNL     1      10.699  14.148  17.577  0.00  0.00    +0.000 F 
ENDBRANCH  17  24
ENDBRANCH  16  20
ENDBRANCH   1  16
TORSDOF 6
ENDMDL
MODEL 3
REMARK VINA RESULT:      -8.0      0.839      1.608
REMARK  Name = 
REMARK  6 active torsions:
REMARK  status: ('A' for Active; 'I' for Inactive)
REMARK    1  A    between atoms: C_2  and  C_5
REMARK    2  A    between atoms: C_8  and  C_9
REMARK    3  A    between atoms: C_9  and  N_10
REMARK    4  A    between atoms: N_10  and  C_11
REMARK    5  A    between atoms: N_14  and  C_15
REMARK    6  A    between atoms: C_15  and  C_16
REMARK                            x       y       z     vdW  Elec       q    Type
REMARK                         _______ _______ _______ _____ _____    ______ ____
ROOT
ATOM      1  N   UNL     1       7.971   7.714  18.196  0.00  0.00    +0.000 NA
ATOM      2  H   UNL     1       7.552   7.678  19.127  0.00  0.00    +0.000 HD
ENDROOT
BRANCH   1   3
ATOM      3  C   UNL     1       7.474   6.566  17.402  0.00  0.00    +0.000 C 
ATOM      4  C   UNL     1       6.071   6.839  16.796  0.00  0.00    +0.000 C 
ATOM      5  C   UNL     1       4.870   6.561  17.736  0.00  0.00    +0.000 C 
ATOM      6  N   UNL     1       5.017   5.273  18.436  0.00  0.00    +0.000 NA
ATOM      7  C   UNL     1       6.263   5.325  19.214  0.00  0.00    +0.000 C 
ATOM      8  C   UNL     1       7.409   5.266  18.211  0.00  0.00    +0.000 C 
BRANCH   6   9
ATOM      9  C   UNL     1       3.903   4.902  19.321  0.00  0.00    +0.000 C 
BRANCH   9  10
ATOM     10  C   UNL     1       3.241   3.516  19.096  0.00  0.00    +0.000 C 
ATOM     11  C   UNL     1       3.490   2.479  20.209  0.00  0.00    +0.000 C 
ATOM     12  C   UNL     1       2.711   2.731  21.501  0.00  0.00    +0.000 C 
ATOM     13  C   UNL     1       1.220   2.954  21.261  0.00  0.00    +0.000 C 
ATOM     14  C   UNL     1       0.967   4.006  20.190  0.00  0.00    +0.000 C 
ATOM     15  C   UNL     1       1.717   3.682  18.896  0.00  0.00    +0.000 C 
ENDBRANCH   9  10
ENDBRANCH   6   9
ENDBRANCH   1   3
BRANCH   1  16
ATOM     16  C   UNL     1       7.604   9.009  17.600  0.00  0.00    +0.000 C 
BRANCH  16  20
ATOM     17  C   UNL     1      10.131  12.224  19.039  0.00  0.00    +0.000 A 
ATOM     18  C   UNL     1      10.200  10.945  19.610  0.00  0.00    +0.000 A 
ATOM     19  C   UNL     1       9.360   9.924  19.162  0.00  0.00    +0.000 A 
ATOM     20  C   UNL     1       8.428  10.155  18.143  0.00  0.00    +0.000 A 
ATOM     21  C   UNL     1       8.352  11.434  17.574  0.00  0.00    +0.000 A 
ATOM     22  C   UNL     1       9.186  12.462  18.022  0.00  0.00    +0.000 A 
BRANCH  17  24
ATOM     23  F   UNL     1      10.408  14.289  20.237  0.00  0.00    +0.000 F 
ATOM     24  C   UNL     1      11.041  13.332  19.501  0.00  0.00    +0.000 C 
ATOM     25  F   UNL     1      11.628  13.990  18.464  0.00  0.00    +0.000 F 
ATOM     26  F   UNL     1      12.065  12.878  20.281  0.00  0.00    +0.000 F 
ENDBRANCH  17  24
ENDBRANCH  16  20
ENDBRANCH   1  16
TORSDOF 6
ENDMDL
MODEL 4
REMARK VINA RESULT:      -7.9      0.861      1.130
REMARK  Name = 
REMARK  6 active torsions:
REMARK  status: ('A' for Active; 'I' for Inactive)
REMARK    1  A    between atoms: C_2  and  C_5
REMARK    2  A    between atoms: C_8  and  C_9
REMARK    3  A    between atoms: C_9  and  N_10
REMARK    4  A    between atoms: N_10  and  C_11
REMARK    5  A    between atoms: N_14  and  C_15
REMARK    6  A    between atoms: C_15  and  C_16
REMARK                            x       y       z     vdW  Elec       q    Type
REMARK                         _______ _______ _______ _____ _____    ______ ____
ROOT
ATOM      1  N   UNL     1       7.262   7.917  17.386  0.00  0.00    +0.000 NA
ATOM      2  H   UNL     1       7.441   8.553  16.607  0.00  0.00    +0.000 HD
ENDROOT
BRANCH   1   3
ATOM      3  C   UNL     1       7.262   6.525  16.879  0.00  0.00    +0.000 C 
ATOM      4  C   UNL     1       5.953   6.181  16.119  0.00  0.00    +0.000 C 
ATOM      5  C   UNL     1       4.760   5.738  17.005  0.00  0.00    +0.000 C 
ATOM      6  N   UNL     1       5.177   4.757  18.021  0.00  0.00    +0.000 NA
ATOM      7  C   UNL     1       6.214   5.386  18.853  0.00  0.00    +0.000 C 
ATOM      8  C   UNL     1       7.465   5.487  17.989  0.00  0.00    +0.000 C 
BRANCH   6   9
ATOM      9  C   UNL     1       4.102   4.245  18.886  0.00  0.00    +0.000 C 
BRANCH   9  10
ATOM     10  C   UNL     1       2.688   4.859  18.709  0.00  0.00    +0.000 C 
ATOM     11  C   UNL     1       1.665   3.958  17.986  0.00  0.00    +0.000 C 
ATOM     12  C   UNL     1       1.142   2.790  18.823  0.00  0.00    +0.000 C 
ATOM     13  C   UNL     1       0.640   3.223  20.198  0.00  0.00    +0.000 C 
ATOM     14  C   UNL     1       1.662   4.080  20.933  0.00  0.00    +0.000 C 
ATOM     15  C   UNL     1       2.112   5.270  20.083  0.00  0.00    +0.000 C 
ENDBRANCH   9  10
ENDBRANCH   6   9
ENDBRANCH   1   3
BRANCH   1  16
ATOM     16  C   UNL     1       8.314   8.148  18.391  0.00  0.00    +0.000 C 
BRANCH  16  20
ATOM     17  C   UNL     1       9.278  12.359  18.762  0.00  0.00    +0.000 A 
ATOM     18  C   UNL     1       8.498  11.891  17.694  0.00  0.00    +0.000 A 
ATOM     19  C   UNL     1       8.218  10.529  17.565  0.00  0.00    +0.000 A 
ATOM     20  C   UNL     1       8.716   9.603  18.489  0.00  0.00    +0.000 A 
ATOM     21  C   UNL     1       9.502  10.065  19.553  0.00  0.00    +0.000 A 
ATOM     22  C   UNL     1       9.790  11.427  19.685  0.00  0.00    +0.000 A 
BRANCH  17  24
ATOM     23  F   UNL     1      10.366  14.336  17.937  0.00  0.00    +0.000 F 
ATOM     24  C   UNL     1       9.576  13.826  18.923  0.00  0.00    +0.000 C 
ATOM     25  F   UNL     1      10.218  14.101  20.092  0.00  0.00    +0.000 F 
ATOM     26  F   UNL     1       8.446  14.592  18.930  0.00  0.00    +0.000 F 
ENDBRANCH  17  24
ENDBRANCH  16  20
ENDBRANCH   1  16
TORSDOF 6
ENDMDL
MODEL 5
REMARK VINA RESULT:      -7.8      5.575      7.541
REMARK  Name = 
REMARK  6 active torsions:
REMARK  status: ('A' for Active; 'I' for Inactive)
REMARK    1  A    between atoms: C_2  and  C_5
REMARK    2  A    between atoms: C_8  and  C_9
REMARK    3  A    between atoms: C_9  and  N_10
REMARK    4  A    between atoms: N_10  and  C_11
REMARK    5  A    between atoms: N_14  and  C_15
REMARK    6  A    between atoms: C_15  and  C_16
REMARK                            x       y       z     vdW  Elec       q    Type
REMARK                         _______ _______ _______ _____ _____    ______ ____
ROOT
ATOM      1  N   UNL     1       0.819   4.184  20.585  0.00  0.00    +0.000 NA
ATOM      2  H   UNL     1       0.391   4.615  19.764  0.00  0.00    +0.000 HD
ENDROOT
BRANCH   1   3
ATOM      3  C   UNL     1       1.222   2.800  20.245  0.00  0.00    +0.000 C 
ATOM      4  C   UNL     1       2.686   2.499  20.664  0.00  0.00    +0.000 C 
ATOM      5  C   UNL     1       3.777   2.943  19.656  0.00  0.00    +0.000 C 
ATOM      6  N   UNL     1       3.425   2.565  18.277  0.00  0.00    +0.000 NA
ATOM      7  C   UNL     1       2.145   3.209  17.948  0.00  0.00    +0.000 C 
ATOM      8  C   UNL     1       1.072   2.486  18.752  0.00  0.00    +0.000 C 
BRANCH   6   9
ATOM      9  C   UNL     1       4.422   2.908  17.252  0.00  0.00    +0.000 C 
BRANCH   9  10
ATOM     10  C   UNL     1       4.654   4.414  16.955  0.00  0.00    +0.000 C 
ATOM     11  C   UNL     1       5.854   5.052  17.684  0.00  0.00    +0.000 C 
ATOM     12  C   UNL     1       7.222   4.649  17.131  0.00  0.00    +0.000 C 
ATOM     13  C   UNL     1       7.325   4.821  15.618  0.00  0.00    +0.000 C 
ATOM     14  C   UNL     1       6.163   4.159  14.890  0.00  0.00    +0.000 C 
ATOM     15  C   UNL     1       4.815   4.636  15.433  0.00  0.00    +0.000 C 
ENDBRANCH   9  10
ENDBRANCH   6   9
ENDBRANCH   1   3
BRANCH   1  16
ATOM     16  C   UNL     1       1.965   5.023  20.974  0.00  0.00    +0.000 C 
BRANCH  16  20
ATOM     17  C   UNL     1       1.595   8.948  19.170  0.00  0.00    +0.000 A 
ATOM     18  C   UNL     1       2.268   7.911  18.505  0.00  0.00    +0.000 A 
ATOM     19  C   UNL     1       2.410   6.660  19.107  0.00  0.00    +0.000 A 
ATOM     20  C   UNL     1       1.894   6.414  20.385  0.00  0.00    +0.000 A 
ATOM     21  C   UNL     1       1.227   7.449  21.055  0.00  0.00    +0.000 A 
ATOM     22  C   UNL     1       1.086   8.706  20.460  0.00  0.00    +0.000 A 
BRANCH  17  24
ATOM     23  F   UNL     1       2.371  10.588  17.594  0.00  0.00    +0.000 F 
ATOM     24  C   UNL     1       1.421  10.298  18.527  0.00  0.00    +0.000 C 
ATOM     25  F   UNL     1       1.468  11.315  19.432  0.00  0.00    +0.000 F 
ATOM     26  F   UNL     1       0.221  10.424  17.889  0.00  0.00    +0.000 F 
ENDBRANCH  17  24
ENDBRANCH  16  20
ENDBRANCH   1  16
TORSDOF 6
ENDMDL
MODEL 6
REMARK VINA RESULT:      -7.8      4.133      6.411
REMARK  Name = 
REMARK  6 active torsions:
REMARK  status: ('A' for Active; 'I' for Inactive)
REMARK    1  A    between atoms: C_2  and  C_5
REMARK    2  A    between atoms: C_8  and  C_9
REMARK    3  A    between atoms: C_9  and  N_10
REMARK    4  A    between atoms: N_10  and  C_11
REMARK    5  A    between atoms: N_14  and  C_15
REMARK    6  A    between atoms: C_15  and  C_16
REMARK                            x       y       z     vdW  Elec       q    Type
REMARK                         _______ _______ _______ _____ _____    ______ ____
ROOT
ATOM      1  N   UNL     1       3.720   2.120  19.666  0.00  0.00    +0.000 NA
ATOM      2  H   UNL     1       4.308   2.735  20.232  0.00  0.00    +0.000 HD
ENDROOT
BRANCH   1   3
ATOM      3  C   UNL     1       2.350   2.115  20.229  0.00  0.00    +0.000 C 
ATOM      4  C   UNL     1       1.298   2.629  19.209  0.00  0.00    +0.000 C 
ATOM      5  C   UNL     1       1.137   4.169  19.131  0.00  0.00    +0.000 C 
ATOM      6  N   UNL     1       1.065   4.773  20.472  0.00  0.00    +0.000 NA
ATOM      7  C   UNL     1       2.305   4.433  21.185  0.00  0.00    +0.000 C 
ATOM      8  C   UNL     1       2.229   2.947  21.510  0.00  0.00    +0.000 C 
BRANCH   6   9
ATOM      9  C   UNL     1       0.870   6.231  20.500  0.00  0.00    +0.000 C 
BRANCH   9  10
ATOM     10  C   UNL     1       2.130   7.125  20.354  0.00  0.00    +0.000 C 
ATOM     11  C   UNL     1       2.817   7.073  18.974  0.00  0.00    +0.000 C 
ATOM     12  C   UNL     1       2.067   7.808  17.861  0.00  0.00    +0.000 C 
ATOM     13  C   UNL     1       1.682   9.233  18.246  0.00  0.00    +0.000 C 
ATOM     14  C   UNL     1       0.968   9.287  19.590  0.00  0.00    +0.000 C 
ATOM     15  C   UNL     1       1.780   8.594  20.685  0.00  0.00    +0.000 C 
ENDBRANCH   9  10
ENDBRANCH   6   9
ENDBRANCH   1   3
BRANCH   1  16
ATOM     16  C   UNL     1       3.757   2.628  18.284  0.00  0.00    +0.000 C 
BRANCH  16  20
ATOM     17  C   UNL     1       6.397   6.039  17.842  0.00  0.00    +0.000 A 
ATOM     18  C   UNL     1       6.296   5.361  19.066  0.00  0.00    +0.000 A 
ATOM     19  C   UNL     1       5.420   4.284  19.209  0.00  0.00    +0.000 A 
ATOM     20  C   UNL     1       4.619   3.862  18.140  0.00  0.00    +0.000 A 
ATOM     21  C   UNL     1       4.713   4.540  16.917  0.00  0.00    +0.000 A 
ATOM     22  C   UNL     1       5.583   5.623  16.769  0.00  0.00    +0.000 A 
BRANCH  17  24
ATOM     23  F   UNL     1       6.740   8.413  17.698  0.00  0.00    +0.000 F 
ATOM     24  C   UNL     1       7.348   7.193  17.667  0.00  0.00    +0.000 C 
ATOM     25  F   UNL     1       8.017   7.141  16.483  0.00  0.00    +0.000 F 
ATOM     26  F   UNL     1       8.309   7.231  18.636  0.00  0.00    +0.000 F 
ENDBRANCH  17  24
ENDBRANCH  16  20
ENDBRANCH   1  16
TORSDOF 6
ENDMDL
MODEL 7
REMARK VINA RESULT:      -7.7      0.704      1.076
REMARK  Name = 
REMARK  6 active torsions:
REMARK  status: ('A' for Active; 'I' for Inactive)
REMARK    1  A    between atoms: C_2  and  C_5
REMARK    2  A    between atoms: C_8  and  C_9
REMARK    3  A    between atoms: C_9  and  N_10
REMARK    4  A    between atoms: N_10  and  C_11
REMARK    5  A    between atoms: N_14  and  C_15
REMARK    6  A    between atoms: C_15  and  C_16
REMARK                            x       y       z     vdW  Elec       q    Type
REMARK                         _______ _______ _______ _____ _____    ______ ____
ROOT
ATOM      1  N   UNL     1       7.500   8.269  18.112  0.00  0.00    +0.000 NA
ATOM      2  H   UNL     1       6.590   8.729  18.179  0.00  0.00    +0.000 HD
ENDROOT
BRANCH   1   3
ATOM      3  C   UNL     1       7.340   6.989  17.385  0.00  0.00    +0.000 C 
ATOM      4  C   UNL     1       5.956   6.881  16.691  0.00  0.00    +0.000 C 
ATOM      5  C   UNL     1       4.793   6.385  17.588  0.00  0.00    +0.000 C 
ATOM      6  N   UNL     1       5.189   5.217  18.391  0.00  0.00    +0.000 NA
ATOM      7  C   UNL     1       6.334   5.612  19.225  0.00  0.00    +0.000 C 
ATOM      8  C   UNL     1       7.526   5.764  18.288  0.00  0.00    +0.000 C 
BRANCH   6   9
ATOM      9  C   UNL     1       4.136   4.647  19.245  0.00  0.00    +0.000 C 
BRANCH   9  10
ATOM     10  C   UNL     1       2.676   5.104  18.980  0.00  0.00    +0.000 C 
ATOM     11  C   UNL     1       1.893   4.246  17.966  0.00  0.00    +0.000 C 
ATOM     12  C   UNL     1       1.455   2.878  18.491  0.00  0.00    +0.000 C 
ATOM     13  C   UNL     1       0.736   2.961  19.835  0.00  0.00    +0.000 C 
ATOM     14  C   UNL     1       1.524   3.773  20.854  0.00  0.00    +0.000 C 
ATOM     15  C   UNL     1       1.887   5.155  20.309  0.00  0.00    +0.000 C 
ENDBRANCH   9  10
ENDBRANCH   6   9
ENDBRANCH   1   3
BRANCH   1  16
ATOM     16  C   UNL     1       8.410   9.198  17.420  0.00  0.00    +0.000 C 
BRANCH  16  20
ATOM     17  C   UNL     1       9.531  12.487  20.013  0.00  0.00    +0.000 A 
ATOM     18  C   UNL     1       9.134  12.719  18.687  0.00  0.00    +0.000 A 
ATOM     19  C   UNL     1       8.805  11.652  17.850  0.00  0.00    +0.000 A 
ATOM     20  C   UNL     1       8.872  10.331  18.309  0.00  0.00    +0.000 A 
ATOM     21  C   UNL     1       9.274  10.095  19.631  0.00  0.00    +0.000 A 
ATOM     22  C   UNL     1       9.610  11.159  20.473  0.00  0.00    +0.000 A 
BRANCH  17  24
ATOM     23  F   UNL     1       9.710  13.335  22.254  0.00  0.00    +0.000 F 
ATOM     24  C   UNL     1       9.874  13.629  20.933  0.00  0.00    +0.000 C 
ATOM     25  F   UNL     1       9.109  14.732  20.701  0.00  0.00    +0.000 F 
ATOM     26  F   UNL     1      11.168  14.039  20.799  0.00  0.00    +0.000 F 
ENDBRANCH  17  24
ENDBRANCH  16  20
ENDBRANCH   1  16
TORSDOF 6
ENDMDL
MODEL 8
REMARK VINA RESULT:      -7.6      0.625      1.149
REMARK  Name = 
REMARK  6 active torsions:
REMARK  status: ('A' for Active; 'I' for Inactive)
REMARK    1  A    between atoms: C_2  and  C_5
REMARK    2  A    between atoms: C_8  and  C_9
REMARK    3  A    between atoms: C_9  and  N_10
REMARK    4  A    between atoms: N_10  and  C_11
REMARK    5  A    between atoms: N_14  and  C_15
REMARK    6  A    between atoms: C_15  and  C_16
REMARK                            x       y       z     vdW  Elec       q    Type
REMARK                         _______ _______ _______ _____ _____    ______ ____
ROOT
ATOM      1  N   UNL     1       7.411   8.197  18.006  0.00  0.00    +0.000 NA
ATOM      2  H   UNL     1       6.511   8.669  17.897  0.00  0.00    +0.000 HD
ENDROOT
BRANCH   1   3
ATOM      3  C   UNL     1       7.349   6.881  17.330  0.00  0.00    +0.000 C 
ATOM      4  C   UNL     1       6.008   6.674  16.577  0.00  0.00    +0.000 C 
ATOM      5  C   UNL     1       4.827   6.159  17.439  0.00  0.00    +0.000 C 
ATOM      6  N   UNL     1       5.240   5.046  18.311  0.00  0.00    +0.000 NA
ATOM      7  C   UNL     1       6.321   5.534  19.180  0.00  0.00    +0.000 C 
ATOM      8  C   UNL     1       7.549   5.706  18.295  0.00  0.00    +0.000 C 
BRANCH   6   9
ATOM      9  C   UNL     1       4.174   4.461  19.139  0.00  0.00    +0.000 C 
BRANCH   9  10
ATOM     10  C   UNL     1       2.742   5.036  18.973  0.00  0.00    +0.000 C 
ATOM     11  C   UNL     1       1.810   4.224  18.051  0.00  0.00    +0.000 C 
ATOM     12  C   UNL     1       1.301   2.913  18.653  0.00  0.00    +0.000 C 
ATOM     13  C   UNL     1       0.701   3.094  20.045  0.00  0.00    +0.000 C 
ATOM     14  C   UNL     1       1.633   3.861  20.972  0.00  0.00    +0.000 C 
ATOM     15  C   UNL     1       2.068   5.192  20.356  0.00  0.00    +0.000 C 
ENDBRANCH   9  10
ENDBRANCH   6   9
ENDBRANCH   1   3
BRANCH   1  16
ATOM     16  C   UNL     1       8.440   9.077  17.427  0.00  0.00    +0.000 C 
BRANCH  16  20
ATOM     17  C   UNL     1       9.564  12.435  19.930  0.00  0.00    +0.000 A 
ATOM     18  C   UNL     1       9.591  11.124  20.430  0.00  0.00    +0.000 A 
ATOM     19  C   UNL     1       9.198  10.052  19.627  0.00  0.00    +0.000 A 
ATOM     20  C   UNL     1       8.760  10.261  18.314  0.00  0.00    +0.000 A 
ATOM     21  C   UNL     1       8.726  11.569  17.813  0.00  0.00    +0.000 A 
ATOM     22  C   UNL     1       9.113  12.648  18.613  0.00  0.00    +0.000 A 
BRANCH  17  24
ATOM     23  F   UNL     1       9.281  14.737  20.558  0.00  0.00    +0.000 F 
ATOM     24  C   UNL     1      10.000  13.600  20.778  0.00  0.00    +0.000 C 
ATOM     25  F   UNL     1      11.302  13.938  20.568  0.00  0.00    +0.000 F 
ATOM     26  F   UNL     1       9.894  13.344  22.115  0.00  0.00    +0.000 F 
ENDBRANCH  17  24
ENDBRANCH  16  20
ENDBRANCH   1  16
TORSDOF 6
ENDMDL
MODEL 9
REMARK VINA RESULT:      -7.6      6.032      7.893
REMARK  Name = 
REMARK  6 active torsions:
REMARK  status: ('A' for Active; 'I' for Inactive)
REMARK    1  A    between atoms: C_2  and  C_5
REMARK    2  A    between atoms: C_8  and  C_9
REMARK    3  A    between atoms: C_9  and  N_10
REMARK    4  A    between atoms: N_10  and  C_11
REMARK    5  A    between atoms: N_14  and  C_15
REMARK    6  A    between atoms: C_15  and  C_16
REMARK                            x       y       z     vdW  Elec       q    Type
REMARK                         _______ _______ _______ _____ _____    ______ ____
ROOT
ATOM      1  N   UNL     1       7.624   6.428  16.212  0.00  0.00    +0.000 NA
ATOM      2  H   UNL     1       6.990   6.780  15.493  0.00  0.00    +0.000 HD
ENDROOT
BRANCH   1   3
ATOM      3  C   UNL     1       7.264   7.042  17.511  0.00  0.00    +0.000 C 
ATOM      4  C   UNL     1       7.579   6.104  18.707  0.00  0.00    +0.000 C 
ATOM      5  C   UNL     1       6.493   5.048  19.035  0.00  0.00    +0.000 C 
ATOM      6  N   UNL     1       5.145   5.641  19.035  0.00  0.00    +0.000 NA
ATOM      7  C   UNL     1       4.905   6.212  17.702  0.00  0.00    +0.000 C 
ATOM      8  C   UNL     1       5.789   7.448  17.590  0.00  0.00    +0.000 C 
BRANCH   6   9
ATOM      9  C   UNL     1       4.048   4.722  19.378  0.00  0.00    +0.000 C 
BRANCH   9  10
ATOM     10  C   UNL     1       2.599   5.204  19.102  0.00  0.00    +0.000 C 
ATOM     11  C   UNL     1       1.849   4.435  17.995  0.00  0.00    +0.000 C 
ATOM     12  C   UNL     1       1.393   3.030  18.393  0.00  0.00    +0.000 C 
ATOM     13  C   UNL     1       0.629   3.007  19.714  0.00  0.00    +0.000 C 
ATOM     14  C   UNL     1       1.382   3.730  20.821  0.00  0.00    +0.000 C 
ATOM     15  C   UNL     1       1.765   5.151  20.403  0.00  0.00    +0.000 C 
ENDBRANCH   9  10
ENDBRANCH   6   9
ENDBRANCH   1   3
BRANCH   1  16
ATOM     16  C   UNL     1       7.496   4.961  16.230  0.00  0.00    +0.000 C 
BRANCH  16  20
ATOM     17  C   UNL     1       5.318   3.605  12.735  0.00  0.00    +0.000 A 
ATOM     18  C   UNL     1       4.764   3.487  14.019  0.00  0.00    +0.000 A 
ATOM     19  C   UNL     1       5.485   3.897  15.142  0.00  0.00    +0.000 A 
ATOM     20  C   UNL     1       6.775   4.425  15.013  0.00  0.00    +0.000 A 
ATOM     21  C   UNL     1       7.335   4.539  13.733  0.00  0.00    +0.000 A 
ATOM     22  C   UNL     1       6.620   4.125  12.605  0.00  0.00    +0.000 A 
BRANCH  17  24
ATOM     23  F   UNL     1       3.224   2.954  11.753  0.00  0.00    +0.000 F 
ATOM     24  C   UNL     1       4.546   3.182  11.514  0.00  0.00    +0.000 C 
ATOM     25  F   UNL     1       5.028   2.031  10.968  0.00  0.00    +0.000 F 
ATOM     26  F   UNL     1       4.590   4.113  10.517  0.00  0.00    +0.000 F 
ENDBRANCH  17  24
ENDBRANCH  16  20
ENDBRANCH   1  16
TORSDOF 6
ENDMDL
