MODEL 1
REMARK VINA RESULT:      -7.4      0.000      0.000
REMARK  Name = 
REMARK  9 active torsions:
REMARK  status: ('A' for Active; 'I' for Inactive)
REMARK    1  A    between atoms: C_1  and  O_2
REMARK    2  A    between atoms: O_2  and  C_3
REMARK    3  A    between atoms: C_6  and  C_7
REMARK    4  A    between atoms: C_7  and  C_8
REMARK    5  A    between atoms: C_8  and  N_9
REMARK    6  A    between atoms: C_10  and  C_12
REMARK    7  A    between atoms: C_12  and  C_13
REMARK    8  A    between atoms: C_13  and  C_14
REMARK    9  A    between atoms: C_14  and  N_15
REMARK                            x       y       z     vdW  Elec       q    Type
REMARK                         _______ _______ _______ _____ _____    ______ ____
ROOT
ATOM      1  N   UNL     1       4.503   6.798  16.686  0.00  0.00    +0.000 N 
ATOM      2  C   UNL     1       5.871   6.719  16.805  0.00  0.00    +0.000 C 
ATOM      3  O   UNL     1       6.523   7.505  17.485  0.00  0.00    +0.000 OA
ATOM      4  H   UNL     1       4.000   6.067  16.199  0.00  0.00    +0.000 HD
ENDROOT
BRANCH   1   5
ATOM      5  C   UNL     1       3.750   7.742  17.501  0.00  0.00    +0.000 C 
BRANCH   5   6
ATOM      6  C   UNL     1       2.557   7.090  18.212  0.00  0.00    +0.000 C 
BRANCH   6  10
ATOM      7  C   UNL     1       0.661   9.668  21.113  0.00  0.00    +0.000 A 
ATOM      8  C   UNL     1       0.840  10.095  19.796  0.00  0.00    +0.000 A 
ATOM      9  C   UNL     1       1.452   9.262  18.859  0.00  0.00    +0.000 A 
ATOM     10  C   UNL     1       1.910   7.991  19.230  0.00  0.00    +0.000 A 
ATOM     11  C   UNL     1       1.751   7.577  20.557  0.00  0.00    +0.000 A 
ATOM     12  C   UNL     1       1.129   8.411  21.493  0.00  0.00    +0.000 A 
BRANCH   7  14
ATOM     13  C   UNL     1      -0.624  10.019  23.064  0.00  0.00    +0.000 C 
ATOM     14  O   UNL     1       0.056  10.572  21.943  0.00  0.00    +0.000 OA
ENDBRANCH   7  14
ENDBRANCH   6  10
ENDBRANCH   5   6
ENDBRANCH   1   5
BRANCH   2  15
ATOM     15  C   UNL     1       6.525   5.599  16.030  0.00  0.00    +0.000 C 
BRANCH  15  16
ATOM     16  C   UNL     1       5.465   4.620  15.506  0.00  0.00    +0.000 C 
BRANCH  16  17
ATOM     17  C   UNL     1       5.269   3.435  16.469  0.00  0.00    +0.000 C 
BRANCH  17  18
ATOM     18  N   UNL     1       4.270   3.659  17.500  0.00  0.00    +0.000 N 
ATOM     19  C   UNL     1       4.593   3.835  18.812  0.00  0.00    +0.000 C 
ATOM     20  O   UNL     1       5.685   3.932  19.347  0.00  0.00    +0.000 OA
ATOM     21  C   UNL     1       3.351   3.793  19.567  0.00  0.00    +0.000 A 
ATOM     22  C   UNL     1       3.146   3.967  20.921  0.00  0.00    +0.000 A 
ATOM     23  C   UNL     1       1.855   3.758  21.400  0.00  0.00    +0.000 A 
ATOM     24  C   UNL     1       0.820   3.363  20.526  0.00  0.00    +0.000 A 
ATOM     25  C   UNL     1       1.055   3.207  19.152  0.00  0.00    +0.000 A 
ATOM     26  C   UNL     1       2.338   3.449  18.694  0.00  0.00    +0.000 A 
ATOM     27  C   UNL     1       2.935   3.352  17.358  0.00  0.00    +0.000 C 
ATOM     28  O   UNL     1       2.319   3.008  16.367  0.00  0.00    +0.000 OA
ENDBRANCH  17  18
ENDBRANCH  16  17
ENDBRANCH  15  16
ENDBRANCH   2  15
TORSDOF 8
ENDMDL
MODEL 2
REMARK VINA RESULT:      -7.2      1.770      4.389
REMARK  Name = 
REMARK  9 active torsions:
REMARK  status: ('A' for Active; 'I' for Inactive)
REMARK    1  A    between atoms: C_1  and  O_2
REMARK    2  A    between atoms: O_2  and  C_3
REMARK    3  A    between atoms: C_6  and  C_7
REMARK    4  A    between atoms: C_7  and  C_8
REMARK    5  A    between atoms: C_8  and  N_9
REMARK    6  A    between atoms: C_10  and  C_12
REMARK    7  A    between atoms: C_12  and  C_13
REMARK    8  A    between atoms: C_13  and  C_14
REMARK    9  A    between atoms: C_14  and  N_15
REMARK                            x       y       z     vdW  Elec       q    Type
REMARK                         _______ _______ _______ _____ _____    ______ ____
ROOT
ATOM      1  N   UNL     1       1.675   4.648  19.643  0.00  0.00    +0.000 N 
ATOM      2  C   UNL     1       1.713   3.347  20.087  0.00  0.00    +0.000 C 
ATOM      3  O   UNL     1       1.930   3.053  21.258  0.00  0.00    +0.000 OA
ATOM      4  H   UNL     1       1.390   4.844  18.693  0.00  0.00    +0.000 HD
ENDROOT
BRANCH   1   5
ATOM      5  C   UNL     1       1.741   5.750  20.595  0.00  0.00    +0.000 C 
BRANCH   5   6
ATOM      6  C   UNL     1       2.218   7.058  19.953  0.00  0.00    +0.000 C 
BRANCH   6  10
ATOM      7  C   UNL     1       0.102  10.541  21.387  0.00  0.00    +0.000 A 
ATOM      8  C   UNL     1       0.414   9.493  22.255  0.00  0.00    +0.000 A 
ATOM      9  C   UNL     1       1.098   8.369  21.792  0.00  0.00    +0.000 A 
ATOM     10  C   UNL     1       1.468   8.268  20.445  0.00  0.00    +0.000 A 
ATOM     11  C   UNL     1       1.131   9.308  19.572  0.00  0.00    +0.000 A 
ATOM     12  C   UNL     1       0.453  10.439  20.041  0.00  0.00    +0.000 A 
BRANCH   7  14
ATOM     13  C   UNL     1      -1.407  11.258  23.057  0.00  0.00    +0.000 C 
ATOM     14  O   UNL     1      -0.575  11.587  21.951  0.00  0.00    +0.000 OA
ENDBRANCH   7  14
ENDBRANCH   6  10
ENDBRANCH   5   6
ENDBRANCH   1   5
BRANCH   2  15
ATOM     15  C   UNL     1       1.478   2.295  19.029  0.00  0.00    +0.000 C 
BRANCH  15  16
ATOM     16  C   UNL     1       2.106   2.727  17.696  0.00  0.00    +0.000 C 
BRANCH  16  17
ATOM     17  C   UNL     1       3.615   2.429  17.663  0.00  0.00    +0.000 C 
BRANCH  17  18
ATOM     18  N   UNL     1       4.461   3.598  17.842  0.00  0.00    +0.000 N 
ATOM     19  C   UNL     1       4.886   4.365  16.797  0.00  0.00    +0.000 C 
ATOM     20  O   UNL     1       4.604   4.306  15.613  0.00  0.00    +0.000 OA
ATOM     21  C   UNL     1       5.885   5.282  17.322  0.00  0.00    +0.000 A 
ATOM     22  C   UNL     1       6.575   6.285  16.671  0.00  0.00    +0.000 A 
ATOM     23  C   UNL     1       7.568   6.944  17.393  0.00  0.00    +0.000 A 
ATOM     24  C   UNL     1       7.856   6.570  18.722  0.00  0.00    +0.000 A 
ATOM     25  C   UNL     1       7.129   5.556  19.362  0.00  0.00    +0.000 A 
ATOM     26  C   UNL     1       6.128   4.936  18.636  0.00  0.00    +0.000 A 
ATOM     27  C   UNL     1       5.213   3.839  18.969  0.00  0.00    +0.000 C 
ATOM     28  O   UNL     1       5.212   3.263  20.040  0.00  0.00    +0.000 OA
ENDBRANCH  17  18
ENDBRANCH  16  17
ENDBRANCH  15  16
ENDBRANCH   2  15
TORSDOF 8
ENDMDL
MODEL 3
REMARK VINA RESULT:      -7.0      0.596      2.008
REMARK  Name = 
REMARK  9 active torsions:
REMARK  status: ('A' for Active; 'I' for Inactive)
REMARK    1  A    between atoms: C_1  and  O_2
REMARK    2  A    between atoms: O_2  and  C_3
REMARK    3  A    between atoms: C_6  and  C_7
REMARK    4  A    between atoms: C_7  and  C_8
REMARK    5  A    between atoms: C_8  and  N_9
REMARK    6  A    between atoms: C_10  and  C_12
REMARK    7  A    between atoms: C_12  and  C_13
REMARK    8  A    between atoms: C_13  and  C_14
REMARK    9  A    between atoms: C_14  and  N_15
REMARK                            x       y       z     vdW  Elec       q    Type
REMARK                         _______ _______ _______ _____ _____    ______ ____
ROOT
ATOM      1  N   UNL     1       3.832   6.755  16.835  0.00  0.00    +0.000 N 
ATOM      2  C   UNL     1       5.185   6.639  16.616  0.00  0.00    +0.000 C 
ATOM      3  O   UNL     1       6.022   7.100  17.386  0.00  0.00    +0.000 OA
ATOM      4  H   UNL     1       3.184   6.270  16.228  0.00  0.00    +0.000 HD
ENDROOT
BRANCH   1   5
ATOM      5  C   UNL     1       3.337   7.306  18.089  0.00  0.00    +0.000 C 
BRANCH   5   6
ATOM      6  C   UNL     1       2.067   8.147  17.906  0.00  0.00    +0.000 C 
BRANCH   6  10
ATOM      7  C   UNL     1       0.772  10.025  21.574  0.00  0.00    +0.000 A 
ATOM      8  C   UNL     1       1.238   8.709  21.578  0.00  0.00    +0.000 A 
ATOM      9  C   UNL     1       1.657   8.104  20.393  0.00  0.00    +0.000 A 
ATOM     10  C   UNL     1       1.601   8.801  19.180  0.00  0.00    +0.000 A 
ATOM     11  C   UNL     1       1.108  10.110  19.176  0.00  0.00    +0.000 A 
ATOM     12  C   UNL     1       0.697  10.720  20.367  0.00  0.00    +0.000 A 
BRANCH   7  14
ATOM     13  C   UNL     1      -0.963  10.233  23.165  0.00  0.00    +0.000 C 
ATOM     14  O   UNL     1       0.382  10.512  22.791  0.00  0.00    +0.000 OA
ENDBRANCH   7  14
ENDBRANCH   6  10
ENDBRANCH   5   6
ENDBRANCH   1   5
BRANCH   2  15
ATOM     15  C   UNL     1       5.577   5.911  15.352  0.00  0.00    +0.000 C 
BRANCH  15  16
ATOM     16  C   UNL     1       4.958   4.506  15.329  0.00  0.00    +0.000 C 
BRANCH  16  17
ATOM     17  C   UNL     1       5.451   3.655  16.513  0.00  0.00    +0.000 C 
BRANCH  17  18
ATOM     18  N   UNL     1       4.487   3.510  17.590  0.00  0.00    +0.000 N 
ATOM     19  C   UNL     1       3.160   3.289  17.365  0.00  0.00    +0.000 C 
ATOM     20  O   UNL     1       2.563   3.087  16.322  0.00  0.00    +0.000 OA
ATOM     21  C   UNL     1       2.482   3.435  18.643  0.00  0.00    +0.000 A 
ATOM     22  C   UNL     1       1.145   3.263  18.946  0.00  0.00    +0.000 A 
ATOM     23  C   UNL     1       0.742   3.582  20.241  0.00  0.00    +0.000 A 
ATOM     24  C   UNL     1       1.669   4.081  21.179  0.00  0.00    +0.000 A 
ATOM     25  C   UNL     1       3.024   4.232  20.847  0.00  0.00    +0.000 A 
ATOM     26  C   UNL     1       3.407   3.881  19.565  0.00  0.00    +0.000 A 
ATOM     27  C   UNL     1       4.703   3.939  18.880  0.00  0.00    +0.000 C 
ATOM     28  O   UNL     1       5.723   4.350  19.401  0.00  0.00    +0.000 OA
ENDBRANCH  17  18
ENDBRANCH  16  17
ENDBRANCH  15  16
ENDBRANCH   2  15
TORSDOF 8
ENDMDL
MODEL 4
REMARK VINA RESULT:      -7.0      3.838      5.355
REMARK  Name = 
REMARK  9 active torsions:
REMARK  status: ('A' for Active; 'I' for Inactive)
REMARK    1  A    between atoms: C_1  and  O_2
REMARK    2  A    between atoms: O_2  and  C_3
REMARK    3  A    between atoms: C_6  and  C_7
REMARK    4  A    between atoms: C_7  and  C_8
REMARK    5  A    between atoms: C_8  and  N_9
REMARK    6  A    between atoms: C_10  and  C_12
REMARK    7  A    between atoms: C_12  and  C_13
REMARK    8  A    between atoms: C_13  and  C_14
REMARK    9  A    between atoms: C_14  and  N_15
REMARK                            x       y       z     vdW  Elec       q    Type
REMARK                         _______ _______ _______ _____ _____    ______ ____
ROOT
ATOM      1  N   UNL     1       7.519   6.685  16.832  0.00  0.00    +0.000 N 
ATOM      2  C   UNL     1       6.598   6.253  15.906  0.00  0.00    +0.000 C 
ATOM      3  O   UNL     1       5.586   6.891  15.631  0.00  0.00    +0.000 OA
ATOM      4  H   UNL     1       8.386   6.178  16.949  0.00  0.00    +0.000 HD
ENDROOT
BRANCH   1   5
ATOM      5  C   UNL     1       7.401   8.014  17.418  0.00  0.00    +0.000 C 
BRANCH   5   6
ATOM      6  C   UNL     1       8.487   8.298  18.463  0.00  0.00    +0.000 C 
BRANCH   6  10
ATOM      7  C   UNL     1       9.432  12.494  18.868  0.00  0.00    +0.000 A 
ATOM      8  C   UNL     1       9.810  11.583  19.857  0.00  0.00    +0.000 A 
ATOM      9  C   UNL     1       9.505  10.229  19.725  0.00  0.00    +0.000 A 
ATOM     10  C   UNL     1       8.801   9.764  18.607  0.00  0.00    +0.000 A 
ATOM     11  C   UNL     1       8.401  10.683  17.631  0.00  0.00    +0.000 A 
ATOM     12  C   UNL     1       8.716  12.040  17.760  0.00  0.00    +0.000 A 
BRANCH   7  14
ATOM     13  C   UNL     1       8.972  14.775  18.463  0.00  0.00    +0.000 C 
ATOM     14  O   UNL     1       9.777  13.795  19.108  0.00  0.00    +0.000 OA
ENDBRANCH   7  14
ENDBRANCH   6  10
ENDBRANCH   5   6
ENDBRANCH   1   5
BRANCH   2  15
ATOM     15  C   UNL     1       6.910   4.927  15.252  0.00  0.00    +0.000 C 
BRANCH  15  16
ATOM     16  C   UNL     1       5.834   3.890  15.604  0.00  0.00    +0.000 C 
BRANCH  16  17
ATOM     17  C   UNL     1       5.844   3.558  17.107  0.00  0.00    +0.000 C 
BRANCH  17  18
ATOM     18  N   UNL     1       4.562   3.729  17.768  0.00  0.00    +0.000 N 
ATOM     19  C   UNL     1       4.268   4.819  18.533  0.00  0.00    +0.000 C 
ATOM     20  O   UNL     1       4.911   5.834  18.735  0.00  0.00    +0.000 OA
ATOM     21  C   UNL     1       3.013   4.537  19.211  0.00  0.00    +0.000 A 
ATOM     22  C   UNL     1       2.278   5.343  20.058  0.00  0.00    +0.000 A 
ATOM     23  C   UNL     1       1.160   4.775  20.664  0.00  0.00    +0.000 A 
ATOM     24  C   UNL     1       0.825   3.425  20.429  0.00  0.00    +0.000 A 
ATOM     25  C   UNL     1       1.582   2.634  19.553  0.00  0.00    +0.000 A 
ATOM     26  C   UNL     1       2.670   3.227  18.939  0.00  0.00    +0.000 A 
ATOM     27  C   UNL     1       3.679   2.702  18.013  0.00  0.00    +0.000 C 
ATOM     28  O   UNL     1       3.699   1.551  17.620  0.00  0.00    +0.000 OA
ENDBRANCH  17  18
ENDBRANCH  16  17
ENDBRANCH  15  16
ENDBRANCH   2  15
TORSDOF 8
ENDMDL
MODEL 5
REMARK VINA RESULT:      -7.0      1.762      3.889
REMARK  Name = 
REMARK  9 active torsions:
REMARK  status: ('A' for Active; 'I' for Inactive)
REMARK    1  A    between atoms: C_1  and  O_2
REMARK    2  A    between atoms: O_2  and  C_3
REMARK    3  A    between atoms: C_6  and  C_7
REMARK    4  A    between atoms: C_7  and  C_8
REMARK    5  A    between atoms: C_8  and  N_9
REMARK    6  A    between atoms: C_10  and  C_12
REMARK    7  A    between atoms: C_12  and  C_13
REMARK    8  A    between atoms: C_13  and  C_14
REMARK    9  A    between atoms: C_14  and  N_15
REMARK                            x       y       z     vdW  Elec       q    Type
REMARK                         _______ _______ _______ _____ _____    ______ ____
ROOT
ATOM      1  N   UNL     1       1.774   5.502  19.382  0.00  0.00    +0.000 N 
ATOM      2  C   UNL     1       1.715   4.622  20.438  0.00  0.00    +0.000 C 
ATOM      3  O   UNL     1       2.429   4.729  21.430  0.00  0.00    +0.000 OA
ATOM      4  H   UNL     1       1.096   5.433  18.635  0.00  0.00    +0.000 HD
ENDROOT
BRANCH   1   5
ATOM      5  C   UNL     1       2.592   6.704  19.475  0.00  0.00    +0.000 C 
BRANCH   5   6
ATOM      6  C   UNL     1       1.863   7.956  18.971  0.00  0.00    +0.000 C 
BRANCH   6  10
ATOM      7  C   UNL     1       0.076  10.260  22.159  0.00  0.00    +0.000 A 
ATOM      8  C   UNL     1       0.741   9.065  22.436  0.00  0.00    +0.000 A 
ATOM      9  C   UNL     1       1.319   8.321  21.406  0.00  0.00    +0.000 A 
ATOM     10  C   UNL     1       1.226   8.755  20.078  0.00  0.00    +0.000 A 
ATOM     11  C   UNL     1       0.536   9.941  19.801  0.00  0.00    +0.000 A 
ATOM     12  C   UNL     1      -0.034  10.690  20.836  0.00  0.00    +0.000 A 
BRANCH   7  14
ATOM     13  C   UNL     1      -1.682  11.584  23.018  0.00  0.00    +0.000 C 
ATOM     14  O   UNL     1      -0.456  10.899  23.245  0.00  0.00    +0.000 OA
ENDBRANCH   7  14
ENDBRANCH   6  10
ENDBRANCH   5   6
ENDBRANCH   1   5
BRANCH   2  15
ATOM     15  C   UNL     1       0.716   3.499  20.290  0.00  0.00    +0.000 C 
BRANCH  15  16
ATOM     16  C   UNL     1       1.003   2.690  19.017  0.00  0.00    +0.000 C 
BRANCH  16  17
ATOM     17  C   UNL     1       2.395   2.035  19.070  0.00  0.00    +0.000 C 
BRANCH  17  18
ATOM     18  N   UNL     1       3.447   2.809  18.432  0.00  0.00    +0.000 N 
ATOM     19  C   UNL     1       4.604   3.144  19.071  0.00  0.00    +0.000 C 
ATOM     20  O   UNL     1       5.016   2.821  20.172  0.00  0.00    +0.000 OA
ATOM     21  C   UNL     1       5.297   4.100  18.222  0.00  0.00    +0.000 A 
ATOM     22  C   UNL     1       6.527   4.698  18.407  0.00  0.00    +0.000 A 
ATOM     23  C   UNL     1       6.904   5.672  17.485  0.00  0.00    +0.000 A 
ATOM     24  C   UNL     1       6.040   6.035  16.431  0.00  0.00    +0.000 A 
ATOM     25  C   UNL     1       4.801   5.400  16.260  0.00  0.00    +0.000 A 
ATOM     26  C   UNL     1       4.461   4.415  17.169  0.00  0.00    +0.000 A 
ATOM     27  C   UNL     1       3.259   3.586  17.311  0.00  0.00    +0.000 C 
ATOM     28  O   UNL     1       2.296   3.663  16.572  0.00  0.00    +0.000 OA
ENDBRANCH  17  18
ENDBRANCH  16  17
ENDBRANCH  15  16
ENDBRANCH   2  15
TORSDOF 8
ENDMDL
MODEL 6
REMARK VINA RESULT:      -6.9      0.708      1.184
REMARK  Name = 
REMARK  9 active torsions:
REMARK  status: ('A' for Active; 'I' for Inactive)
REMARK    1  A    between atoms: C_1  and  O_2
REMARK    2  A    between atoms: O_2  and  C_3
REMARK    3  A    between atoms: C_6  and  C_7
REMARK    4  A    between atoms: C_7  and  C_8
REMARK    5  A    between atoms: C_8  and  N_9
REMARK    6  A    between atoms: C_10  and  C_12
REMARK    7  A    between atoms: C_12  and  C_13
REMARK    8  A    between atoms: C_13  and  C_14
REMARK    9  A    between atoms: C_14  and  N_15
REMARK                            x       y       z     vdW  Elec       q    Type
REMARK                         _______ _______ _______ _____ _____    ______ ____
ROOT
ATOM      1  N   UNL     1       4.596   6.882  16.634  0.00  0.00    +0.000 N 
ATOM      2  C   UNL     1       5.898   6.438  16.602  0.00  0.00    +0.000 C 
ATOM      3  O   UNL     1       6.734   6.779  17.433  0.00  0.00    +0.000 OA
ATOM      4  H   UNL     1       3.919   6.494  15.991  0.00  0.00    +0.000 HD
ENDROOT
BRANCH   1   5
ATOM      5  C   UNL     1       4.116   7.665  17.766  0.00  0.00    +0.000 C 
BRANCH   5   6
ATOM      6  C   UNL     1       2.833   7.091  18.380  0.00  0.00    +0.000 C 
BRANCH   6  10
ATOM      7  C   UNL     1       0.198  10.153  19.909  0.00  0.00    +0.000 A 
ATOM      8  C   UNL     1       0.668   9.140  20.747  0.00  0.00    +0.000 A 
ATOM      9  C   UNL     1       1.520   8.152  20.253  0.00  0.00    +0.000 A 
ATOM     10  C   UNL     1       1.902   8.152  18.906  0.00  0.00    +0.000 A 
ATOM     11  C   UNL     1       1.408   9.154  18.063  0.00  0.00    +0.000 A 
ATOM     12  C   UNL     1       0.562  10.150  18.563  0.00  0.00    +0.000 A 
BRANCH   7  14
ATOM     13  C   UNL     1      -0.095  11.757  21.619  0.00  0.00    +0.000 C 
ATOM     14  O   UNL     1      -0.636  11.062  20.501  0.00  0.00    +0.000 OA
ENDBRANCH   7  14
ENDBRANCH   6  10
ENDBRANCH   5   6
ENDBRANCH   1   5
BRANCH   2  15
ATOM     15  C   UNL     1       6.236   5.506  15.462  0.00  0.00    +0.000 C 
BRANCH  15  16
ATOM     16  C   UNL     1       5.195   4.382  15.362  0.00  0.00    +0.000 C 
BRANCH  16  17
ATOM     17  C   UNL     1       5.300   3.413  16.553  0.00  0.00    +0.000 C 
BRANCH  17  18
ATOM     18  N   UNL     1       4.273   3.593  17.565  0.00  0.00    +0.000 N 
ATOM     19  C   UNL     1       4.564   3.778  18.884  0.00  0.00    +0.000 C 
ATOM     20  O   UNL     1       5.641   3.915  19.440  0.00  0.00    +0.000 OA
ATOM     21  C   UNL     1       3.311   3.684  19.615  0.00  0.00    +0.000 A 
ATOM     22  C   UNL     1       3.074   3.844  20.965  0.00  0.00    +0.000 A 
ATOM     23  C   UNL     1       1.782   3.584  21.419  0.00  0.00    +0.000 A 
ATOM     24  C   UNL     1       0.781   3.151  20.524  0.00  0.00    +0.000 A 
ATOM     25  C   UNL     1       1.048   3.009  19.154  0.00  0.00    +0.000 A 
ATOM     26  C   UNL     1       2.329   3.303  18.722  0.00  0.00    +0.000 A 
ATOM     27  C   UNL     1       2.955   3.235  17.397  0.00  0.00    +0.000 C 
ATOM     28  O   UNL     1       2.371   2.870  16.394  0.00  0.00    +0.000 OA
ENDBRANCH  17  18
ENDBRANCH  16  17
ENDBRANCH  15  16
ENDBRANCH   2  15
TORSDOF 8
ENDMDL
MODEL 7
REMARK VINA RESULT:      -6.9      4.233      5.384
REMARK  Name = 
REMARK  9 active torsions:
REMARK  status: ('A' for Active; 'I' for Inactive)
REMARK    1  A    between atoms: C_1  and  O_2
REMARK    2  A    between atoms: O_2  and  C_3
REMARK    3  A    between atoms: C_6  and  C_7
REMARK    4  A    between atoms: C_7  and  C_8
REMARK    5  A    between atoms: C_8  and  N_9
REMARK    6  A    between atoms: C_10  and  C_12
REMARK    7  A    between atoms: C_12  and  C_13
REMARK    8  A    between atoms: C_13  and  C_14
REMARK    9  A    between atoms: C_14  and  N_15
REMARK                            x       y       z     vdW  Elec       q    Type
REMARK                         _______ _______ _______ _____ _____    ______ ____
ROOT
ATOM      1  N   UNL     1       7.891   7.206  17.256  0.00  0.00    +0.000 N 
ATOM      2  C   UNL     1       7.357   6.037  17.746  0.00  0.00    +0.000 C 
ATOM      3  O   UNL     1       7.167   5.847  18.943  0.00  0.00    +0.000 OA
ATOM      4  H   UNL     1       7.933   7.356  16.257  0.00  0.00    +0.000 HD
ENDROOT
BRANCH   1   5
ATOM      5  C   UNL     1       8.111   8.340  18.144  0.00  0.00    +0.000 C 
BRANCH   5   6
ATOM      6  C   UNL     1       8.460   9.626  17.384  0.00  0.00    +0.000 C 
BRANCH   6  10
ATOM      7  C   UNL     1       9.788  12.819  19.974  0.00  0.00    +0.000 A 
ATOM      8  C   UNL     1       9.337  13.095  18.683  0.00  0.00    +0.000 A 
ATOM      9  C   UNL     1       8.907  12.064  17.847  0.00  0.00    +0.000 A 
ATOM     10  C   UNL     1       8.938  10.735  18.286  0.00  0.00    +0.000 A 
ATOM     11  C   UNL     1       9.416  10.458  19.571  0.00  0.00    +0.000 A 
ATOM     12  C   UNL     1       9.837  11.495  20.412  0.00  0.00    +0.000 A 
BRANCH   7  14
ATOM     13  C   UNL     1       9.727  13.957  22.044  0.00  0.00    +0.000 C 
ATOM     14  O   UNL     1      10.191  13.906  20.700  0.00  0.00    +0.000 OA
ENDBRANCH   7  14
ENDBRANCH   6  10
ENDBRANCH   5   6
ENDBRANCH   1   5
BRANCH   2  15
ATOM     15  C   UNL     1       7.028   4.990  16.708  0.00  0.00    +0.000 C 
BRANCH  15  16
ATOM     16  C   UNL     1       5.546   5.072  16.316  0.00  0.00    +0.000 C 
BRANCH  16  17
ATOM     17  C   UNL     1       4.826   3.733  16.555  0.00  0.00    +0.000 C 
BRANCH  17  18
ATOM     18  N   UNL     1       3.947   3.723  17.713  0.00  0.00    +0.000 N 
ATOM     19  C   UNL     1       4.387   3.416  18.966  0.00  0.00    +0.000 C 
ATOM     20  O   UNL     1       5.515   3.200  19.373  0.00  0.00    +0.000 OA
ATOM     21  C   UNL     1       3.209   3.277  19.808  0.00  0.00    +0.000 A 
ATOM     22  C   UNL     1       3.130   3.017  21.162  0.00  0.00    +0.000 A 
ATOM     23  C   UNL     1       1.859   2.819  21.696  0.00  0.00    +0.000 A 
ATOM     24  C   UNL     1       0.717   2.861  20.869  0.00  0.00    +0.000 A 
ATOM     25  C   UNL     1       0.828   3.140  19.499  0.00  0.00    +0.000 A 
ATOM     26  C   UNL     1       2.096   3.363  18.995  0.00  0.00    +0.000 A 
ATOM     27  C   UNL     1       2.575   3.641  17.637  0.00  0.00    +0.000 C 
ATOM     28  O   UNL     1       1.845   3.720  16.667  0.00  0.00    +0.000 OA
ENDBRANCH  17  18
ENDBRANCH  16  17
ENDBRANCH  15  16
ENDBRANCH   2  15
TORSDOF 8
ENDMDL
MODEL 8
REMARK VINA RESULT:      -6.8      1.698      3.799
REMARK  Name = 
REMARK  9 active torsions:
REMARK  status: ('A' for Active; 'I' for Inactive)
REMARK    1  A    between atoms: C_1  and  O_2
REMARK    2  A    between atoms: O_2  and  C_3
REMARK    3  A    between atoms: C_6  and  C_7
REMARK    4  A    between atoms: C_7  and  C_8
REMARK    5  A    between atoms: C_8  and  N_9
REMARK    6  A    between atoms: C_10  and  C_12
REMARK    7  A    between atoms: C_12  and  C_13
REMARK    8  A    between atoms: C_13  and  C_14
REMARK    9  A    between atoms: C_14  and  N_15
REMARK                            x       y       z     vdW  Elec       q    Type
REMARK                         _______ _______ _______ _____ _____    ______ ____
ROOT
ATOM      1  N   UNL     1       2.534   6.310  17.851  0.00  0.00    +0.000 N 
ATOM      2  C   UNL     1       2.023   5.347  18.690  0.00  0.00    +0.000 C 
ATOM      3  O   UNL     1       1.932   5.507  19.903  0.00  0.00    +0.000 OA
ATOM      4  H   UNL     1       2.493   6.174  16.850  0.00  0.00    +0.000 HD
ENDROOT
BRANCH   1   5
ATOM      5  C   UNL     1       2.848   7.637  18.364  0.00  0.00    +0.000 C 
BRANCH   5   6
ATOM      6  C   UNL     1       1.903   8.718  17.824  0.00  0.00    +0.000 C 
BRANCH   6  10
ATOM      7  C   UNL     1      -0.329  10.706  20.944  0.00  0.00    +0.000 A 
ATOM      8  C   UNL     1       0.421   9.563  21.227  0.00  0.00    +0.000 A 
ATOM      9  C   UNL     1       1.142   8.922  20.220  0.00  0.00    +0.000 A 
ATOM     10  C   UNL     1       1.111   9.406  18.906  0.00  0.00    +0.000 A 
ATOM     11  C   UNL     1       0.338  10.537  18.621  0.00  0.00    +0.000 A 
ATOM     12  C   UNL     1      -0.377  11.184  19.634  0.00  0.00    +0.000 A 
BRANCH   7  14
ATOM     13  C   UNL     1      -0.995  10.465  23.198  0.00  0.00    +0.000 C 
ATOM     14  O   UNL     1      -1.000  11.244  22.008  0.00  0.00    +0.000 OA
ENDBRANCH   7  14
ENDBRANCH   6  10
ENDBRANCH   5   6
ENDBRANCH   1   5
BRANCH   2  15
ATOM     15  C   UNL     1       1.589   4.066  18.017  0.00  0.00    +0.000 C 
BRANCH  15  16
ATOM     16  C   UNL     1       2.394   2.876  18.559  0.00  0.00    +0.000 C 
BRANCH  16  17
ATOM     17  C   UNL     1       3.536   2.488  17.604  0.00  0.00    +0.000 C 
BRANCH  17  18
ATOM     18  N   UNL     1       4.677   3.388  17.637  0.00  0.00    +0.000 N 
ATOM     19  C   UNL     1       5.286   3.762  18.798  0.00  0.00    +0.000 C 
ATOM     20  O   UNL     1       5.092   3.390  19.942  0.00  0.00    +0.000 OA
ATOM     21  C   UNL     1       6.214   4.831  18.466  0.00  0.00    +0.000 A 
ATOM     22  C   UNL     1       7.094   5.508  19.288  0.00  0.00    +0.000 A 
ATOM     23  C   UNL     1       7.791   6.576  18.727  0.00  0.00    +0.000 A 
ATOM     24  C   UNL     1       7.574   6.949  17.384  0.00  0.00    +0.000 A 
ATOM     25  C   UNL     1       6.683   6.234  16.570  0.00  0.00    +0.000 A 
ATOM     26  C   UNL     1       6.025   5.159  17.139  0.00  0.00    +0.000 A 
ATOM     27  C   UNL     1       5.023   4.231  16.605  0.00  0.00    +0.000 C 
ATOM     28  O   UNL     1       4.587   4.289  15.471  0.00  0.00    +0.000 OA
ENDBRANCH  17  18
ENDBRANCH  16  17
ENDBRANCH  15  16
ENDBRANCH   2  15
TORSDOF 8
ENDMDL
MODEL 9
REMARK VINA RESULT:      -6.8      1.912      4.293
REMARK  Name = 
REMARK  9 active torsions:
REMARK  status: ('A' for Active; 'I' for Inactive)
REMARK    1  A    between atoms: C_1  and  O_2
REMARK    2  A    between atoms: O_2  and  C_3
REMARK    3  A    between atoms: C_6  and  C_7
REMARK    4  A    between atoms: C_7  and  C_8
REMARK    5  A    between atoms: C_8  and  N_9
REMARK    6  A    between atoms: C_10  and  C_12
REMARK    7  A    between atoms: C_12  and  C_13
REMARK    8  A    between atoms: C_13  and  C_14
REMARK    9  A    between atoms: C_14  and  N_15
REMARK                            x       y       z     vdW  Elec       q    Type
REMARK                         _______ _______ _______ _____ _____    ______ ____
ROOT
ATOM      1  N   UNL     1       1.670   4.622  19.577  0.00  0.00    +0.000 N 
ATOM      2  C   UNL     1       1.287   3.319  19.796  0.00  0.00    +0.000 C 
ATOM      3  O   UNL     1       1.011   2.889  20.911  0.00  0.00    +0.000 OA
ATOM      4  H   UNL     1       1.786   4.956  18.629  0.00  0.00    +0.000 HD
ENDROOT
BRANCH   1   5
ATOM      5  C   UNL     1       1.612   5.595  20.660  0.00  0.00    +0.000 C 
BRANCH   5   6
ATOM      6  C   UNL     1       2.534   6.798  20.423  0.00  0.00    +0.000 C 
BRANCH   6  10
ATOM      7  C   UNL     1       0.455  10.321  19.033  0.00  0.00    +0.000 A 
ATOM      8  C   UNL     1       0.243   9.837  20.325  0.00  0.00    +0.000 A 
ATOM      9  C   UNL     1       0.915   8.700  20.774  0.00  0.00    +0.000 A 
ATOM     10  C   UNL     1       1.800   8.018  19.929  0.00  0.00    +0.000 A 
ATOM     11  C   UNL     1       1.990   8.491  18.626  0.00  0.00    +0.000 A 
ATOM     12  C   UNL     1       1.323   9.638  18.182  0.00  0.00    +0.000 A 
BRANCH   7  14
ATOM     13  C   UNL     1      -1.050  11.997  19.746  0.00  0.00    +0.000 C 
ATOM     14  O   UNL     1      -0.263  11.437  18.701  0.00  0.00    +0.000 OA
ENDBRANCH   7  14
ENDBRANCH   6  10
ENDBRANCH   5   6
ENDBRANCH   1   5
BRANCH   2  15
ATOM     15  C   UNL     1       1.238   2.443  18.566  0.00  0.00    +0.000 C 
BRANCH  15  16
ATOM     16  C   UNL     1       2.135   3.020  17.461  0.00  0.00    +0.000 C 
BRANCH  16  17
ATOM     17  C   UNL     1       3.514   2.337  17.443  0.00  0.00    +0.000 C 
BRANCH  17  18
ATOM     18  N   UNL     1       4.638   3.255  17.513  0.00  0.00    +0.000 N 
ATOM     19  C   UNL     1       5.149   3.704  18.694  0.00  0.00    +0.000 C 
ATOM     20  O   UNL     1       4.869   3.395  19.840  0.00  0.00    +0.000 OA
ATOM     21  C   UNL     1       6.089   4.767  18.375  0.00  0.00    +0.000 A 
ATOM     22  C   UNL     1       6.893   5.503  19.222  0.00  0.00    +0.000 A 
ATOM     23  C   UNL     1       7.621   6.548  18.657  0.00  0.00    +0.000 A 
ATOM     24  C   UNL     1       7.507   6.841  17.282  0.00  0.00    +0.000 A 
ATOM     25  C   UNL     1       6.692   6.066  16.443  0.00  0.00    +0.000 A 
ATOM     26  C   UNL     1       6.002   5.015  17.020  0.00  0.00    +0.000 A 
ATOM     27  C   UNL     1       5.055   4.043  16.464  0.00  0.00    +0.000 C 
ATOM     28  O   UNL     1       4.710   4.028  15.298  0.00  0.00    +0.000 OA
ENDBRANCH  17  18
ENDBRANCH  16  17
ENDBRANCH  15  16
ENDBRANCH   2  15
TORSDOF 8
ENDMDL
