MODEL 1
REMARK VINA RESULT:      -7.5      0.000      0.000
REMARK  Name = 
REMARK  4 active torsions:
REMARK  status: ('A' for Active; 'I' for Inactive)
REMARK    1  A    between atoms: O_1  and  C_2
REMARK    2  A    between atoms: C_5  and  C_6
REMARK    3  A    between atoms: N_8  and  C_9
REMARK    4  A    between atoms: C_13  and  O_14
REMARK                            x       y       z     vdW  Elec       q    Type
REMARK                         _______ _______ _______ _____ _____    ______ ____
ROOT
ATOM      1  C   UNL     1       3.939   4.670  17.781  0.00  0.00    +0.000 A 
ATOM      2  C   UNL     1       4.575   3.953  16.796  0.00  0.00    +0.000 A 
ATOM      3  N   UNL     1       5.089   4.900  15.942  0.00  0.00    +0.000 N 
ATOM      4  N   UNL     1       4.792   6.138  16.411  0.00  0.00    +0.000 NA
ATOM      5  N   UNL     1       4.095   6.006  17.534  0.00  0.00    +0.000 NA
ENDROOT
BRANCH   1   9
ATOM      6  C   UNL     1       1.884   3.086  21.142  0.00  0.00    +0.000 A 
ATOM      7  C   UNL     1       1.303   4.106  20.395  0.00  0.00    +0.000 A 
ATOM      8  C   UNL     1       1.981   4.616  19.284  0.00  0.00    +0.000 A 
ATOM      9  C   UNL     1       3.241   4.117  18.923  0.00  0.00    +0.000 A 
ATOM     10  C   UNL     1       3.805   3.085  19.689  0.00  0.00    +0.000 A 
ATOM     11  C   UNL     1       3.127   2.571  20.797  0.00  0.00    +0.000 A 
BRANCH   6  12
ATOM     12  O   UNL     1       1.261   2.554  22.231  0.00  0.00    +0.000 OA
ATOM     13  H   UNL     1       1.765   1.778  22.527  0.00  0.00    +0.000 HD
ENDBRANCH   6  12
ENDBRANCH   1   9
BRANCH   3  14
ATOM     14  C   UNL     1       5.816   4.698  14.741  0.00  0.00    +0.000 A 
ATOM     15  C   UNL     1       5.339   3.795  13.779  0.00  0.00    +0.000 A 
ATOM     16  C   UNL     1       6.057   3.588  12.597  0.00  0.00    +0.000 A 
ATOM     17  C   UNL     1       7.252   4.273  12.370  0.00  0.00    +0.000 A 
ATOM     18  C   UNL     1       7.718   5.165  13.329  0.00  0.00    +0.000 A 
ATOM     19  C   UNL     1       7.011   5.389  14.506  0.00  0.00    +0.000 A 
BRANCH  18  20
ATOM     20  O   UNL     1       8.884   5.851  13.158  0.00  0.00    +0.000 OA
ATOM     21  H   UNL     1       8.684   6.707  12.742  0.00  0.00    +0.000 HD
ENDBRANCH  18  20
ENDBRANCH   3  14
TORSDOF 4
ENDMDL
MODEL 2
REMARK VINA RESULT:      -7.4      0.058      1.109
REMARK  Name = 
REMARK  4 active torsions:
REMARK  status: ('A' for Active; 'I' for Inactive)
REMARK    1  A    between atoms: O_1  and  C_2
REMARK    2  A    between atoms: C_5  and  C_6
REMARK    3  A    between atoms: N_8  and  C_9
REMARK    4  A    between atoms: C_13  and  O_14
REMARK                            x       y       z     vdW  Elec       q    Type
REMARK                         _______ _______ _______ _____ _____    ______ ____
ROOT
ATOM      1  C   UNL     1       3.954   4.691  17.793  0.00  0.00    +0.000 A 
ATOM      2  C   UNL     1       4.600   3.966  16.819  0.00  0.00    +0.000 A 
ATOM      3  N   UNL     1       5.094   4.906  15.946  0.00  0.00    +0.000 N 
ATOM      4  N   UNL     1       4.778   6.147  16.393  0.00  0.00    +0.000 NA
ATOM      5  N   UNL     1       4.086   6.024  17.520  0.00  0.00    +0.000 NA
ENDROOT
BRANCH   1   9
ATOM      6  C   UNL     1       1.952   3.060  21.163  0.00  0.00    +0.000 A 
ATOM      7  C   UNL     1       3.163   2.516  20.750  0.00  0.00    +0.000 A 
ATOM      8  C   UNL     1       3.822   3.064  19.645  0.00  0.00    +0.000 A 
ATOM      9  C   UNL     1       3.269   4.147  18.947  0.00  0.00    +0.000 A 
ATOM     10  C   UNL     1       2.048   4.682  19.386  0.00  0.00    +0.000 A 
ATOM     11  C   UNL     1       1.391   4.139  20.492  0.00  0.00    +0.000 A 
BRANCH   6  12
ATOM     12  O   UNL     1       1.274   2.563  22.236  0.00  0.00    +0.000 OA
ATOM     13  H   UNL     1       1.847   1.924  22.693  0.00  0.00    +0.000 HD
ENDBRANCH   6  12
ENDBRANCH   1   9
BRANCH   3  14
ATOM     14  C   UNL     1       5.821   4.694  14.746  0.00  0.00    +0.000 A 
ATOM     15  C   UNL     1       5.353   3.770  13.800  0.00  0.00    +0.000 A 
ATOM     16  C   UNL     1       6.071   3.553  12.620  0.00  0.00    +0.000 A 
ATOM     17  C   UNL     1       7.257   4.250  12.379  0.00  0.00    +0.000 A 
ATOM     18  C   UNL     1       7.714   5.163  13.322  0.00  0.00    +0.000 A 
ATOM     19  C   UNL     1       7.007   5.396  14.497  0.00  0.00    +0.000 A 
BRANCH  18  20
ATOM     20  O   UNL     1       8.871   5.860  13.137  0.00  0.00    +0.000 OA
ATOM     21  H   UNL     1       9.321   5.951  13.995  0.00  0.00    +0.000 HD
ENDBRANCH  18  20
ENDBRANCH   3  14
TORSDOF 4
ENDMDL
MODEL 3
REMARK VINA RESULT:      -7.3      1.109      1.181
REMARK  Name = 
REMARK  4 active torsions:
REMARK  status: ('A' for Active; 'I' for Inactive)
REMARK    1  A    between atoms: O_1  and  C_2
REMARK    2  A    between atoms: C_5  and  C_6
REMARK    3  A    between atoms: N_8  and  C_9
REMARK    4  A    between atoms: C_13  and  O_14
REMARK                            x       y       z     vdW  Elec       q    Type
REMARK                         _______ _______ _______ _____ _____    ______ ____
ROOT
ATOM      1  C   UNL     1       5.071   4.042  18.395  0.00  0.00    +0.000 A 
ATOM      2  C   UNL     1       4.896   3.887  17.040  0.00  0.00    +0.000 A 
ATOM      3  N   UNL     1       6.084   4.294  16.480  0.00  0.00    +0.000 N 
ATOM      4  N   UNL     1       6.946   4.655  17.463  0.00  0.00    +0.000 NA
ATOM      5  N   UNL     1       6.337   4.501  18.633  0.00  0.00    +0.000 NA
ENDROOT
BRANCH   1   9
ATOM      6  C   UNL     1       2.215   3.190  21.419  0.00  0.00    +0.000 A 
ATOM      7  C   UNL     1       2.178   4.415  20.759  0.00  0.00    +0.000 A 
ATOM      8  C   UNL     1       3.116   4.685  19.758  0.00  0.00    +0.000 A 
ATOM      9  C   UNL     1       4.095   3.739  19.421  0.00  0.00    +0.000 A 
ATOM     10  C   UNL     1       4.109   2.509  20.097  0.00  0.00    +0.000 A 
ATOM     11  C   UNL     1       3.172   2.236  21.095  0.00  0.00    +0.000 A 
BRANCH   6  12
ATOM     12  O   UNL     1       1.321   2.880  22.400  0.00  0.00    +0.000 OA
ATOM     13  H   UNL     1       0.560   3.481  22.325  0.00  0.00    +0.000 HD
ENDBRANCH   6  12
ENDBRANCH   1   9
BRANCH   3  14
ATOM     14  C   UNL     1       6.429   4.361  15.105  0.00  0.00    +0.000 A 
ATOM     15  C   UNL     1       5.717   3.597  14.168  0.00  0.00    +0.000 A 
ATOM     16  C   UNL     1       6.059   3.656  12.814  0.00  0.00    +0.000 A 
ATOM     17  C   UNL     1       7.111   4.469  12.388  0.00  0.00    +0.000 A 
ATOM     18  C   UNL     1       7.811   5.222  13.323  0.00  0.00    +0.000 A 
ATOM     19  C   UNL     1       7.478   5.182  14.673  0.00  0.00    +0.000 A 
BRANCH  18  20
ATOM     20  O   UNL     1       8.851   6.025  12.957  0.00  0.00    +0.000 OA
ATOM     21  H   UNL     1       8.616   6.948  13.151  0.00  0.00    +0.000 HD
ENDBRANCH  18  20
ENDBRANCH   3  14
TORSDOF 4
ENDMDL
MODEL 4
REMARK VINA RESULT:      -7.3      1.180      1.618
REMARK  Name = 
REMARK  4 active torsions:
REMARK  status: ('A' for Active; 'I' for Inactive)
REMARK    1  A    between atoms: O_1  and  C_2
REMARK    2  A    between atoms: C_5  and  C_6
REMARK    3  A    between atoms: N_8  and  C_9
REMARK    4  A    between atoms: C_13  and  O_14
REMARK                            x       y       z     vdW  Elec       q    Type
REMARK                         _______ _______ _______ _____ _____    ______ ____
ROOT
ATOM      1  C   UNL     1       4.007   4.603  17.694  0.00  0.00    +0.000 A 
ATOM      2  C   UNL     1       4.567   3.850  16.689  0.00  0.00    +0.000 A 
ATOM      3  N   UNL     1       5.114   4.765  15.821  0.00  0.00    +0.000 N 
ATOM      4  N   UNL     1       4.911   6.018  16.301  0.00  0.00    +0.000 NA
ATOM      5  N   UNL     1       4.241   5.927  17.444  0.00  0.00    +0.000 NA
ENDROOT
BRANCH   1   9
ATOM      6  C   UNL     1       1.952   3.142  21.109  0.00  0.00    +0.000 A 
ATOM      7  C   UNL     1       1.359   4.114  20.310  0.00  0.00    +0.000 A 
ATOM      8  C   UNL     1       2.037   4.583  19.181  0.00  0.00    +0.000 A 
ATOM      9  C   UNL     1       3.309   4.092  18.855  0.00  0.00    +0.000 A 
ATOM     10  C   UNL     1       3.885   3.108  19.674  0.00  0.00    +0.000 A 
ATOM     11  C   UNL     1       3.207   2.635  20.800  0.00  0.00    +0.000 A 
BRANCH   6  12
ATOM     12  O   UNL     1       1.328   2.651  22.218  0.00  0.00    +0.000 OA
ATOM     13  H   UNL     1       1.371   1.680  22.192  0.00  0.00    +0.000 HD
ENDBRANCH   6  12
ENDBRANCH   1   9
BRANCH   3  14
ATOM     14  C   UNL     1       5.791   4.520  14.599  0.00  0.00    +0.000 A 
ATOM     15  C   UNL     1       7.005   5.172  14.330  0.00  0.00    +0.000 A 
ATOM     16  C   UNL     1       7.671   4.939  13.124  0.00  0.00    +0.000 A 
ATOM     17  C   UNL     1       7.133   4.062  12.180  0.00  0.00    +0.000 A 
ATOM     18  C   UNL     1       5.930   3.422  12.454  0.00  0.00    +0.000 A 
ATOM     19  C   UNL     1       5.259   3.636  13.653  0.00  0.00    +0.000 A 
BRANCH  18  20
ATOM     20  O   UNL     1       5.359   2.564  11.561  0.00  0.00    +0.000 OA
ATOM     21  H   UNL     1       5.660   2.799  10.666  0.00  0.00    +0.000 HD
ENDBRANCH  18  20
ENDBRANCH   3  14
TORSDOF 4
ENDMDL
MODEL 5
REMARK VINA RESULT:      -7.3      1.191      1.968
REMARK  Name = 
REMARK  4 active torsions:
REMARK  status: ('A' for Active; 'I' for Inactive)
REMARK    1  A    between atoms: O_1  and  C_2
REMARK    2  A    between atoms: C_5  and  C_6
REMARK    3  A    between atoms: N_8  and  C_9
REMARK    4  A    between atoms: C_13  and  O_14
REMARK                            x       y       z     vdW  Elec       q    Type
REMARK                         _______ _______ _______ _____ _____    ______ ____
ROOT
ATOM      1  C   UNL     1       4.092   4.622  17.670  0.00  0.00    +0.000 A 
ATOM      2  C   UNL     1       4.618   3.866  16.650  0.00  0.00    +0.000 A 
ATOM      3  N   UNL     1       5.185   4.775  15.788  0.00  0.00    +0.000 N 
ATOM      4  N   UNL     1       5.025   6.027  16.286  0.00  0.00    +0.000 NA
ATOM      5  N   UNL     1       4.364   5.942  17.434  0.00  0.00    +0.000 NA
ENDROOT
BRANCH   1   9
ATOM      6  C   UNL     1       2.043   3.106  21.066  0.00  0.00    +0.000 A 
ATOM      7  C   UNL     1       3.294   2.598  20.731  0.00  0.00    +0.000 A 
ATOM      8  C   UNL     1       3.967   3.109  19.617  0.00  0.00    +0.000 A 
ATOM      9  C   UNL     1       3.390   4.118  18.832  0.00  0.00    +0.000 A 
ATOM     10  C   UNL     1       2.129   4.618  19.193  0.00  0.00    +0.000 A 
ATOM     11  C   UNL     1       1.457   4.112  20.308  0.00  0.00    +0.000 A 
BRANCH   6  12
ATOM     12  O   UNL     1       1.350   2.643  22.144  0.00  0.00    +0.000 OA
ATOM     13  H   UNL     1       1.035   1.745  21.946  0.00  0.00    +0.000 HD
ENDBRANCH   6  12
ENDBRANCH   1   9
BRANCH   3  14
ATOM     14  C   UNL     1       5.842   4.526  14.556  0.00  0.00    +0.000 A 
ATOM     15  C   UNL     1       7.043   5.187  14.258  0.00  0.00    +0.000 A 
ATOM     16  C   UNL     1       7.689   4.949  13.042  0.00  0.00    +0.000 A 
ATOM     17  C   UNL     1       7.142   4.058  12.117  0.00  0.00    +0.000 A 
ATOM     18  C   UNL     1       5.952   3.408  12.419  0.00  0.00    +0.000 A 
ATOM     19  C   UNL     1       5.301   3.627  13.629  0.00  0.00    +0.000 A 
BRANCH  18  20
ATOM     20  O   UNL     1       5.373   2.535  11.545  0.00  0.00    +0.000 OA
ATOM     21  H   UNL     1       5.286   1.670  11.979  0.00  0.00    +0.000 HD
ENDBRANCH  18  20
ENDBRANCH   3  14
TORSDOF 4
ENDMDL
MODEL 6
REMARK VINA RESULT:      -7.2      4.748      8.524
REMARK  Name = 
REMARK  4 active torsions:
REMARK  status: ('A' for Active; 'I' for Inactive)
REMARK    1  A    between atoms: O_1  and  C_2
REMARK    2  A    between atoms: C_5  and  C_6
REMARK    3  A    between atoms: N_8  and  C_9
REMARK    4  A    between atoms: C_13  and  O_14
REMARK                            x       y       z     vdW  Elec       q    Type
REMARK                         _______ _______ _______ _____ _____    ______ ____
ROOT
ATOM      1  C   UNL     1       2.541   7.733  18.236  0.00  0.00    +0.000 A 
ATOM      2  C   UNL     1       1.986   7.874  19.485  0.00  0.00    +0.000 A 
ATOM      3  N   UNL     1       1.324   9.078  19.446  0.00  0.00    +0.000 N 
ATOM      4  N   UNL     1       1.457   9.626  18.211  0.00  0.00    +0.000 NA
ATOM      5  N   UNL     1       2.195   8.809  17.468  0.00  0.00    +0.000 NA
ENDROOT
BRANCH   1   9
ATOM      6  C   UNL     1       4.887   4.471  16.862  0.00  0.00    +0.000 A 
ATOM      7  C   UNL     1       5.367   5.770  16.732  0.00  0.00    +0.000 A 
ATOM      8  C   UNL     1       4.594   6.839  17.196  0.00  0.00    +0.000 A 
ATOM      9  C   UNL     1       3.339   6.613  17.779  0.00  0.00    +0.000 A 
ATOM     10  C   UNL     1       2.877   5.294  17.903  0.00  0.00    +0.000 A 
ATOM     11  C   UNL     1       3.650   4.225  17.444  0.00  0.00    +0.000 A 
BRANCH   6  12
ATOM     12  O   UNL     1       5.605   3.397  16.428  0.00  0.00    +0.000 OA
ATOM     13  H   UNL     1       6.515   3.687  16.246  0.00  0.00    +0.000 HD
ENDBRANCH   6  12
ENDBRANCH   1   9
BRANCH   3  14
ATOM     14  C   UNL     1       0.601   9.718  20.486  0.00  0.00    +0.000 A 
ATOM     15  C   UNL     1      -0.172  10.855  20.203  0.00  0.00    +0.000 A 
ATOM     16  C   UNL     1      -0.880  11.491  21.226  0.00  0.00    +0.000 A 
ATOM     17  C   UNL     1      -0.819  11.003  22.533  0.00  0.00    +0.000 A 
ATOM     18  C   UNL     1      -0.052   9.877  22.804  0.00  0.00    +0.000 A 
ATOM     19  C   UNL     1       0.652   9.227  21.796  0.00  0.00    +0.000 A 
BRANCH  18  20
ATOM     20  O   UNL     1       0.047   9.368  24.066  0.00  0.00    +0.000 OA
ATOM     21  H   UNL     1       0.862   8.842  24.127  0.00  0.00    +0.000 HD
ENDBRANCH  18  20
ENDBRANCH   3  14
TORSDOF 4
ENDMDL
MODEL 7
REMARK VINA RESULT:      -7.2      1.184      1.431
REMARK  Name = 
REMARK  4 active torsions:
REMARK  status: ('A' for Active; 'I' for Inactive)
REMARK    1  A    between atoms: O_1  and  C_2
REMARK    2  A    between atoms: C_5  and  C_6
REMARK    3  A    between atoms: N_8  and  C_9
REMARK    4  A    between atoms: C_13  and  O_14
REMARK                            x       y       z     vdW  Elec       q    Type
REMARK                         _______ _______ _______ _____ _____    ______ ____
ROOT
ATOM      1  C   UNL     1       4.868   3.927  17.817  0.00  0.00    +0.000 A 
ATOM      2  C   UNL     1       4.770   3.837  16.450  0.00  0.00    +0.000 A 
ATOM      3  N   UNL     1       6.010   4.198  15.980  0.00  0.00    +0.000 N 
ATOM      4  N   UNL     1       6.827   4.471  17.028  0.00  0.00    +0.000 NA
ATOM      5  N   UNL     1       6.139   4.304  18.151  0.00  0.00    +0.000 NA
ENDROOT
BRANCH   1   9
ATOM      6  C   UNL     1       1.756   3.071  20.577  0.00  0.00    +0.000 A 
ATOM      7  C   UNL     1       2.086   2.140  19.597  0.00  0.00    +0.000 A 
ATOM      8  C   UNL     1       3.118   2.424  18.698  0.00  0.00    +0.000 A 
ATOM      9  C   UNL     1       3.814   3.639  18.769  0.00  0.00    +0.000 A 
ATOM     10  C   UNL     1       3.467   4.561  19.769  0.00  0.00    +0.000 A 
ATOM     11  C   UNL     1       2.439   4.277  20.670  0.00  0.00    +0.000 A 
BRANCH   6  12
ATOM     12  O   UNL     1       0.760   2.838  21.478  0.00  0.00    +0.000 OA
ATOM     13  H   UNL     1      -0.079   3.149  21.098  0.00  0.00    +0.000 HD
ENDBRANCH   6  12
ENDBRANCH   1   9
BRANCH   3  14
ATOM     14  C   UNL     1       6.444   4.301  14.633  0.00  0.00    +0.000 A 
ATOM     15  C   UNL     1       5.876   3.474  13.651  0.00  0.00    +0.000 A 
ATOM     16  C   UNL     1       6.306   3.568  12.324  0.00  0.00    +0.000 A 
ATOM     17  C   UNL     1       7.303   4.478  11.970  0.00  0.00    +0.000 A 
ATOM     18  C   UNL     1       7.861   5.292  12.948  0.00  0.00    +0.000 A 
ATOM     19  C   UNL     1       7.438   5.218  14.271  0.00  0.00    +0.000 A 
BRANCH  18  20
ATOM     20  O   UNL     1       8.844   6.191  12.654  0.00  0.00    +0.000 OA
ATOM     21  H   UNL     1       9.158   6.592  13.482  0.00  0.00    +0.000 HD
ENDBRANCH  18  20
ENDBRANCH   3  14
TORSDOF 4
ENDMDL
MODEL 8
REMARK VINA RESULT:      -7.2      4.764      8.515
REMARK  Name = 
REMARK  4 active torsions:
REMARK  status: ('A' for Active; 'I' for Inactive)
REMARK    1  A    between atoms: O_1  and  C_2
REMARK    2  A    between atoms: C_5  and  C_6
REMARK    3  A    between atoms: N_8  and  C_9
REMARK    4  A    between atoms: C_13  and  O_14
REMARK                            x       y       z     vdW  Elec       q    Type
REMARK                         _______ _______ _______ _____ _____    ______ ____
ROOT
ATOM      1  C   UNL     1       2.532   7.760  18.206  0.00  0.00    +0.000 A 
ATOM      2  C   UNL     1       1.942   7.888  19.440  0.00  0.00    +0.000 A 
ATOM      3  N   UNL     1       1.317   9.113  19.409  0.00  0.00    +0.000 N 
ATOM      4  N   UNL     1       1.506   9.685  18.194  0.00  0.00    +0.000 NA
ATOM      5  N   UNL     1       2.243   8.864  17.453  0.00  0.00    +0.000 NA
ENDROOT
BRANCH   1   9
ATOM      6  C   UNL     1       4.812   4.426  16.895  0.00  0.00    +0.000 A 
ATOM      7  C   UNL     1       3.670   4.223  17.662  0.00  0.00    +0.000 A 
ATOM      8  C   UNL     1       2.918   5.324  18.082  0.00  0.00    +0.000 A 
ATOM      9  C   UNL     1       3.311   6.628  17.746  0.00  0.00    +0.000 A 
ATOM     10  C   UNL     1       4.464   6.808  16.967  0.00  0.00    +0.000 A 
ATOM     11  C   UNL     1       5.214   5.709  16.543  0.00  0.00    +0.000 A 
BRANCH   6  12
ATOM     12  O   UNL     1       5.575   3.384  16.459  0.00  0.00    +0.000 OA
ATOM     13  H   UNL     1       6.484   3.701  16.327  0.00  0.00    +0.000 HD
ENDBRANCH   6  12
ENDBRANCH   1   9
BRANCH   3  14
ATOM     14  C   UNL     1       0.580   9.749  20.442  0.00  0.00    +0.000 A 
ATOM     15  C   UNL     1      -0.198  10.879  20.149  0.00  0.00    +0.000 A 
ATOM     16  C   UNL     1      -0.920  11.513  21.165  0.00  0.00    +0.000 A 
ATOM     17  C   UNL     1      -0.867  11.029  22.474  0.00  0.00    +0.000 A 
ATOM     18  C   UNL     1      -0.093   9.909  22.754  0.00  0.00    +0.000 A 
ATOM     19  C   UNL     1       0.625   9.262  21.754  0.00  0.00    +0.000 A 
BRANCH  18  20
ATOM     20  O   UNL     1      -0.001   9.404  24.018  0.00  0.00    +0.000 OA
ATOM     21  H   UNL     1       0.131  10.140  24.639  0.00  0.00    +0.000 HD
ENDBRANCH  18  20
ENDBRANCH   3  14
TORSDOF 4
ENDMDL
MODEL 9
REMARK VINA RESULT:      -7.1      4.877      8.519
REMARK  Name = 
REMARK  4 active torsions:
REMARK  status: ('A' for Active; 'I' for Inactive)
REMARK    1  A    between atoms: O_1  and  C_2
REMARK    2  A    between atoms: C_5  and  C_6
REMARK    3  A    between atoms: N_8  and  C_9
REMARK    4  A    between atoms: C_13  and  O_14
REMARK                            x       y       z     vdW  Elec       q    Type
REMARK                         _______ _______ _______ _____ _____    ______ ____
ROOT
ATOM      1  C   UNL     1       2.604   7.634  18.247  0.00  0.00    +0.000 A 
ATOM      2  C   UNL     1       2.081   7.703  19.516  0.00  0.00    +0.000 A 
ATOM      3  N   UNL     1       1.406   8.899  19.558  0.00  0.00    +0.000 N 
ATOM      4  N   UNL     1       1.500   9.513  18.351  0.00  0.00    +0.000 NA
ATOM      5  N   UNL     1       2.226   8.746  17.546  0.00  0.00    +0.000 NA
ENDROOT
BRANCH   1   9
ATOM      6  C   UNL     1       4.935   4.437  16.706  0.00  0.00    +0.000 A 
ATOM      7  C   UNL     1       3.728   4.167  17.343  0.00  0.00    +0.000 A 
ATOM      8  C   UNL     1       2.961   5.225  17.839  0.00  0.00    +0.000 A 
ATOM      9  C   UNL     1       3.401   6.550  17.710  0.00  0.00    +0.000 A 
ATOM     10  C   UNL     1       4.620   6.798  17.060  0.00  0.00    +0.000 A 
ATOM     11  C   UNL     1       5.386   5.742  16.560  0.00  0.00    +0.000 A 
BRANCH   6  12
ATOM     12  O   UNL     1       5.716   3.439  16.203  0.00  0.00    +0.000 OA
ATOM     13  H   UNL     1       5.465   2.604  16.634  0.00  0.00    +0.000 HD
ENDBRANCH   6  12
ENDBRANCH   1   9
BRANCH   3  14
ATOM     14  C   UNL     1       0.704   9.474  20.649  0.00  0.00    +0.000 A 
ATOM     15  C   UNL     1       0.816   8.907  21.928  0.00  0.00    +0.000 A 
ATOM     16  C   UNL     1       0.120   9.467  23.003  0.00  0.00    +0.000 A 
ATOM     17  C   UNL     1      -0.691  10.587  22.811  0.00  0.00    +0.000 A 
ATOM     18  C   UNL     1      -0.796  11.141  21.541  0.00  0.00    +0.000 A 
ATOM     19  C   UNL     1      -0.104  10.602  20.462  0.00  0.00    +0.000 A 
BRANCH  18  20
ATOM     20  O   UNL     1      -1.583  12.230  21.301  0.00  0.00    +0.000 OA
ATOM     21  H   UNL     1      -1.080  13.032  21.519  0.00  0.00    +0.000 HD
ENDBRANCH  18  20
ENDBRANCH   3  14
TORSDOF 4
ENDMDL
