MODEL 1
REMARK VINA RESULT:      -9.1      0.000      0.000
REMARK  Name = 
REMARK  5 active torsions:
REMARK  status: ('A' for Active; 'I' for Inactive)
REMARK    1  A    between atoms: C_1  and  S_2
REMARK    2  A    between atoms: S_2  and  C_5
REMARK    3  A    between atoms: C_8  and  C_9
REMARK    4  A    between atoms: C_13  and  C_14
REMARK    5  A    between atoms: C_19  and  C_20
REMARK                            x       y       z     vdW  Elec       q    Type
REMARK                         _______ _______ _______ _____ _____    ______ ____
ROOT
ATOM      1  C   UNL     1       1.965   7.948  19.331  0.00  0.00    +0.000 A 
ATOM      2  C   UNL     1       1.596   7.682  20.657  0.00  0.00    +0.000 A 
ATOM      3  C   UNL     1       0.712   8.517  21.313  0.00  0.00    +0.000 A 
ATOM      4  C   UNL     1       0.185   9.628  20.648  0.00  0.00    +0.000 A 
ATOM      5  C   UNL     1       0.468   9.951  19.292  0.00  0.00    +0.000 A 
ATOM      6  C   UNL     1       1.375   9.075  18.661  0.00  0.00    +0.000 A 
ENDROOT
BRANCH   5   7
ATOM      7  C   UNL     1      -0.312  11.089  18.590  0.00  0.00    +0.000 A 
ATOM      8  C   UNL     1       0.322  12.314  18.731  0.00  0.00    +0.000 A 
ATOM      9  C   UNL     1      -0.172  13.092  19.757  0.00  0.00    +0.000 A 
ATOM     10  N   UNL     1      -1.368  12.887  20.320  0.00  0.00    +0.000 NA
ATOM     11  C   UNL     1      -2.203  12.072  19.679  0.00  0.00    +0.000 A 
ATOM     12  C   UNL     1      -3.571  12.239  19.846  0.00  0.00    +0.000 A 
ATOM     13  C   UNL     1      -4.438  11.987  18.766  0.00  0.00    +0.000 A 
ATOM     14  C   UNL     1      -3.935  11.434  17.596  0.00  0.00    +0.000 A 
ATOM     15  C   UNL     1      -2.602  10.997  17.556  0.00  0.00    +0.000 A 
ATOM     16  C   UNL     1      -1.714  11.248  18.644  0.00  0.00    +0.000 A 
BRANCH  12  17
ATOM     17  C   UNL     1      -4.108  12.786  21.135  0.00  0.00    +0.000 C 
ATOM     18  F   UNL     1      -3.534  12.297  22.269  0.00  0.00    +0.000 F 
ATOM     19  F   UNL     1      -4.030  14.142  21.217  0.00  0.00    +0.000 F 
ATOM     20  F   UNL     1      -5.437  12.493  21.274  0.00  0.00    +0.000 F 
ENDBRANCH  12  17
ENDBRANCH   5   7
BRANCH   1  24
ATOM     21  C   UNL     1       5.249   5.809  17.621  0.00  0.00    +0.000 A 
ATOM     22  C   UNL     1       4.629   6.818  16.887  0.00  0.00    +0.000 A 
ATOM     23  C   UNL     1       3.499   7.453  17.406  0.00  0.00    +0.000 A 
ATOM     24  C   UNL     1       2.992   7.110  18.669  0.00  0.00    +0.000 A 
ATOM     25  C   UNL     1       3.556   5.990  19.321  0.00  0.00    +0.000 A 
ATOM     26  C   UNL     1       4.682   5.342  18.806  0.00  0.00    +0.000 A 
BRANCH  21  28
ATOM     27  C   UNL     1       6.334   4.009  15.812  0.00  0.00    +0.000 C 
ATOM     28  S   UNL     1       6.811   5.162  17.077  0.00  0.00    +0.000 S 
ATOM     29  O   UNL     1       7.387   4.411  18.176  0.00  0.00    +0.000 OA
ATOM     30  O   UNL     1       7.539   6.248  16.451  0.00  0.00    +0.000 OA
ENDBRANCH  21  28
ENDBRANCH   1  24
TORSDOF 4
ENDMDL
MODEL 2
REMARK VINA RESULT:      -8.8      1.196      1.525
REMARK  Name = 
REMARK  5 active torsions:
REMARK  status: ('A' for Active; 'I' for Inactive)
REMARK    1  A    between atoms: C_1  and  S_2
REMARK    2  A    between atoms: S_2  and  C_5
REMARK    3  A    between atoms: C_8  and  C_9
REMARK    4  A    between atoms: C_13  and  C_14
REMARK    5  A    between atoms: C_19  and  C_20
REMARK                            x       y       z     vdW  Elec       q    Type
REMARK                         _______ _______ _______ _____ _____    ______ ____
ROOT
ATOM      1  C   UNL     1       2.217   7.734  18.931  0.00  0.00    +0.000 A 
ATOM      2  C   UNL     1       1.933   7.260  20.220  0.00  0.00    +0.000 A 
ATOM      3  C   UNL     1       1.168   8.017  21.086  0.00  0.00    +0.000 A 
ATOM      4  C   UNL     1       0.677   9.259  20.672  0.00  0.00    +0.000 A 
ATOM      5  C   UNL     1       0.877   9.800  19.371  0.00  0.00    +0.000 A 
ATOM      6  C   UNL     1       1.663   8.996  18.520  0.00  0.00    +0.000 A 
ENDROOT
BRANCH   5   7
ATOM      7  C   UNL     1       0.133  11.089  18.949  0.00  0.00    +0.000 A 
ATOM      8  C   UNL     1       0.917  12.220  19.126  0.00  0.00    +0.000 A 
ATOM      9  C   UNL     1       0.677  12.896  20.304  0.00  0.00    +0.000 A 
ATOM     10  N   UNL     1      -0.433  12.729  21.030  0.00  0.00    +0.000 NA
ATOM     11  C   UNL     1      -1.444  12.089  20.446  0.00  0.00    +0.000 A 
ATOM     12  C   UNL     1      -2.743  12.359  20.857  0.00  0.00    +0.000 A 
ATOM     13  C   UNL     1      -3.788  12.336  19.914  0.00  0.00    +0.000 A 
ATOM     14  C   UNL     1      -3.536  11.902  18.620  0.00  0.00    +0.000 A 
ATOM     15  C   UNL     1      -2.284  11.352  18.307  0.00  0.00    +0.000 A 
ATOM     16  C   UNL     1      -1.217  11.370  19.253  0.00  0.00    +0.000 A 
BRANCH  12  17
ATOM     17  C   UNL     1      -3.010  12.775  22.273  0.00  0.00    +0.000 C 
ATOM     18  F   UNL     1      -2.580  14.021  22.614  0.00  0.00    +0.000 F 
ATOM     19  F   UNL     1      -4.327  12.714  22.611  0.00  0.00    +0.000 F 
ATOM     20  F   UNL     1      -2.373  11.944  23.153  0.00  0.00    +0.000 F 
ENDBRANCH  12  17
ENDBRANCH   5   7
BRANCH   1  24
ATOM     21  C   UNL     1       5.151   5.551  16.716  0.00  0.00    +0.000 A 
ATOM     22  C   UNL     1       5.018   6.924  16.515  0.00  0.00    +0.000 A 
ATOM     23  C   UNL     1       4.000   7.620  17.168  0.00  0.00    +0.000 A 
ATOM     24  C   UNL     1       3.122   6.965  18.045  0.00  0.00    +0.000 A 
ATOM     25  C   UNL     1       3.194   5.556  18.115  0.00  0.00    +0.000 A 
ATOM     26  C   UNL     1       4.204   4.847  17.459  0.00  0.00    +0.000 A 
BRANCH  21  28
ATOM     27  C   UNL     1       7.576   4.479  17.528  0.00  0.00    +0.000 C 
ATOM     28  S   UNL     1       6.576   4.705  16.077  0.00  0.00    +0.000 S 
ATOM     29  O   UNL     1       7.271   5.617  15.189  0.00  0.00    +0.000 OA
ATOM     30  O   UNL     1       6.141   3.401  15.617  0.00  0.00    +0.000 OA
ENDBRANCH  21  28
ENDBRANCH   1  24
TORSDOF 4
ENDMDL
MODEL 3
REMARK VINA RESULT:      -8.8      1.065      1.359
REMARK  Name = 
REMARK  5 active torsions:
REMARK  status: ('A' for Active; 'I' for Inactive)
REMARK    1  A    between atoms: C_1  and  S_2
REMARK    2  A    between atoms: S_2  and  C_5
REMARK    3  A    between atoms: C_8  and  C_9
REMARK    4  A    between atoms: C_13  and  C_14
REMARK    5  A    between atoms: C_19  and  C_20
REMARK                            x       y       z     vdW  Elec       q    Type
REMARK                         _______ _______ _______ _____ _____    ______ ____
ROOT
ATOM      1  C   UNL     1       1.544   8.392  19.583  0.00  0.00    +0.000 A 
ATOM      2  C   UNL     1       1.288   8.361  20.961  0.00  0.00    +0.000 A 
ATOM      3  C   UNL     1       0.488   9.328  21.541  0.00  0.00    +0.000 A 
ATOM      4  C   UNL     1      -0.067  10.336  20.747  0.00  0.00    +0.000 A 
ATOM      5  C   UNL     1       0.103  10.421  19.337  0.00  0.00    +0.000 A 
ATOM      6  C   UNL     1       0.926   9.418  18.786  0.00  0.00    +0.000 A 
ENDROOT
BRANCH   5   7
ATOM      7  C   UNL     1      -0.707  11.460  18.523  0.00  0.00    +0.000 A 
ATOM      8  C   UNL     1      -0.277  12.755  18.767  0.00  0.00    +0.000 A 
ATOM      9  C   UNL     1      -1.028  13.434  19.703  0.00  0.00    +0.000 A 
ATOM     10  N   UNL     1      -2.257  13.056  20.069  0.00  0.00    +0.000 NA
ATOM     11  C   UNL     1      -2.862  12.152  19.302  0.00  0.00    +0.000 A 
ATOM     12  C   UNL     1      -4.249  12.128  19.250  0.00  0.00    +0.000 A 
ATOM     13  C   UNL     1      -4.893  11.787  18.046  0.00  0.00    +0.000 A 
ATOM     14  C   UNL     1      -4.142  11.337  16.969  0.00  0.00    +0.000 A 
ATOM     15  C   UNL     1      -2.772  11.085  17.139  0.00  0.00    +0.000 A 
ATOM     16  C   UNL     1      -2.109  11.427  18.354  0.00  0.00    +0.000 A 
BRANCH  12  17
ATOM     17  C   UNL     1      -5.052  12.565  20.440  0.00  0.00    +0.000 C 
ATOM     18  F   UNL     1      -6.328  12.095  20.496  0.00  0.00    +0.000 F 
ATOM     19  F   UNL     1      -4.469  12.245  21.627  0.00  0.00    +0.000 F 
ATOM     20  F   UNL     1      -5.189  13.926  20.461  0.00  0.00    +0.000 F 
ENDBRANCH  12  17
ENDBRANCH   5   7
BRANCH   1  24
ATOM     21  C   UNL     1       4.599   5.793  18.102  0.00  0.00    +0.000 A 
ATOM     22  C   UNL     1       4.225   6.910  17.357  0.00  0.00    +0.000 A 
ATOM     23  C   UNL     1       3.165   7.705  17.793  0.00  0.00    +0.000 A 
ATOM     24  C   UNL     1       2.485   7.416  18.986  0.00  0.00    +0.000 A 
ATOM     25  C   UNL     1       2.795   6.202  19.640  0.00  0.00    +0.000 A 
ATOM     26  C   UNL     1       3.850   5.393  19.207  0.00  0.00    +0.000 A 
BRANCH  21  28
ATOM     27  C   UNL     1       7.167   6.219  17.145  0.00  0.00    +0.000 C 
ATOM     28  S   UNL     1       6.085   4.916  17.681  0.00  0.00    +0.000 S 
ATOM     29  O   UNL     1       5.793   4.074  16.537  0.00  0.00    +0.000 OA
ATOM     30  O   UNL     1       6.623   4.354  18.905  0.00  0.00    +0.000 OA
ENDBRANCH  21  28
ENDBRANCH   1  24
TORSDOF 4
ENDMDL
MODEL 4
REMARK VINA RESULT:      -8.7      0.672      1.005
REMARK  Name = 
REMARK  5 active torsions:
REMARK  status: ('A' for Active; 'I' for Inactive)
REMARK    1  A    between atoms: C_1  and  S_2
REMARK    2  A    between atoms: S_2  and  C_5
REMARK    3  A    between atoms: C_8  and  C_9
REMARK    4  A    between atoms: C_13  and  C_14
REMARK    5  A    between atoms: C_19  and  C_20
REMARK                            x       y       z     vdW  Elec       q    Type
REMARK                         _______ _______ _______ _____ _____    ______ ____
ROOT
ATOM      1  C   UNL     1       2.003   7.809  19.514  0.00  0.00    +0.000 A 
ATOM      2  C   UNL     1       1.587   7.425  20.797  0.00  0.00    +0.000 A 
ATOM      3  C   UNL     1       0.699   8.213  21.504  0.00  0.00    +0.000 A 
ATOM      4  C   UNL     1       0.216   9.395  20.934  0.00  0.00    +0.000 A 
ATOM      5  C   UNL     1       0.548   9.840  19.625  0.00  0.00    +0.000 A 
ATOM      6  C   UNL     1       1.457   9.009  18.939  0.00  0.00    +0.000 A 
ENDROOT
BRANCH   5   7
ATOM      7  C   UNL     1      -0.187  11.057  19.014  0.00  0.00    +0.000 A 
ATOM      8  C   UNL     1       0.605  12.196  19.019  0.00  0.00    +0.000 A 
ATOM      9  C   UNL     1       0.372  13.042  20.083  0.00  0.00    +0.000 A 
ATOM     10  N   UNL     1      -0.739  12.994  20.826  0.00  0.00    +0.000 NA
ATOM     11  C   UNL     1      -1.755  12.282  20.344  0.00  0.00    +0.000 A 
ATOM     12  C   UNL     1      -3.051  12.620  20.710  0.00  0.00    +0.000 A 
ATOM     13  C   UNL     1      -4.097  12.464  19.782  0.00  0.00    +0.000 A 
ATOM     14  C   UNL     1      -3.850  11.839  18.567  0.00  0.00    +0.000 A 
ATOM     15  C   UNL     1      -2.602  11.240  18.339  0.00  0.00    +0.000 A 
ATOM     16  C   UNL     1      -1.534  11.391  19.273  0.00  0.00    +0.000 A 
BRANCH  12  17
ATOM     17  C   UNL     1      -3.314  13.245  22.048  0.00  0.00    +0.000 C 
ATOM     18  F   UNL     1      -4.618  13.285  22.436  0.00  0.00    +0.000 F 
ATOM     19  F   UNL     1      -2.627  12.651  23.062  0.00  0.00    +0.000 F 
ATOM     20  F   UNL     1      -2.916  14.554  22.061  0.00  0.00    +0.000 F 
ENDBRANCH  12  17
ENDBRANCH   5   7
BRANCH   1  24
ATOM     21  C   UNL     1       5.294   5.801  17.666  0.00  0.00    +0.000 A 
ATOM     22  C   UNL     1       4.629   6.811  16.974  0.00  0.00    +0.000 A 
ATOM     23  C   UNL     1       3.498   7.403  17.538  0.00  0.00    +0.000 A 
ATOM     24  C   UNL     1       3.034   7.015  18.804  0.00  0.00    +0.000 A 
ATOM     25  C   UNL     1       3.643   5.895  19.413  0.00  0.00    +0.000 A 
ATOM     26  C   UNL     1       4.772   5.289  18.852  0.00  0.00    +0.000 A 
BRANCH  21  28
ATOM     27  C   UNL     1       6.378   4.058  15.801  0.00  0.00    +0.000 C 
ATOM     28  S   UNL     1       6.858   5.210  17.065  0.00  0.00    +0.000 S 
ATOM     29  O   UNL     1       7.491   4.464  18.136  0.00  0.00    +0.000 OA
ATOM     30  O   UNL     1       7.533   6.326  16.431  0.00  0.00    +0.000 OA
ENDBRANCH  21  28
ENDBRANCH   1  24
TORSDOF 4
ENDMDL
MODEL 5
REMARK VINA RESULT:      -8.7      1.437      1.839
REMARK  Name = 
REMARK  5 active torsions:
REMARK  status: ('A' for Active; 'I' for Inactive)
REMARK    1  A    between atoms: C_1  and  S_2
REMARK    2  A    between atoms: S_2  and  C_5
REMARK    3  A    between atoms: C_8  and  C_9
REMARK    4  A    between atoms: C_13  and  C_14
REMARK    5  A    between atoms: C_19  and  C_20
REMARK                            x       y       z     vdW  Elec       q    Type
REMARK                         _______ _______ _______ _____ _____    ______ ____
ROOT
ATOM      1  C   UNL     1       2.494   7.377  18.842  0.00  0.00    +0.000 A 
ATOM      2  C   UNL     1       2.091   6.781  20.046  0.00  0.00    +0.000 A 
ATOM      3  C   UNL     1       1.308   7.484  20.941  0.00  0.00    +0.000 A 
ATOM      4  C   UNL     1       0.917   8.792  20.641  0.00  0.00    +0.000 A 
ATOM      5  C   UNL     1       1.241   9.461  19.428  0.00  0.00    +0.000 A 
ATOM      6  C   UNL     1       2.041   8.709  18.543  0.00  0.00    +0.000 A 
ENDROOT
BRANCH   5   7
ATOM      7  C   UNL     1       0.602  10.833  19.108  0.00  0.00    +0.000 A 
ATOM      8  C   UNL     1       1.523  11.866  19.195  0.00  0.00    +0.000 A 
ATOM      9  C   UNL     1       1.506  12.540  20.399  0.00  0.00    +0.000 A 
ATOM     10  N   UNL     1       0.480  12.483  21.254  0.00  0.00    +0.000 NA
ATOM     11  C   UNL     1      -0.659  11.972  20.794  0.00  0.00    +0.000 A 
ATOM     12  C   UNL     1      -1.860  12.376  21.363  0.00  0.00    +0.000 A 
ATOM     13  C   UNL     1      -3.007  12.489  20.556  0.00  0.00    +0.000 A 
ATOM     14  C   UNL     1      -2.965  12.056  19.238  0.00  0.00    +0.000 A 
ATOM     15  C   UNL     1      -1.830  11.377  18.769  0.00  0.00    +0.000 A 
ATOM     16  C   UNL     1      -0.661  11.257  19.578  0.00  0.00    +0.000 A 
BRANCH  12  17
ATOM     17  C   UNL     1      -1.905  12.790  22.804  0.00  0.00    +0.000 C 
ATOM     18  F   UNL     1      -1.270  13.957  23.104  0.00  0.00    +0.000 F 
ATOM     19  F   UNL     1      -3.171  12.902  23.291  0.00  0.00    +0.000 F 
ATOM     20  F   UNL     1      -1.295  11.858  23.598  0.00  0.00    +0.000 F 
ENDBRANCH  12  17
ENDBRANCH   5   7
BRANCH   1  24
ATOM     21  C   UNL     1       5.508   5.445  16.505  0.00  0.00    +0.000 A 
ATOM     22  C   UNL     1       5.072   6.720  16.147  0.00  0.00    +0.000 A 
ATOM     23  C   UNL     1       4.023   7.312  16.852  0.00  0.00    +0.000 A 
ATOM     24  C   UNL     1       3.418   6.656  17.935  0.00  0.00    +0.000 A 
ATOM     25  C   UNL     1       3.786   5.314  18.179  0.00  0.00    +0.000 A 
ATOM     26  C   UNL     1       4.829   4.708  17.473  0.00  0.00    +0.000 A 
BRANCH  21  28
ATOM     27  C   UNL     1       6.347   3.556  14.657  0.00  0.00    +0.000 C 
ATOM     28  S   UNL     1       6.984   4.786  15.769  0.00  0.00    +0.000 S 
ATOM     29  O   UNL     1       7.732   4.106  16.810  0.00  0.00    +0.000 OA
ATOM     30  O   UNL     1       7.590   5.841  14.981  0.00  0.00    +0.000 OA
ENDBRANCH  21  28
ENDBRANCH   1  24
TORSDOF 4
ENDMDL
MODEL 6
REMARK VINA RESULT:      -8.6      1.803      2.263
REMARK  Name = 
REMARK  5 active torsions:
REMARK  status: ('A' for Active; 'I' for Inactive)
REMARK    1  A    between atoms: C_1  and  S_2
REMARK    2  A    between atoms: S_2  and  C_5
REMARK    3  A    between atoms: C_8  and  C_9
REMARK    4  A    between atoms: C_13  and  C_14
REMARK    5  A    between atoms: C_19  and  C_20
REMARK                            x       y       z     vdW  Elec       q    Type
REMARK                         _______ _______ _______ _____ _____    ______ ____
ROOT
ATOM      1  C   UNL     1       1.257   8.411  20.363  0.00  0.00    +0.000 A 
ATOM      2  C   UNL     1       1.129   8.625  21.744  0.00  0.00    +0.000 A 
ATOM      3  C   UNL     1       0.522   9.773  22.216  0.00  0.00    +0.000 A 
ATOM      4  C   UNL     1       0.035  10.721  21.311  0.00  0.00    +0.000 A 
ATOM      5  C   UNL     1       0.082  10.569  19.897  0.00  0.00    +0.000 A 
ATOM      6  C   UNL     1       0.710   9.386  19.459  0.00  0.00    +0.000 A 
ENDROOT
BRANCH   5   7
ATOM      7  C   UNL     1      -0.654  11.581  18.988  0.00  0.00    +0.000 A 
ATOM      8  C   UNL     1      -0.289  12.889  19.268  0.00  0.00    +0.000 A 
ATOM      9  C   UNL     1      -1.160  13.554  20.106  0.00  0.00    +0.000 A 
ATOM     10  N   UNL     1      -2.413  13.145  20.331  0.00  0.00    +0.000 NA
ATOM     11  C   UNL     1      -2.902  12.221  19.507  0.00  0.00    +0.000 A 
ATOM     12  C   UNL     1      -4.273  12.160  19.295  0.00  0.00    +0.000 A 
ATOM     13  C   UNL     1      -4.765  11.796  18.028  0.00  0.00    +0.000 A 
ATOM     14  C   UNL     1      -3.883  11.360  17.049  0.00  0.00    +0.000 A 
ATOM     15  C   UNL     1      -2.536  11.145  17.377  0.00  0.00    +0.000 A 
ATOM     16  C   UNL     1      -2.026  11.511  18.658  0.00  0.00    +0.000 A 
BRANCH  12  17
ATOM     17  C   UNL     1      -5.218  12.582  20.381  0.00  0.00    +0.000 C 
ATOM     18  F   UNL     1      -4.842  12.261  21.650  0.00  0.00    +0.000 F 
ATOM     19  F   UNL     1      -5.473  13.919  20.380  0.00  0.00    +0.000 F 
ATOM     20  F   UNL     1      -6.438  11.983  20.226  0.00  0.00    +0.000 F 
ENDBRANCH  12  17
ENDBRANCH   5   7
BRANCH   1  24
ATOM     21  C   UNL     1       3.015   4.894  18.684  0.00  0.00    +0.000 A 
ATOM     22  C   UNL     1       2.407   4.828  19.937  0.00  0.00    +0.000 A 
ATOM     23  C   UNL     1       1.916   5.995  20.526  0.00  0.00    +0.000 A 
ATOM     24  C   UNL     1       2.001   7.230  19.866  0.00  0.00    +0.000 A 
ATOM     25  C   UNL     1       2.747   7.284  18.667  0.00  0.00    +0.000 A 
ATOM     26  C   UNL     1       3.250   6.124  18.072  0.00  0.00    +0.000 A 
BRANCH  21  28
ATOM     27  C   UNL     1       4.663   3.931  16.673  0.00  0.00    +0.000 C 
ATOM     28  S   UNL     1       3.429   3.392  17.832  0.00  0.00    +0.000 S 
ATOM     29  O   UNL     1       2.261   2.972  17.081  0.00  0.00    +0.000 OA
ATOM     30  O   UNL     1       4.060   2.505  18.789  0.00  0.00    +0.000 OA
ENDBRANCH  21  28
ENDBRANCH   1  24
TORSDOF 4
ENDMDL
MODEL 7
REMARK VINA RESULT:      -8.6      6.237      8.465
REMARK  Name = 
REMARK  5 active torsions:
REMARK  status: ('A' for Active; 'I' for Inactive)
REMARK    1  A    between atoms: C_1  and  S_2
REMARK    2  A    between atoms: S_2  and  C_5
REMARK    3  A    between atoms: C_8  and  C_9
REMARK    4  A    between atoms: C_13  and  C_14
REMARK    5  A    between atoms: C_19  and  C_20
REMARK                            x       y       z     vdW  Elec       q    Type
REMARK                         _______ _______ _______ _____ _____    ______ ____
ROOT
ATOM      1  C   UNL     1       7.759   7.973  18.256  0.00  0.00    +0.000 A 
ATOM      2  C   UNL     1       8.503   6.930  18.825  0.00  0.00    +0.000 A 
ATOM      3  C   UNL     1       7.937   5.679  18.986  0.00  0.00    +0.000 A 
ATOM      4  C   UNL     1       6.619   5.458  18.576  0.00  0.00    +0.000 A 
ATOM      5  C   UNL     1       5.804   6.443  17.950  0.00  0.00    +0.000 A 
ATOM      6  C   UNL     1       6.420   7.703  17.807  0.00  0.00    +0.000 A 
ENDROOT
BRANCH   5   7
ATOM      7  C   UNL     1       4.430   6.047  17.360  0.00  0.00    +0.000 A 
ATOM      8  C   UNL     1       3.584   7.139  17.241  0.00  0.00    +0.000 A 
ATOM      9  C   UNL     1       2.694   7.283  18.284  0.00  0.00    +0.000 A 
ATOM     10  N   UNL     1       2.394   6.293  19.132  0.00  0.00    +0.000 NA
ATOM     11  C   UNL     1       2.772   5.066  18.781  0.00  0.00    +0.000 A 
ATOM     12  C   UNL     1       2.053   3.976  19.255  0.00  0.00    +0.000 A 
ATOM     13  C   UNL     1       1.897   2.840  18.439  0.00  0.00    +0.000 A 
ATOM     14  C   UNL     1       2.582   2.760  17.234  0.00  0.00    +0.000 A 
ATOM     15  C   UNL     1       3.534   3.740  16.914  0.00  0.00    +0.000 A 
ATOM     16  C   UNL     1       3.701   4.896  17.733  0.00  0.00    +0.000 A 
BRANCH  12  17
ATOM     17  C   UNL     1       1.362   4.054  20.583  0.00  0.00    +0.000 C 
ATOM     18  F   UNL     1       0.310   4.917  20.652  0.00  0.00    +0.000 F 
ATOM     19  F   UNL     1       0.903   2.850  21.021  0.00  0.00    +0.000 F 
ATOM     20  F   UNL     1       2.221   4.487  21.556  0.00  0.00    +0.000 F 
ENDBRANCH  12  17
ENDBRANCH   5   7
BRANCH   1  24
ATOM     21  C   UNL     1       9.115  12.026  18.378  0.00  0.00    +0.000 A 
ATOM     22  C   UNL     1       8.159  11.649  17.436  0.00  0.00    +0.000 A 
ATOM     23  C   UNL     1       7.785  10.308  17.334  0.00  0.00    +0.000 A 
ATOM     24  C   UNL     1       8.336   9.336  18.183  0.00  0.00    +0.000 A 
ATOM     25  C   UNL     1       9.402   9.727  19.025  0.00  0.00    +0.000 A 
ATOM     26  C   UNL     1       9.790  11.066  19.129  0.00  0.00    +0.000 A 
BRANCH  21  28
ATOM     27  C   UNL     1       7.867  14.499  18.255  0.00  0.00    +0.000 C 
ATOM     28  S   UNL     1       9.423  13.751  18.671  0.00  0.00    +0.000 S 
ATOM     29  O   UNL     1      10.409  14.195  17.704  0.00  0.00    +0.000 OA
ATOM     30  O   UNL     1       9.643  13.920  20.094  0.00  0.00    +0.000 OA
ENDBRANCH  21  28
ENDBRANCH   1  24
TORSDOF 4
ENDMDL
MODEL 8
REMARK VINA RESULT:      -8.5      1.433      1.904
REMARK  Name = 
REMARK  5 active torsions:
REMARK  status: ('A' for Active; 'I' for Inactive)
REMARK    1  A    between atoms: C_1  and  S_2
REMARK    2  A    between atoms: S_2  and  C_5
REMARK    3  A    between atoms: C_8  and  C_9
REMARK    4  A    between atoms: C_13  and  C_14
REMARK    5  A    between atoms: C_19  and  C_20
REMARK                            x       y       z     vdW  Elec       q    Type
REMARK                         _______ _______ _______ _____ _____    ______ ____
ROOT
ATOM      1  C   UNL     1       1.362   8.491  19.561  0.00  0.00    +0.000 A 
ATOM      2  C   UNL     1       1.060   8.449  20.931  0.00  0.00    +0.000 A 
ATOM      3  C   UNL     1       0.221   9.396  21.486  0.00  0.00    +0.000 A 
ATOM      4  C   UNL     1      -0.327  10.396  20.678  0.00  0.00    +0.000 A 
ATOM      5  C   UNL     1      -0.112  10.491  19.274  0.00  0.00    +0.000 A 
ATOM      6  C   UNL     1       0.750   9.507  18.749  0.00  0.00    +0.000 A 
ENDROOT
BRANCH   5   7
ATOM      7  C   UNL     1      -0.915  11.516  18.438  0.00  0.00    +0.000 A 
ATOM      8  C   UNL     1      -1.029  12.736  19.087  0.00  0.00    +0.000 A 
ATOM      9  C   UNL     1      -2.214  12.905  19.772  0.00  0.00    +0.000 A 
ATOM     10  N   UNL     1      -3.303  12.163  19.544  0.00  0.00    +0.000 NA
ATOM     11  C   UNL     1      -3.307  11.425  18.436  0.00  0.00    +0.000 A 
ATOM     12  C   UNL     1      -4.520  11.104  17.843  0.00  0.00    +0.000 A 
ATOM     13  C   UNL     1      -4.605  11.012  16.441  0.00  0.00    +0.000 A 
ATOM     14  C   UNL     1      -3.450  11.098  15.676  0.00  0.00    +0.000 A 
ATOM     15  C   UNL     1      -2.200  11.125  16.312  0.00  0.00    +0.000 A 
ATOM     16  C   UNL     1      -2.102  11.219  17.732  0.00  0.00    +0.000 A 
BRANCH  12  17
ATOM     17  C   UNL     1      -5.752  10.960  18.686  0.00  0.00    +0.000 C 
ATOM     18  F   UNL     1      -6.095   9.684  19.019  0.00  0.00    +0.000 F 
ATOM     19  F   UNL     1      -5.689  11.659  19.852  0.00  0.00    +0.000 F 
ATOM     20  F   UNL     1      -6.851  11.447  18.032  0.00  0.00    +0.000 F 
ENDBRANCH  12  17
ENDBRANCH   5   7
BRANCH   1  24
ATOM     21  C   UNL     1       4.521   5.973  18.160  0.00  0.00    +0.000 A 
ATOM     22  C   UNL     1       4.112   7.058  17.387  0.00  0.00    +0.000 A 
ATOM     23  C   UNL     1       3.020   7.824  17.798  0.00  0.00    +0.000 A 
ATOM     24  C   UNL     1       2.343   7.536  18.993  0.00  0.00    +0.000 A 
ATOM     25  C   UNL     1       2.692   6.350  19.676  0.00  0.00    +0.000 A 
ATOM     26  C   UNL     1       3.778   5.570  19.269  0.00  0.00    +0.000 A 
BRANCH  21  28
ATOM     27  C   UNL     1       5.574   4.099  16.409  0.00  0.00    +0.000 C 
ATOM     28  S   UNL     1       6.041   5.142  17.769  0.00  0.00    +0.000 S 
ATOM     29  O   UNL     1       6.382   4.290  18.892  0.00  0.00    +0.000 OA
ATOM     30  O   UNL     1       6.971   6.140  17.279  0.00  0.00    +0.000 OA
ENDBRANCH  21  28
ENDBRANCH   1  24
TORSDOF 4
ENDMDL
MODEL 9
REMARK VINA RESULT:      -8.5      1.196      1.628
REMARK  Name = 
REMARK  5 active torsions:
REMARK  status: ('A' for Active; 'I' for Inactive)
REMARK    1  A    between atoms: C_1  and  S_2
REMARK    2  A    between atoms: S_2  and  C_5
REMARK    3  A    between atoms: C_8  and  C_9
REMARK    4  A    between atoms: C_13  and  C_14
REMARK    5  A    between atoms: C_19  and  C_20
REMARK                            x       y       z     vdW  Elec       q    Type
REMARK                         _______ _______ _______ _____ _____    ______ ____
ROOT
ATOM      1  C   UNL     1       1.520   8.377  19.533  0.00  0.00    +0.000 A 
ATOM      2  C   UNL     1       1.124   8.203  20.867  0.00  0.00    +0.000 A 
ATOM      3  C   UNL     1       0.193   9.053  21.432  0.00  0.00    +0.000 A 
ATOM      4  C   UNL     1      -0.355  10.088  20.667  0.00  0.00    +0.000 A 
ATOM      5  C   UNL     1      -0.045  10.313  19.297  0.00  0.00    +0.000 A 
ATOM      6  C   UNL     1       0.909   9.425  18.761  0.00  0.00    +0.000 A 
ENDROOT
BRANCH   5   7
ATOM      7  C   UNL     1      -0.846  11.362  18.488  0.00  0.00    +0.000 A 
ATOM      8  C   UNL     1      -0.364  12.647  18.688  0.00  0.00    +0.000 A 
ATOM      9  C   UNL     1      -1.060  13.371  19.633  0.00  0.00    +0.000 A 
ATOM     10  N   UNL     1      -2.289  13.043  20.047  0.00  0.00    +0.000 NA
ATOM     11  C   UNL     1      -2.949  12.145  19.320  0.00  0.00    +0.000 A 
ATOM     12  C   UNL     1      -4.337  12.168  19.314  0.00  0.00    +0.000 A 
ATOM     13  C   UNL     1      -5.032  11.824  18.139  0.00  0.00    +0.000 A 
ATOM     14  C   UNL     1      -4.333  11.325  17.049  0.00  0.00    +0.000 A 
ATOM     15  C   UNL     1      -2.968  11.030  17.179  0.00  0.00    +0.000 A 
ATOM     16  C   UNL     1      -2.253  11.374  18.365  0.00  0.00    +0.000 A 
BRANCH  12  17
ATOM     17  C   UNL     1      -5.084  12.658  20.519  0.00  0.00    +0.000 C 
ATOM     18  F   UNL     1      -4.560  12.302  21.724  0.00  0.00    +0.000 F 
ATOM     19  F   UNL     1      -5.231  14.011  20.545  0.00  0.00    +0.000 F 
ATOM     20  F   UNL     1      -6.357  12.156  20.541  0.00  0.00    +0.000 F 
ENDBRANCH  12  17
ENDBRANCH   5   7
BRANCH   1  24
ATOM     21  C   UNL     1       4.284   5.721  17.640  0.00  0.00    +0.000 A 
ATOM     22  C   UNL     1       3.737   5.378  18.875  0.00  0.00    +0.000 A 
ATOM     23  C   UNL     1       2.908   6.286  19.537  0.00  0.00    +0.000 A 
ATOM     24  C   UNL     1       2.594   7.529  18.966  0.00  0.00    +0.000 A 
ATOM     25  C   UNL     1       3.277   7.900  17.786  0.00  0.00    +0.000 A 
ATOM     26  C   UNL     1       4.115   7.002  17.119  0.00  0.00    +0.000 A 
BRANCH  21  28
ATOM     27  C   UNL     1       6.784   4.551  17.372  0.00  0.00    +0.000 C 
ATOM     28  S   UNL     1       5.144   4.490  16.691  0.00  0.00    +0.000 S 
ATOM     29  O   UNL     1       5.210   4.955  15.319  0.00  0.00    +0.000 OA
ATOM     30  O   UNL     1       4.564   3.202  17.017  0.00  0.00    +0.000 OA
ENDBRANCH  21  28
ENDBRANCH   1  24
TORSDOF 4
ENDMDL
