MODEL 1
REMARK VINA RESULT:      -9.3      0.000      0.000
REMARK  Name = 
REMARK  3 active torsions:
REMARK  status: ('A' for Active; 'I' for Inactive)
REMARK    1  A    between atoms: C_2  and  C_3
REMARK    2  A    between atoms: C_7  and  C_8
REMARK    3  A    between atoms: N_16  and  C_17
REMARK                            x       y       z     vdW  Elec       q    Type
REMARK                         _______ _______ _______ _____ _____    ______ ____
ROOT
ATOM      1  C   UNL     1       0.852   9.311  20.601  0.00  0.00    +0.000 A 
ATOM      2  C   UNL     1       0.005   8.741  21.543  0.00  0.00    +0.000 A 
ATOM      3  C   UNL     1      -0.671   9.567  22.441  0.00  0.00    +0.000 A 
ATOM      4  C   UNL     1      -0.535  10.941  22.392  0.00  0.00    +0.000 A 
ATOM      5  N   UNL     1      -1.203  11.689  23.282  0.00  0.00    +0.000 NA
ATOM      6  C   UNL     1      -1.070  13.012  23.158  0.00  0.00    +0.000 A 
ATOM      7  N   UNL     1      -0.363  13.638  22.215  0.00  0.00    +0.000 NA
ATOM      8  C   UNL     1       0.316  12.854  21.347  0.00  0.00    +0.000 A 
ATOM      9  N   UNL     1       1.066  13.472  20.311  0.00  0.00    +0.000 N 
ATOM     10  C   UNL     1       0.293  11.455  21.388  0.00  0.00    +0.000 A 
ATOM     11  N   UNL     1       0.987  10.658  20.518  0.00  0.00    +0.000 NA
ATOM     12  H   UNL     1       1.969  13.029  20.188  0.00  0.00    +0.000 HD
ENDROOT
BRANCH   1  17
ATOM     13  C   UNL     1       2.999   6.571  19.089  0.00  0.00    +0.000 A 
ATOM     14  C   UNL     1       3.214   7.061  17.796  0.00  0.00    +0.000 A 
ATOM     15  C   UNL     1       2.624   8.257  17.394  0.00  0.00    +0.000 A 
ATOM     16  C   UNL     1       1.848   8.988  18.297  0.00  0.00    +0.000 A 
ATOM     17  C   UNL     1       1.594   8.516  19.597  0.00  0.00    +0.000 A 
ATOM     18  C   UNL     1       2.119   7.253  19.936  0.00  0.00    +0.000 A 
BRANCH  13  20
ATOM     19  O   UNL     1       4.879   5.433  19.827  0.00  0.00    +0.000 OA
ATOM     20  C   UNL     1       3.701   5.317  19.487  0.00  0.00    +0.000 C 
ATOM     21  N   UNL     1       3.034   4.094  19.511  0.00  0.00    +0.000 N 
ATOM     22  C   UNL     1       1.610   3.815  19.273  0.00  0.00    +0.000 C 
ATOM     23  C   UNL     1       1.472   2.683  18.239  0.00  0.00    +0.000 C 
ATOM     24  N   UNL     1       2.127   1.445  18.707  0.00  0.00    +0.000 NA
ATOM     25  C   UNL     1       3.544   1.708  19.027  0.00  0.00    +0.000 C 
ATOM     26  C   UNL     1       3.759   2.907  19.975  0.00  0.00    +0.000 C 
ATOM     27  H   UNL     1       2.077   0.743  17.970  0.00  0.00    +0.000 HD
ENDBRANCH  13  20
ENDBRANCH   1  17
BRANCH   9  28
ATOM     28  C   UNL     1       0.903  14.739  19.732  0.00  0.00    +0.000 A 
ATOM     29  C   UNL     1      -0.269  15.041  19.027  0.00  0.00    +0.000 A 
ATOM     30  C   UNL     1      -0.472  16.311  18.477  0.00  0.00    +0.000 A 
ATOM     31  C   UNL     1       0.495  17.302  18.633  0.00  0.00    +0.000 A 
ATOM     32  C   UNL     1       1.676  17.011  19.313  0.00  0.00    +0.000 A 
ATOM     33  C   UNL     1       1.881  15.735  19.843  0.00  0.00    +0.000 A 
ENDBRANCH   9  28
TORSDOF 3
ENDMDL
MODEL 2
REMARK VINA RESULT:      -9.1      2.685      3.226
REMARK  Name = 
REMARK  3 active torsions:
REMARK  status: ('A' for Active; 'I' for Inactive)
REMARK    1  A    between atoms: C_2  and  C_3
REMARK    2  A    between atoms: C_7  and  C_8
REMARK    3  A    between atoms: N_16  and  C_17
REMARK                            x       y       z     vdW  Elec       q    Type
REMARK                         _______ _______ _______ _____ _____    ______ ____
ROOT
ATOM      1  C   UNL     1       0.942   9.157  20.704  0.00  0.00    +0.000 A 
ATOM      2  C   UNL     1       1.172   8.996  22.065  0.00  0.00    +0.000 A 
ATOM      3  C   UNL     1       0.418   9.734  22.977  0.00  0.00    +0.000 A 
ATOM      4  C   UNL     1      -0.572  10.600  22.552  0.00  0.00    +0.000 A 
ATOM      5  N   UNL     1      -1.265  11.289  23.470  0.00  0.00    +0.000 NA
ATOM      6  C   UNL     1      -2.240  12.074  23.005  0.00  0.00    +0.000 A 
ATOM      7  N   UNL     1      -2.593  12.201  21.725  0.00  0.00    +0.000 NA
ATOM      8  C   UNL     1      -1.861  11.509  20.823  0.00  0.00    +0.000 A 
ATOM      9  N   UNL     1      -2.210  11.593  19.449  0.00  0.00    +0.000 N 
ATOM     10  C   UNL     1      -0.789  10.678  21.172  0.00  0.00    +0.000 A 
ATOM     11  N   UNL     1      -0.038   9.984  20.262  0.00  0.00    +0.000 NA
ATOM     12  H   UNL     1      -1.391  11.685  18.860  0.00  0.00    +0.000 HD
ENDROOT
BRANCH   1  17
ATOM     13  C   UNL     1       3.104   6.495  19.081  0.00  0.00    +0.000 A 
ATOM     14  C   UNL     1       3.292   7.024  17.800  0.00  0.00    +0.000 A 
ATOM     15  C   UNL     1       2.678   8.222  17.441  0.00  0.00    +0.000 A 
ATOM     16  C   UNL     1       1.905   8.916  18.377  0.00  0.00    +0.000 A 
ATOM     17  C   UNL     1       1.679   8.403  19.666  0.00  0.00    +0.000 A 
ATOM     18  C   UNL     1       2.229   7.139  19.961  0.00  0.00    +0.000 A 
BRANCH  13  20
ATOM     19  O   UNL     1       5.019   5.362  19.733  0.00  0.00    +0.000 OA
ATOM     20  C   UNL     1       3.831   5.240  19.432  0.00  0.00    +0.000 C 
ATOM     21  N   UNL     1       3.176   4.011  19.457  0.00  0.00    +0.000 N 
ATOM     22  C   UNL     1       1.748   3.722  19.264  0.00  0.00    +0.000 C 
ATOM     23  C   UNL     1       1.584   2.607  18.215  0.00  0.00    +0.000 C 
ATOM     24  N   UNL     1       2.265   1.368  18.638  0.00  0.00    +0.000 NA
ATOM     25  C   UNL     1       3.690   1.639  18.913  0.00  0.00    +0.000 C 
ATOM     26  C   UNL     1       3.927   2.823  19.874  0.00  0.00    +0.000 C 
ATOM     27  H   UNL     1       2.196   0.678  17.891  0.00  0.00    +0.000 HD
ENDBRANCH  13  20
ENDBRANCH   1  17
BRANCH   9  28
ATOM     28  C   UNL     1      -3.445  11.913  18.867  0.00  0.00    +0.000 A 
ATOM     29  C   UNL     1      -3.719  11.526  17.549  0.00  0.00    +0.000 A 
ATOM     30  C   UNL     1      -4.960  11.799  16.962  0.00  0.00    +0.000 A 
ATOM     31  C   UNL     1      -5.948  12.457  17.690  0.00  0.00    +0.000 A 
ATOM     32  C   UNL     1      -5.683  12.868  18.994  0.00  0.00    +0.000 A 
ATOM     33  C   UNL     1      -4.436  12.611  19.569  0.00  0.00    +0.000 A 
ENDBRANCH   9  28
TORSDOF 3
ENDMDL
MODEL 3
REMARK VINA RESULT:      -8.7      3.023      9.572
REMARK  Name = 
REMARK  3 active torsions:
REMARK  status: ('A' for Active; 'I' for Inactive)
REMARK    1  A    between atoms: C_2  and  C_3
REMARK    2  A    between atoms: C_7  and  C_8
REMARK    3  A    between atoms: N_16  and  C_17
REMARK                            x       y       z     vdW  Elec       q    Type
REMARK                         _______ _______ _______ _____ _____    ______ ____
ROOT
ATOM      1  C   UNL     1       1.983   6.498  19.912  0.00  0.00    +0.000 A 
ATOM      2  C   UNL     1       1.705   5.683  21.002  0.00  0.00    +0.000 A 
ATOM      3  C   UNL     1       2.057   4.335  20.953  0.00  0.00    +0.000 A 
ATOM      4  C   UNL     1       2.702   3.803  19.852  0.00  0.00    +0.000 A 
ATOM      5  N   UNL     1       3.013   2.498  19.853  0.00  0.00    +0.000 NA
ATOM      6  C   UNL     1       3.676   2.050  18.785  0.00  0.00    +0.000 A 
ATOM      7  N   UNL     1       4.074   2.790  17.749  0.00  0.00    +0.000 NA
ATOM      8  C   UNL     1       3.725   4.097  17.768  0.00  0.00    +0.000 A 
ATOM      9  N   UNL     1       4.143   4.932  16.699  0.00  0.00    +0.000 N 
ATOM     10  C   UNL     1       2.999   4.687  18.810  0.00  0.00    +0.000 A 
ATOM     11  N   UNL     1       2.634   6.006  18.829  0.00  0.00    +0.000 NA
ATOM     12  H   UNL     1       3.403   5.556  16.400  0.00  0.00    +0.000 HD
ENDROOT
BRANCH   1  17
ATOM     13  C   UNL     1       0.644   9.884  20.980  0.00  0.00    +0.000 A 
ATOM     14  C   UNL     1       0.821  10.640  19.817  0.00  0.00    +0.000 A 
ATOM     15  C   UNL     1       1.421  10.068  18.697  0.00  0.00    +0.000 A 
ATOM     16  C   UNL     1       1.809   8.726  18.724  0.00  0.00    +0.000 A 
ATOM     17  C   UNL     1       1.665   7.944  19.883  0.00  0.00    +0.000 A 
ATOM     18  C   UNL     1       1.151   8.582  21.030  0.00  0.00    +0.000 A 
BRANCH  13  20
ATOM     19  O   UNL     1       0.207  10.082  23.249  0.00  0.00    +0.000 OA
ATOM     20  C   UNL     1      -0.056  10.526  22.131  0.00  0.00    +0.000 C 
ATOM     21  N   UNL     1      -0.925  11.598  21.939  0.00  0.00    +0.000 N 
ATOM     22  C   UNL     1      -1.231  12.327  20.699  0.00  0.00    +0.000 C 
ATOM     23  C   UNL     1      -2.758  12.412  20.515  0.00  0.00    +0.000 C 
ATOM     24  N   UNL     1      -3.397  13.112  21.647  0.00  0.00    +0.000 NA
ATOM     25  C   UNL     1      -3.047  12.447  22.919  0.00  0.00    +0.000 C 
ATOM     26  C   UNL     1      -1.532  12.230  23.115  0.00  0.00    +0.000 C 
ATOM     27  H   UNL     1      -4.409  13.086  21.525  0.00  0.00    +0.000 HD
ENDBRANCH  13  20
ENDBRANCH   1  17
BRANCH   9  28
ATOM     28  C   UNL     1       5.226   4.775  15.822  0.00  0.00    +0.000 A 
ATOM     29  C   UNL     1       5.042   4.137  14.588  0.00  0.00    +0.000 A 
ATOM     30  C   UNL     1       6.098   4.006  13.680  0.00  0.00    +0.000 A 
ATOM     31  C   UNL     1       7.355   4.520  13.993  0.00  0.00    +0.000 A 
ATOM     32  C   UNL     1       7.561   5.136  15.224  0.00  0.00    +0.000 A 
ATOM     33  C   UNL     1       6.508   5.247  16.135  0.00  0.00    +0.000 A 
ENDBRANCH   9  28
TORSDOF 3
ENDMDL
MODEL 4
REMARK VINA RESULT:      -8.6      3.600      9.990
REMARK  Name = 
REMARK  3 active torsions:
REMARK  status: ('A' for Active; 'I' for Inactive)
REMARK    1  A    between atoms: C_2  and  C_3
REMARK    2  A    between atoms: C_7  and  C_8
REMARK    3  A    between atoms: N_16  and  C_17
REMARK                            x       y       z     vdW  Elec       q    Type
REMARK                         _______ _______ _______ _____ _____    ______ ____
ROOT
ATOM      1  C   UNL     1       0.566  10.201  20.002  0.00  0.00    +0.000 A 
ATOM      2  C   UNL     1       0.916  10.892  18.848  0.00  0.00    +0.000 A 
ATOM      3  C   UNL     1       1.795  10.302  17.940  0.00  0.00    +0.000 A 
ATOM      4  C   UNL     1       2.299   9.032  18.153  0.00  0.00    +0.000 A 
ATOM      5  N   UNL     1       3.145   8.513  17.252  0.00  0.00    +0.000 NA
ATOM      6  C   UNL     1       3.564   7.267  17.485  0.00  0.00    +0.000 A 
ATOM      7  N   UNL     1       3.189   6.500  18.510  0.00  0.00    +0.000 NA
ATOM      8  C   UNL     1       2.353   7.061  19.413  0.00  0.00    +0.000 A 
ATOM      9  N   UNL     1       1.907   6.279  20.511  0.00  0.00    +0.000 N 
ATOM     10  C   UNL     1       1.867   8.370  19.307  0.00  0.00    +0.000 A 
ATOM     11  N   UNL     1       1.029   8.946  20.224  0.00  0.00    +0.000 NA
ATOM     12  H   UNL     1       1.918   6.807  21.376  0.00  0.00    +0.000 HD
ENDROOT
BRANCH   1  17
ATOM     13  C   UNL     1      -1.957  12.492  21.671  0.00  0.00    +0.000 A 
ATOM     14  C   UNL     1      -2.017  11.955  22.961  0.00  0.00    +0.000 A 
ATOM     15  C   UNL     1      -1.278  10.819  23.281  0.00  0.00    +0.000 A 
ATOM     16  C   UNL     1      -0.444  10.238  22.322  0.00  0.00    +0.000 A 
ATOM     17  C   UNL     1      -0.375  10.739  21.010  0.00  0.00    +0.000 A 
ATOM     18  C   UNL     1      -1.215  11.825  20.691  0.00  0.00    +0.000 A 
BRANCH  13  20
ATOM     19  O   UNL     1      -2.104  14.800  21.516  0.00  0.00    +0.000 OA
ATOM     20  C   UNL     1      -2.723  13.742  21.398  0.00  0.00    +0.000 C 
ATOM     21  N   UNL     1      -4.054  13.698  20.989  0.00  0.00    +0.000 N 
ATOM     22  C   UNL     1      -4.882  12.526  20.669  0.00  0.00    +0.000 C 
ATOM     23  C   UNL     1      -6.213  12.609  21.439  0.00  0.00    +0.000 C 
ATOM     24  N   UNL     1      -6.962  13.830  21.086  0.00  0.00    +0.000 NA
ATOM     25  C   UNL     1      -6.130  15.026  21.326  0.00  0.00    +0.000 C 
ATOM     26  C   UNL     1      -4.734  14.958  20.671  0.00  0.00    +0.000 C 
ATOM     27  H   UNL     1      -7.799  13.886  21.666  0.00  0.00    +0.000 HD
ENDBRANCH  13  20
ENDBRANCH   1  17
BRANCH   9  28
ATOM     28  C   UNL     1       1.814   4.884  20.626  0.00  0.00    +0.000 A 
ATOM     29  C   UNL     1       1.005   4.160  19.741  0.00  0.00    +0.000 A 
ATOM     30  C   UNL     1       0.930   2.765  19.811  0.00  0.00    +0.000 A 
ATOM     31  C   UNL     1       1.672   2.073  20.765  0.00  0.00    +0.000 A 
ATOM     32  C   UNL     1       2.464   2.779  21.667  0.00  0.00    +0.000 A 
ATOM     33  C   UNL     1       2.520   4.173  21.606  0.00  0.00    +0.000 A 
ENDBRANCH   9  28
TORSDOF 3
ENDMDL
MODEL 5
REMARK VINA RESULT:      -8.3      1.078      1.121
REMARK  Name = 
REMARK  3 active torsions:
REMARK  status: ('A' for Active; 'I' for Inactive)
REMARK    1  A    between atoms: C_2  and  C_3
REMARK    2  A    between atoms: C_7  and  C_8
REMARK    3  A    between atoms: N_16  and  C_17
REMARK                            x       y       z     vdW  Elec       q    Type
REMARK                         _______ _______ _______ _____ _____    ______ ____
ROOT
ATOM      1  C   UNL     1       0.592   9.532  21.095  0.00  0.00    +0.000 A 
ATOM      2  C   UNL     1      -0.265   9.161  22.123  0.00  0.00    +0.000 A 
ATOM      3  C   UNL     1      -0.864  10.150  22.904  0.00  0.00    +0.000 A 
ATOM      4  C   UNL     1      -0.642  11.491  22.654  0.00  0.00    +0.000 A 
ATOM      5  N   UNL     1      -1.237  12.402  23.437  0.00  0.00    +0.000 NA
ATOM      6  C   UNL     1      -1.024  13.681  23.121  0.00  0.00    +0.000 A 
ATOM      7  N   UNL     1      -0.304  14.117  22.086  0.00  0.00    +0.000 NA
ATOM      8  C   UNL     1       0.302  13.174  21.329  0.00  0.00    +0.000 A 
ATOM      9  N   UNL     1       1.063  13.585  20.203  0.00  0.00    +0.000 N 
ATOM     10  C   UNL     1       0.190  11.799  21.573  0.00  0.00    +0.000 A 
ATOM     11  N   UNL     1       0.810  10.842  20.816  0.00  0.00    +0.000 NA
ATOM     12  H   UNL     1       1.932  13.070  20.130  0.00  0.00    +0.000 HD
ENDROOT
BRANCH   1  17
ATOM     13  C   UNL     1       2.174   6.303  19.882  0.00  0.00    +0.000 A 
ATOM     14  C   UNL     1       2.714   6.696  18.653  0.00  0.00    +0.000 A 
ATOM     15  C   UNL     1       2.525   7.996  18.190  0.00  0.00    +0.000 A 
ATOM     16  C   UNL     1       1.828   8.920  18.974  0.00  0.00    +0.000 A 
ATOM     17  C   UNL     1       1.255   8.554  20.204  0.00  0.00    +0.000 A 
ATOM     18  C   UNL     1       1.375   7.205  20.594  0.00  0.00    +0.000 A 
BRANCH  13  20
ATOM     19  O   UNL     1       2.446   4.746  21.578  0.00  0.00    +0.000 OA
ATOM     20  C   UNL     1       2.454   4.918  20.358  0.00  0.00    +0.000 C 
ATOM     21  N   UNL     1       2.669   3.876  19.459  0.00  0.00    +0.000 N 
ATOM     22  C   UNL     1       2.573   3.889  17.992  0.00  0.00    +0.000 C 
ATOM     23  C   UNL     1       3.851   3.282  17.385  0.00  0.00    +0.000 C 
ATOM     24  N   UNL     1       4.050   1.890  17.835  0.00  0.00    +0.000 NA
ATOM     25  C   UNL     1       4.077   1.831  19.310  0.00  0.00    +0.000 C 
ATOM     26  C   UNL     1       2.875   2.523  19.986  0.00  0.00    +0.000 C 
ATOM     27  H   UNL     1       4.939   1.547  17.472  0.00  0.00    +0.000 HD
ENDBRANCH  13  20
ENDBRANCH   1  17
BRANCH   9  28
ATOM     28  C   UNL     1       0.965  14.764  19.450  0.00  0.00    +0.000 A 
ATOM     29  C   UNL     1      -0.293  15.304  19.153  0.00  0.00    +0.000 A 
ATOM     30  C   UNL     1      -0.413  16.501  18.439  0.00  0.00    +0.000 A 
ATOM     31  C   UNL     1       0.728  17.180  18.019  0.00  0.00    +0.000 A 
ATOM     32  C   UNL     1       1.986  16.646  18.286  0.00  0.00    +0.000 A 
ATOM     33  C   UNL     1       2.100  15.440  18.982  0.00  0.00    +0.000 A 
ENDBRANCH   9  28
TORSDOF 3
ENDMDL
MODEL 6
REMARK VINA RESULT:      -8.3      3.319      4.707
REMARK  Name = 
REMARK  3 active torsions:
REMARK  status: ('A' for Active; 'I' for Inactive)
REMARK    1  A    between atoms: C_2  and  C_3
REMARK    2  A    between atoms: C_7  and  C_8
REMARK    3  A    between atoms: N_16  and  C_17
REMARK                            x       y       z     vdW  Elec       q    Type
REMARK                         _______ _______ _______ _____ _____    ______ ____
ROOT
ATOM      1  C   UNL     1       1.554   7.787  20.642  0.00  0.00    +0.000 A 
ATOM      2  C   UNL     1       1.903   8.320  21.876  0.00  0.00    +0.000 A 
ATOM      3  C   UNL     1       1.520   9.624  22.190  0.00  0.00    +0.000 A 
ATOM      4  C   UNL     1       0.776  10.383  21.306  0.00  0.00    +0.000 A 
ATOM      5  N   UNL     1       0.438  11.633  21.655  0.00  0.00    +0.000 NA
ATOM      6  C   UNL     1      -0.320  12.303  20.783  0.00  0.00    +0.000 A 
ATOM      7  N   UNL     1      -0.786  11.824  19.629  0.00  0.00    +0.000 NA
ATOM      8  C   UNL     1      -0.409  10.569  19.297  0.00  0.00    +0.000 A 
ATOM      9  N   UNL     1      -0.896  10.005  18.088  0.00  0.00    +0.000 N 
ATOM     10  C   UNL     1       0.412   9.771  20.103  0.00  0.00    +0.000 A 
ATOM     11  N   UNL     1       0.805   8.503  19.766  0.00  0.00    +0.000 NA
ATOM     12  H   UNL     1      -0.170   9.505  17.589  0.00  0.00    +0.000 HD
ENDROOT
BRANCH   1  17
ATOM     13  C   UNL     1       2.898   4.906  18.570  0.00  0.00    +0.000 A 
ATOM     14  C   UNL     1       2.398   3.799  19.264  0.00  0.00    +0.000 A 
ATOM     15  C   UNL     1       1.665   3.982  20.435  0.00  0.00    +0.000 A 
ATOM     16  C   UNL     1       1.395   5.274  20.893  0.00  0.00    +0.000 A 
ATOM     17  C   UNL     1       1.899   6.407  20.231  0.00  0.00    +0.000 A 
ATOM     18  C   UNL     1       2.724   6.184  19.111  0.00  0.00    +0.000 A 
BRANCH  13  20
ATOM     19  O   UNL     1       3.204   3.738  16.590  0.00  0.00    +0.000 OA
ATOM     20  C   UNL     1       3.626   4.658  17.292  0.00  0.00    +0.000 C 
ATOM     21  N   UNL     1       4.697   5.461  16.906  0.00  0.00    +0.000 N 
ATOM     22  C   UNL     1       5.226   6.670  17.555  0.00  0.00    +0.000 C 
ATOM     23  C   UNL     1       6.749   6.535  17.736  0.00  0.00    +0.000 C 
ATOM     24  N   UNL     1       7.430   6.356  16.439  0.00  0.00    +0.000 NA
ATOM     25  C   UNL     1       6.870   5.191  15.726  0.00  0.00    +0.000 C 
ATOM     26  C   UNL     1       5.332   5.210  15.607  0.00  0.00    +0.000 C 
ATOM     27  H   UNL     1       8.424   6.200  16.604  0.00  0.00    +0.000 HD
ENDBRANCH  13  20
ENDBRANCH   1  17
BRANCH   9  28
ATOM     28  C   UNL     1      -2.051  10.329  17.361  0.00  0.00    +0.000 A 
ATOM     29  C   UNL     1      -3.089  11.041  17.975  0.00  0.00    +0.000 A 
ATOM     30  C   UNL     1      -4.232  11.411  17.258  0.00  0.00    +0.000 A 
ATOM     31  C   UNL     1      -4.347  11.079  15.910  0.00  0.00    +0.000 A 
ATOM     32  C   UNL     1      -3.334  10.353  15.289  0.00  0.00    +0.000 A 
ATOM     33  C   UNL     1      -2.204   9.968  16.016  0.00  0.00    +0.000 A 
ENDBRANCH   9  28
TORSDOF 3
ENDMDL
MODEL 7
REMARK VINA RESULT:      -8.2      3.040     10.137
REMARK  Name = 
REMARK  3 active torsions:
REMARK  status: ('A' for Active; 'I' for Inactive)
REMARK    1  A    between atoms: C_2  and  C_3
REMARK    2  A    between atoms: C_7  and  C_8
REMARK    3  A    between atoms: N_16  and  C_17
REMARK                            x       y       z     vdW  Elec       q    Type
REMARK                         _______ _______ _______ _____ _____    ______ ____
ROOT
ATOM      1  C   UNL     1       0.590  10.182  19.956  0.00  0.00    +0.000 A 
ATOM      2  C   UNL     1       0.963  10.864  18.804  0.00  0.00    +0.000 A 
ATOM      3  C   UNL     1       1.853  10.265  17.914  0.00  0.00    +0.000 A 
ATOM      4  C   UNL     1       2.348   8.994  18.142  0.00  0.00    +0.000 A 
ATOM      5  N   UNL     1       3.206   8.467  17.257  0.00  0.00    +0.000 NA
ATOM      6  C   UNL     1       3.614   7.220  17.504  0.00  0.00    +0.000 A 
ATOM      7  N   UNL     1       3.219   6.460  18.527  0.00  0.00    +0.000 NA
ATOM      8  C   UNL     1       2.371   7.030  19.413  0.00  0.00    +0.000 A 
ATOM      9  N   UNL     1       1.904   6.256  20.507  0.00  0.00    +0.000 N 
ATOM     10  C   UNL     1       1.894   8.341  19.292  0.00  0.00    +0.000 A 
ATOM     11  N   UNL     1       1.044   8.925  20.192  0.00  0.00    +0.000 NA
ATOM     12  H   UNL     1       1.904   6.788  21.369  0.00  0.00    +0.000 HD
ENDROOT
BRANCH   1  17
ATOM     13  C   UNL     1      -1.990  12.463  21.548  0.00  0.00    +0.000 A 
ATOM     14  C   UNL     1      -2.037  11.970  22.856  0.00  0.00    +0.000 A 
ATOM     15  C   UNL     1      -1.269  10.864  23.214  0.00  0.00    +0.000 A 
ATOM     16  C   UNL     1      -0.420  10.272  22.274  0.00  0.00    +0.000 A 
ATOM     17  C   UNL     1      -0.364  10.730  20.946  0.00  0.00    +0.000 A 
ATOM     18  C   UNL     1      -1.231  11.783  20.591  0.00  0.00    +0.000 A 
BRANCH  13  20
ATOM     19  O   UNL     1      -3.976  13.508  20.965  0.00  0.00    +0.000 OA
ATOM     20  C   UNL     1      -2.787  13.684  21.233  0.00  0.00    +0.000 C 
ATOM     21  N   UNL     1      -2.213  14.952  21.284  0.00  0.00    +0.000 N 
ATOM     22  C   UNL     1      -0.862  15.337  21.719  0.00  0.00    +0.000 C 
ATOM     23  C   UNL     1      -0.211  16.232  20.648  0.00  0.00    +0.000 C 
ATOM     24  N   UNL     1      -1.002  17.457  20.418  0.00  0.00    +0.000 NA
ATOM     25  C   UNL     1      -2.389  17.106  20.052  0.00  0.00    +0.000 C 
ATOM     26  C   UNL     1      -3.063  16.120  21.029  0.00  0.00    +0.000 C 
ATOM     27  H   UNL     1      -0.580  17.987  19.656  0.00  0.00    +0.000 HD
ENDBRANCH  13  20
ENDBRANCH   1  17
BRANCH   9  28
ATOM     28  C   UNL     1       1.803   4.862  20.629  0.00  0.00    +0.000 A 
ATOM     29  C   UNL     1       0.989   4.139  19.746  0.00  0.00    +0.000 A 
ATOM     30  C   UNL     1       0.905   2.745  19.822  0.00  0.00    +0.000 A 
ATOM     31  C   UNL     1       1.643   2.053  20.780  0.00  0.00    +0.000 A 
ATOM     32  C   UNL     1       2.439   2.757  21.679  0.00  0.00    +0.000 A 
ATOM     33  C   UNL     1       2.504   4.151  21.611  0.00  0.00    +0.000 A 
ENDBRANCH   9  28
TORSDOF 3
ENDMDL
MODEL 8
REMARK VINA RESULT:      -8.1      3.144      4.588
REMARK  Name = 
REMARK  3 active torsions:
REMARK  status: ('A' for Active; 'I' for Inactive)
REMARK    1  A    between atoms: C_2  and  C_3
REMARK    2  A    between atoms: C_7  and  C_8
REMARK    3  A    between atoms: N_16  and  C_17
REMARK                            x       y       z     vdW  Elec       q    Type
REMARK                         _______ _______ _______ _____ _____    ______ ____
ROOT
ATOM      1  C   UNL     1       1.453   7.657  20.790  0.00  0.00    +0.000 A 
ATOM      2  C   UNL     1       1.810   8.231  22.004  0.00  0.00    +0.000 A 
ATOM      3  C   UNL     1       1.493   9.568  22.246  0.00  0.00    +0.000 A 
ATOM      4  C   UNL     1       0.805  10.321  21.313  0.00  0.00    +0.000 A 
ATOM      5  N   UNL     1       0.531  11.603  21.593  0.00  0.00    +0.000 NA
ATOM      6  C   UNL     1      -0.176  12.268  20.676  0.00  0.00    +0.000 A 
ATOM      7  N   UNL     1      -0.649  11.758  19.538  0.00  0.00    +0.000 NA
ATOM      8  C   UNL     1      -0.335  10.469  19.274  0.00  0.00    +0.000 A 
ATOM      9  N   UNL     1      -0.832   9.873  18.086  0.00  0.00    +0.000 N 
ATOM     10  C   UNL     1       0.429   9.669  20.134  0.00  0.00    +0.000 A 
ATOM     11  N   UNL     1       0.758   8.368  19.867  0.00  0.00    +0.000 NA
ATOM     12  H   UNL     1      -0.126   9.310  17.626  0.00  0.00    +0.000 HD
ENDROOT
BRANCH   1  17
ATOM     13  C   UNL     1       3.280   4.569  19.554  0.00  0.00    +0.000 A 
ATOM     14  C   UNL     1       2.263   3.609  19.578  0.00  0.00    +0.000 A 
ATOM     15  C   UNL     1       0.993   3.947  20.042  0.00  0.00    +0.000 A 
ATOM     16  C   UNL     1       0.726   5.258  20.446  0.00  0.00    +0.000 A 
ATOM     17  C   UNL     1       1.729   6.242  20.454  0.00  0.00    +0.000 A 
ATOM     18  C   UNL     1       3.027   5.841  20.078  0.00  0.00    +0.000 A 
BRANCH  13  20
ATOM     19  O   UNL     1       5.166   3.222  19.539  0.00  0.00    +0.000 OA
ATOM     20  C   UNL     1       4.604   4.172  18.993  0.00  0.00    +0.000 C 
ATOM     21  N   UNL     1       5.142   4.822  17.885  0.00  0.00    +0.000 N 
ATOM     22  C   UNL     1       4.538   5.866  17.045  0.00  0.00    +0.000 C 
ATOM     23  C   UNL     1       5.519   7.044  16.901  0.00  0.00    +0.000 C 
ATOM     24  N   UNL     1       6.789   6.613  16.284  0.00  0.00    +0.000 NA
ATOM     25  C   UNL     1       7.386   5.511  17.064  0.00  0.00    +0.000 C 
ATOM     26  C   UNL     1       6.416   4.343  17.339  0.00  0.00    +0.000 C 
ATOM     27  H   UNL     1       7.436   7.401  16.271  0.00  0.00    +0.000 HD
ENDBRANCH  13  20
ENDBRANCH   1  17
BRANCH   9  28
ATOM     28  C   UNL     1      -1.956  10.221  17.322  0.00  0.00    +0.000 A 
ATOM     29  C   UNL     1      -2.931  11.071  17.858  0.00  0.00    +0.000 A 
ATOM     30  C   UNL     1      -4.039  11.465  17.099  0.00  0.00    +0.000 A 
ATOM     31  C   UNL     1      -4.181  11.019  15.788  0.00  0.00    +0.000 A 
ATOM     32  C   UNL     1      -3.231  10.155  15.247  0.00  0.00    +0.000 A 
ATOM     33  C   UNL     1      -2.138   9.749  16.016  0.00  0.00    +0.000 A 
ENDBRANCH   9  28
TORSDOF 3
ENDMDL
MODEL 9
REMARK VINA RESULT:      -8.1      3.548      9.435
REMARK  Name = 
REMARK  3 active torsions:
REMARK  status: ('A' for Active; 'I' for Inactive)
REMARK    1  A    between atoms: C_2  and  C_3
REMARK    2  A    between atoms: C_7  and  C_8
REMARK    3  A    between atoms: N_16  and  C_17
REMARK                            x       y       z     vdW  Elec       q    Type
REMARK                         _______ _______ _______ _____ _____    ______ ____
ROOT
ATOM      1  C   UNL     1       1.926   7.362  19.517  0.00  0.00    +0.000 A 
ATOM      2  C   UNL     1       1.587   6.714  20.699  0.00  0.00    +0.000 A 
ATOM      3  C   UNL     1       1.891   5.361  20.846  0.00  0.00    +0.000 A 
ATOM      4  C   UNL     1       2.548   4.662  19.851  0.00  0.00    +0.000 A 
ATOM      5  N   UNL     1       2.811   3.361  20.041  0.00  0.00    +0.000 NA
ATOM      6  C   UNL     1       3.488   2.748  19.067  0.00  0.00    +0.000 A 
ATOM      7  N   UNL     1       3.942   3.325  17.953  0.00  0.00    +0.000 NA
ATOM      8  C   UNL     1       3.641   4.633  17.782  0.00  0.00    +0.000 A 
ATOM      9  N   UNL     1       4.120   5.299  16.623  0.00  0.00    +0.000 N 
ATOM     10  C   UNL     1       2.907   5.384  18.708  0.00  0.00    +0.000 A 
ATOM     11  N   UNL     1       2.590   6.704  18.534  0.00  0.00    +0.000 NA
ATOM     12  H   UNL     1       3.411   5.898  16.217  0.00  0.00    +0.000 HD
ENDROOT
BRANCH   1  17
ATOM     13  C   UNL     1       0.285  10.776  19.734  0.00  0.00    +0.000 A 
ATOM     14  C   UNL     1       0.947  11.475  18.720  0.00  0.00    +0.000 A 
ATOM     15  C   UNL     1       1.963  10.857  17.994  0.00  0.00    +0.000 A 
ATOM     16  C   UNL     1       2.293   9.524  18.254  0.00  0.00    +0.000 A 
ATOM     17  C   UNL     1       1.662   8.799  19.280  0.00  0.00    +0.000 A 
ATOM     18  C   UNL     1       0.712   9.486  20.063  0.00  0.00    +0.000 A 
BRANCH  13  20
ATOM     19  O   UNL     1      -0.726  11.571  21.663  0.00  0.00    +0.000 OA
ATOM     20  C   UNL     1      -0.834  11.464  20.441  0.00  0.00    +0.000 C 
ATOM     21  N   UNL     1      -1.915  11.990  19.738  0.00  0.00    +0.000 N 
ATOM     22  C   UNL     1      -2.121  12.069  18.285  0.00  0.00    +0.000 C 
ATOM     23  C   UNL     1      -3.508  11.503  17.928  0.00  0.00    +0.000 C 
ATOM     24  N   UNL     1      -4.584  12.257  18.601  0.00  0.00    +0.000 NA
ATOM     25  C   UNL     1      -4.367  12.261  20.061  0.00  0.00    +0.000 C 
ATOM     26  C   UNL     1      -2.953  12.714  20.481  0.00  0.00    +0.000 C 
ATOM     27  H   UNL     1      -5.479  11.811  18.399  0.00  0.00    +0.000 HD
ENDBRANCH  13  20
ENDBRANCH   1  17
BRANCH   9  28
ATOM     28  C   UNL     1       5.221   4.987  15.812  0.00  0.00    +0.000 A 
ATOM     29  C   UNL     1       5.034   4.282  14.617  0.00  0.00    +0.000 A 
ATOM     30  C   UNL     1       6.112   3.996  13.772  0.00  0.00    +0.000 A 
ATOM     31  C   UNL     1       7.395   4.421  14.111  0.00  0.00    +0.000 A 
ATOM     32  C   UNL     1       7.602   5.103  15.307  0.00  0.00    +0.000 A 
ATOM     33  C   UNL     1       6.524   5.368  16.156  0.00  0.00    +0.000 A 
ENDBRANCH   9  28
TORSDOF 3
ENDMDL
