MODEL 1
REMARK VINA RESULT:      -7.8      0.000      0.000
REMARK  Name = 
REMARK  6 active torsions:
REMARK  status: ('A' for Active; 'I' for Inactive)
REMARK    1  A    between atoms: C_1  and  C_2
REMARK    2  A    between atoms: C_6  and  N_7
REMARK    3  A    between atoms: C_8  and  C_10
REMARK    4  A    between atoms: C_13  and  C_14
REMARK    5  A    between atoms: C_14  and  O_15
REMARK    6  A    between atoms: O_15  and  C_16
REMARK                            x       y       z     vdW  Elec       q    Type
REMARK                         _______ _______ _______ _____ _____    ______ ____
ROOT
ATOM      1  C   UNL     1       7.830   7.853  18.011  0.00  0.00    +0.000 A 
ATOM      2  C   UNL     1       8.186   6.709  18.701  0.00  0.00    +0.000 A 
ATOM      3  C   UNL     1       7.441   5.645  18.147  0.00  0.00    +0.000 A 
ATOM      4  C   UNL     1       6.668   6.193  17.144  0.00  0.00    +0.000 A 
ATOM      5  O   UNL     1       6.908   7.536  17.046  0.00  0.00    +0.000 OA
ENDROOT
BRANCH   1   7
ATOM      6  N   UNL     1       9.099   9.401  19.277  0.00  0.00    +0.000 N 
ATOM      7  C   UNL     1       8.274   9.226  18.182  0.00  0.00    +0.000 C 
ATOM      8  O   UNL     1       7.915  10.100  17.399  0.00  0.00    +0.000 OA
ATOM      9  H   UNL     1       9.291   8.576  19.828  0.00  0.00    +0.000 HD
BRANCH   6  15
ATOM     10  C   UNL     1       9.259  13.105  22.322  0.00  0.00    +0.000 C 
ATOM     11  C   UNL     1       9.815  12.435  21.103  0.00  0.00    +0.000 A 
ATOM     12  C   UNL     1      10.854  12.997  20.378  0.00  0.00    +0.000 A 
ATOM     13  C   UNL     1      11.313  12.322  19.252  0.00  0.00    +0.000 A 
ATOM     14  C   UNL     1      10.721  11.115  18.887  0.00  0.00    +0.000 A 
ATOM     15  C   UNL     1       9.684  10.611  19.662  0.00  0.00    +0.000 A 
ATOM     16  N   UNL     1       9.241  11.262  20.754  0.00  0.00    +0.000 NA
ENDBRANCH   6  15
ENDBRANCH   1   7
BRANCH   4  17
ATOM     17  C   UNL     1       5.658   5.619  16.216  0.00  0.00    +0.000 C 
BRANCH  17  18
ATOM     18  O   UNL     1       4.390   5.876  16.815  0.00  0.00    +0.000 OA
BRANCH  18  19
ATOM     19  C   UNL     1       3.714   4.792  17.298  0.00  0.00    +0.000 A 
ATOM     20  C   UNL     1       2.451   5.072  17.823  0.00  0.00    +0.000 A 
ATOM     21  C   UNL     1       1.647   4.049  18.326  0.00  0.00    +0.000 A 
ATOM     22  C   UNL     1       2.099   2.732  18.289  0.00  0.00    +0.000 A 
ATOM     23  C   UNL     1       3.352   2.443  17.749  0.00  0.00    +0.000 A 
ATOM     24  C   UNL     1       4.161   3.470  17.253  0.00  0.00    +0.000 A 
ENDBRANCH  18  19
ENDBRANCH  17  18
ENDBRANCH   4  17
TORSDOF 5
ENDMDL
MODEL 2
REMARK VINA RESULT:      -7.7      0.961      1.695
REMARK  Name = 
REMARK  6 active torsions:
REMARK  status: ('A' for Active; 'I' for Inactive)
REMARK    1  A    between atoms: C_1  and  C_2
REMARK    2  A    between atoms: C_6  and  N_7
REMARK    3  A    between atoms: C_8  and  C_10
REMARK    4  A    between atoms: C_13  and  C_14
REMARK    5  A    between atoms: C_14  and  O_15
REMARK    6  A    between atoms: O_15  and  C_16
REMARK                            x       y       z     vdW  Elec       q    Type
REMARK                         _______ _______ _______ _____ _____    ______ ____
ROOT
ATOM      1  C   UNL     1       7.595   7.568  17.960  0.00  0.00    +0.000 A 
ATOM      2  C   UNL     1       7.996   6.459  18.681  0.00  0.00    +0.000 A 
ATOM      3  C   UNL     1       7.176   5.383  18.273  0.00  0.00    +0.000 A 
ATOM      4  C   UNL     1       6.317   5.891  17.320  0.00  0.00    +0.000 A 
ATOM      5  O   UNL     1       6.573   7.219  17.114  0.00  0.00    +0.000 OA
ENDROOT
BRANCH   1   7
ATOM      6  N   UNL     1       8.944   9.180  19.051  0.00  0.00    +0.000 N 
ATOM      7  C   UNL     1       8.083   8.937  17.999  0.00  0.00    +0.000 C 
ATOM      8  O   UNL     1       7.725   9.750  17.154  0.00  0.00    +0.000 OA
ATOM      9  H   UNL     1       9.130   8.400  19.666  0.00  0.00    +0.000 HD
BRANCH   6  15
ATOM     10  C   UNL     1      11.802  12.736  17.566  0.00  0.00    +0.000 C 
ATOM     11  C   UNL     1      10.952  12.157  18.655  0.00  0.00    +0.000 A 
ATOM     12  C   UNL     1      10.808  12.795  19.878  0.00  0.00    +0.000 A 
ATOM     13  C   UNL     1      10.010  12.194  20.845  0.00  0.00    +0.000 A 
ATOM     14  C   UNL     1       9.386  10.981  20.562  0.00  0.00    +0.000 A 
ATOM     15  C   UNL     1       9.575  10.400  19.314  0.00  0.00    +0.000 A 
ATOM     16  N   UNL     1      10.345  10.982  18.377  0.00  0.00    +0.000 NA
ENDBRANCH   6  15
ENDBRANCH   1   7
BRANCH   4  17
ATOM     17  C   UNL     1       5.206   5.290  16.536  0.00  0.00    +0.000 C 
BRANCH  17  18
ATOM     18  O   UNL     1       5.095   3.943  16.991  0.00  0.00    +0.000 OA
BRANCH  18  19
ATOM     19  C   UNL     1       3.879   3.568  17.490  0.00  0.00    +0.000 A 
ATOM     20  C   UNL     1       2.902   4.565  17.471  0.00  0.00    +0.000 A 
ATOM     21  C   UNL     1       1.610   4.303  17.929  0.00  0.00    +0.000 A 
ATOM     22  C   UNL     1       1.286   3.032  18.396  0.00  0.00    +0.000 A 
ATOM     23  C   UNL     1       2.253   2.026  18.401  0.00  0.00    +0.000 A 
ATOM     24  C   UNL     1       3.550   2.292  17.949  0.00  0.00    +0.000 A 
ENDBRANCH  18  19
ENDBRANCH  17  18
ENDBRANCH   4  17
TORSDOF 5
ENDMDL
MODEL 3
REMARK VINA RESULT:      -7.5      1.031      1.826
REMARK  Name = 
REMARK  6 active torsions:
REMARK  status: ('A' for Active; 'I' for Inactive)
REMARK    1  A    between atoms: C_1  and  C_2
REMARK    2  A    between atoms: C_6  and  N_7
REMARK    3  A    between atoms: C_8  and  C_10
REMARK    4  A    between atoms: C_13  and  C_14
REMARK    5  A    between atoms: C_14  and  O_15
REMARK    6  A    between atoms: O_15  and  C_16
REMARK                            x       y       z     vdW  Elec       q    Type
REMARK                         _______ _______ _______ _____ _____    ______ ____
ROOT
ATOM      1  C   UNL     1       7.848   7.856  18.049  0.00  0.00    +0.000 A 
ATOM      2  C   UNL     1       8.225   6.738  18.770  0.00  0.00    +0.000 A 
ATOM      3  C   UNL     1       7.483   5.649  18.259  0.00  0.00    +0.000 A 
ATOM      4  C   UNL     1       6.692   6.159  17.249  0.00  0.00    +0.000 A 
ATOM      5  O   UNL     1       6.917   7.500  17.107  0.00  0.00    +0.000 OA
ENDROOT
BRANCH   1   7
ATOM      6  N   UNL     1       9.163   9.444  19.213  0.00  0.00    +0.000 N 
ATOM      7  C   UNL     1       8.280   9.238  18.171  0.00  0.00    +0.000 C 
ATOM      8  O   UNL     1       7.864  10.092  17.396  0.00  0.00    +0.000 OA
ATOM      9  H   UNL     1       9.399   8.632  19.767  0.00  0.00    +0.000 HD
BRANCH   6  15
ATOM     10  C   UNL     1      12.120  13.036  18.042  0.00  0.00    +0.000 C 
ATOM     11  C   UNL     1      11.170  12.443  19.036  0.00  0.00    +0.000 A 
ATOM     12  C   UNL     1      10.896  13.074  20.241  0.00  0.00    +0.000 A 
ATOM     13  C   UNL     1      10.009  12.459  21.119  0.00  0.00    +0.000 A 
ATOM     14  C   UNL     1       9.430  11.242  20.769  0.00  0.00    +0.000 A 
ATOM     15  C   UNL     1       9.751  10.669  19.544  0.00  0.00    +0.000 A 
ATOM     16  N   UNL     1      10.606  11.264  18.693  0.00  0.00    +0.000 NA
ENDBRANCH   6  15
ENDBRANCH   1   7
BRANCH   4  17
ATOM     17  C   UNL     1       5.676   5.546  16.354  0.00  0.00    +0.000 C 
BRANCH  17  18
ATOM     18  O   UNL     1       5.455   4.232  16.859  0.00  0.00    +0.000 OA
BRANCH  18  19
ATOM     19  C   UNL     1       4.320   4.046  17.597  0.00  0.00    +0.000 A 
ATOM     20  C   UNL     1       4.532   3.558  18.888  0.00  0.00    +0.000 A 
ATOM     21  C   UNL     1       3.458   3.349  19.753  0.00  0.00    +0.000 A 
ATOM     22  C   UNL     1       2.163   3.643  19.333  0.00  0.00    +0.000 A 
ATOM     23  C   UNL     1       1.947   4.147  18.051  0.00  0.00    +0.000 A 
ATOM     24  C   UNL     1       3.023   4.350  17.181  0.00  0.00    +0.000 A 
ENDBRANCH  18  19
ENDBRANCH  17  18
ENDBRANCH   4  17
TORSDOF 5
ENDMDL
MODEL 4
REMARK VINA RESULT:      -7.4      5.514      6.684
REMARK  Name = 
REMARK  6 active torsions:
REMARK  status: ('A' for Active; 'I' for Inactive)
REMARK    1  A    between atoms: C_1  and  C_2
REMARK    2  A    between atoms: C_6  and  N_7
REMARK    3  A    between atoms: C_8  and  C_10
REMARK    4  A    between atoms: C_13  and  C_14
REMARK    5  A    between atoms: C_14  and  O_15
REMARK    6  A    between atoms: O_15  and  C_16
REMARK                            x       y       z     vdW  Elec       q    Type
REMARK                         _______ _______ _______ _____ _____    ______ ____
ROOT
ATOM      1  C   UNL     1       3.524   7.064  17.781  0.00  0.00    +0.000 A 
ATOM      2  C   UNL     1       4.294   7.007  16.635  0.00  0.00    +0.000 A 
ATOM      3  C   UNL     1       5.057   5.820  16.709  0.00  0.00    +0.000 A 
ATOM      4  C   UNL     1       4.712   5.211  17.899  0.00  0.00    +0.000 A 
ATOM      5  O   UNL     1       3.770   5.956  18.553  0.00  0.00    +0.000 OA
ENDROOT
BRANCH   1   7
ATOM      6  N   UNL     1       2.150   7.886  19.525  0.00  0.00    +0.000 N 
ATOM      7  C   UNL     1       2.578   8.074  18.225  0.00  0.00    +0.000 C 
ATOM      8  O   UNL     1       2.232   8.978  17.473  0.00  0.00    +0.000 OA
ATOM      9  H   UNL     1       2.527   7.083  20.009  0.00  0.00    +0.000 HD
BRANCH   6  15
ATOM     10  C   UNL     1      -1.094  11.419  19.409  0.00  0.00    +0.000 C 
ATOM     11  C   UNL     1      -0.322  10.427  20.223  0.00  0.00    +0.000 A 
ATOM     12  C   UNL     1      -0.473  10.346  21.600  0.00  0.00    +0.000 A 
ATOM     13  C   UNL     1       0.284   9.405  22.291  0.00  0.00    +0.000 A 
ATOM     14  C   UNL     1       1.162   8.582  21.590  0.00  0.00    +0.000 A 
ATOM     15  C   UNL     1       1.259   8.718  20.211  0.00  0.00    +0.000 A 
ATOM     16  N   UNL     1       0.526   9.626  19.540  0.00  0.00    +0.000 NA
ENDBRANCH   6  15
ENDBRANCH   1   7
BRANCH   4  17
ATOM     17  C   UNL     1       5.176   3.969  18.571  0.00  0.00    +0.000 C 
BRANCH  17  18
ATOM     18  O   UNL     1       4.183   2.984  18.294  0.00  0.00    +0.000 OA
BRANCH  18  19
ATOM     19  C   UNL     1       3.128   2.923  19.159  0.00  0.00    +0.000 A 
ATOM     20  C   UNL     1       3.476   2.758  20.501  0.00  0.00    +0.000 A 
ATOM     21  C   UNL     1       2.492   2.706  21.490  0.00  0.00    +0.000 A 
ATOM     22  C   UNL     1       1.151   2.836  21.139  0.00  0.00    +0.000 A 
ATOM     23  C   UNL     1       0.798   3.020  19.802  0.00  0.00    +0.000 A 
ATOM     24  C   UNL     1       1.783   3.064  18.811  0.00  0.00    +0.000 A 
ENDBRANCH  18  19
ENDBRANCH  17  18
ENDBRANCH   4  17
TORSDOF 5
ENDMDL
MODEL 5
REMARK VINA RESULT:      -7.4      1.030      1.181
REMARK  Name = 
REMARK  6 active torsions:
REMARK  status: ('A' for Active; 'I' for Inactive)
REMARK    1  A    between atoms: C_1  and  C_2
REMARK    2  A    between atoms: C_6  and  N_7
REMARK    3  A    between atoms: C_8  and  C_10
REMARK    4  A    between atoms: C_13  and  C_14
REMARK    5  A    between atoms: C_14  and  O_15
REMARK    6  A    between atoms: O_15  and  C_16
REMARK                            x       y       z     vdW  Elec       q    Type
REMARK                         _______ _______ _______ _____ _____    ______ ____
ROOT
ATOM      1  C   UNL     1       7.599   7.362  17.916  0.00  0.00    +0.000 A 
ATOM      2  C   UNL     1       8.052   6.291  18.663  0.00  0.00    +0.000 A 
ATOM      3  C   UNL     1       7.336   5.153  18.230  0.00  0.00    +0.000 A 
ATOM      4  C   UNL     1       6.482   5.588  17.236  0.00  0.00    +0.000 A 
ATOM      5  O   UNL     1       6.645   6.930  17.030  0.00  0.00    +0.000 OA
ENDROOT
BRANCH   1   7
ATOM      6  N   UNL     1       8.897   9.048  18.955  0.00  0.00    +0.000 N 
ATOM      7  C   UNL     1       7.978   8.764  17.963  0.00  0.00    +0.000 C 
ATOM      8  O   UNL     1       7.494   9.568  17.174  0.00  0.00    +0.000 OA
ATOM      9  H   UNL     1       9.190   8.270  19.529  0.00  0.00    +0.000 HD
BRANCH   6  15
ATOM     10  C   UNL     1       9.514  12.732  21.966  0.00  0.00    +0.000 C 
ATOM     11  C   UNL     1       9.785  12.128  20.623  0.00  0.00    +0.000 A 
ATOM     12  C   UNL     1      10.535  12.795  19.666  0.00  0.00    +0.000 A 
ATOM     13  C   UNL     1      10.737  12.176  18.437  0.00  0.00    +0.000 A 
ATOM     14  C   UNL     1      10.186  10.918  18.204  0.00  0.00    +0.000 A 
ATOM     15  C   UNL     1       9.447  10.309  19.210  0.00  0.00    +0.000 A 
ATOM     16  N   UNL     1       9.252  10.906  20.400  0.00  0.00    +0.000 NA
ENDBRANCH   6  15
ENDBRANCH   1   7
BRANCH   4  17
ATOM     17  C   UNL     1       5.456   4.898  16.411  0.00  0.00    +0.000 C 
BRANCH  17  18
ATOM     18  O   UNL     1       5.043   3.766  17.171  0.00  0.00    +0.000 OA
BRANCH  18  19
ATOM     19  C   UNL     1       3.924   3.925  17.939  0.00  0.00    +0.000 A 
ATOM     20  C   UNL     1       2.717   3.860  17.241  0.00  0.00    +0.000 A 
ATOM     21  C   UNL     1       1.499   3.981  17.912  0.00  0.00    +0.000 A 
ATOM     22  C   UNL     1       1.485   4.153  19.294  0.00  0.00    +0.000 A 
ATOM     23  C   UNL     1       2.687   4.200  20.000  0.00  0.00    +0.000 A 
ATOM     24  C   UNL     1       3.907   4.086  19.326  0.00  0.00    +0.000 A 
ENDBRANCH  18  19
ENDBRANCH  17  18
ENDBRANCH   4  17
TORSDOF 5
ENDMDL
MODEL 6
REMARK VINA RESULT:      -7.4      2.444      3.635
REMARK  Name = 
REMARK  6 active torsions:
REMARK  status: ('A' for Active; 'I' for Inactive)
REMARK    1  A    between atoms: C_1  and  C_2
REMARK    2  A    between atoms: C_6  and  N_7
REMARK    3  A    between atoms: C_8  and  C_10
REMARK    4  A    between atoms: C_13  and  C_14
REMARK    5  A    between atoms: C_14  and  O_15
REMARK    6  A    between atoms: O_15  and  C_16
REMARK                            x       y       z     vdW  Elec       q    Type
REMARK                         _______ _______ _______ _____ _____    ______ ____
ROOT
ATOM      1  C   UNL     1       8.024   7.720  18.203  0.00  0.00    +0.000 A 
ATOM      2  C   UNL     1       8.176   6.724  19.149  0.00  0.00    +0.000 A 
ATOM      3  C   UNL     1       7.647   5.539  18.588  0.00  0.00    +0.000 A 
ATOM      4  C   UNL     1       7.200   5.874  17.325  0.00  0.00    +0.000 A 
ATOM      5  O   UNL     1       7.437   7.199  17.079  0.00  0.00    +0.000 OA
ENDROOT
BRANCH   1   7
ATOM      6  N   UNL     1       9.243   9.432  19.294  0.00  0.00    +0.000 N 
ATOM      7  C   UNL     1       8.374   9.130  18.263  0.00  0.00    +0.000 C 
ATOM      8  O   UNL     1       7.909   9.923  17.452  0.00  0.00    +0.000 OA
ATOM      9  H   UNL     1       9.526   8.661  19.882  0.00  0.00    +0.000 HD
BRANCH   6  15
ATOM     10  C   UNL     1      11.831  13.216  17.877  0.00  0.00    +0.000 C 
ATOM     11  C   UNL     1      11.000  12.570  18.943  0.00  0.00    +0.000 A 
ATOM     12  C   UNL     1      10.764  13.197  20.157  0.00  0.00    +0.000 A 
ATOM     13  C   UNL     1       9.991  12.532  21.103  0.00  0.00    +0.000 A 
ATOM     14  C   UNL     1       9.482  11.269  20.808  0.00  0.00    +0.000 A 
ATOM     15  C   UNL     1       9.758  10.703  19.569  0.00  0.00    +0.000 A 
ATOM     16  N   UNL     1      10.504  11.346  18.653  0.00  0.00    +0.000 NA
ENDBRANCH   6  15
ENDBRANCH   1   7
BRANCH   4  17
ATOM     17  C   UNL     1       6.523   5.098  16.254  0.00  0.00    +0.000 C 
BRANCH  17  18
ATOM     18  O   UNL     1       6.968   5.664  15.024  0.00  0.00    +0.000 OA
BRANCH  18  19
ATOM     19  C   UNL     1       6.804   4.896  13.906  0.00  0.00    +0.000 A 
ATOM     20  C   UNL     1       5.662   4.093  13.906  0.00  0.00    +0.000 A 
ATOM     21  C   UNL     1       5.365   3.280  12.812  0.00  0.00    +0.000 A 
ATOM     22  C   UNL     1       6.205   3.279  11.701  0.00  0.00    +0.000 A 
ATOM     23  C   UNL     1       7.337   4.093  11.687  0.00  0.00    +0.000 A 
ATOM     24  C   UNL     1       7.639   4.902  12.787  0.00  0.00    +0.000 A 
ENDBRANCH  18  19
ENDBRANCH  17  18
ENDBRANCH   4  17
TORSDOF 5
ENDMDL
MODEL 7
REMARK VINA RESULT:      -7.2      0.952      1.382
REMARK  Name = 
REMARK  6 active torsions:
REMARK  status: ('A' for Active; 'I' for Inactive)
REMARK    1  A    between atoms: C_1  and  C_2
REMARK    2  A    between atoms: C_6  and  N_7
REMARK    3  A    between atoms: C_8  and  C_10
REMARK    4  A    between atoms: C_13  and  C_14
REMARK    5  A    between atoms: C_14  and  O_15
REMARK    6  A    between atoms: O_15  and  C_16
REMARK                            x       y       z     vdW  Elec       q    Type
REMARK                         _______ _______ _______ _____ _____    ______ ____
ROOT
ATOM      1  C   UNL     1       7.878   7.539  18.046  0.00  0.00    +0.000 A 
ATOM      2  C   UNL     1       8.126   6.451  18.861  0.00  0.00    +0.000 A 
ATOM      3  C   UNL     1       7.595   5.317  18.206  0.00  0.00    +0.000 A 
ATOM      4  C   UNL     1       7.051   5.772  17.022  0.00  0.00    +0.000 A 
ATOM      5  O   UNL     1       7.230   7.123  16.911  0.00  0.00    +0.000 OA
ENDROOT
BRANCH   1   7
ATOM      6  N   UNL     1       9.103   9.167  19.253  0.00  0.00    +0.000 N 
ATOM      7  C   UNL     1       8.189   8.946  18.241  0.00  0.00    +0.000 C 
ATOM      8  O   UNL     1       7.657   9.805  17.546  0.00  0.00    +0.000 OA
ATOM      9  H   UNL     1       9.441   8.347  19.738  0.00  0.00    +0.000 HD
BRANCH   6  15
ATOM     10  C   UNL     1       9.111  12.790  22.398  0.00  0.00    +0.000 C 
ATOM     11  C   UNL     1       9.646  12.209  21.125  0.00  0.00    +0.000 A 
ATOM     12  C   UNL     1      10.577  12.888  20.354  0.00  0.00    +0.000 A 
ATOM     13  C   UNL     1      11.022  12.290  19.180  0.00  0.00    +0.000 A 
ATOM     14  C   UNL     1      10.525  11.040  18.815  0.00  0.00    +0.000 A 
ATOM     15  C   UNL     1       9.595  10.418  19.639  0.00  0.00    +0.000 A 
ATOM     16  N   UNL     1       9.165  10.995  20.776  0.00  0.00    +0.000 NA
ENDBRANCH   6  15
ENDBRANCH   1   7
BRANCH   4  17
ATOM     17  C   UNL     1       6.324   5.094  15.917  0.00  0.00    +0.000 C 
BRANCH  17  18
ATOM     18  O   UNL     1       5.508   4.105  16.538  0.00  0.00    +0.000 OA
BRANCH  18  19
ATOM     19  C   UNL     1       4.514   4.562  17.356  0.00  0.00    +0.000 A 
ATOM     20  C   UNL     1       4.201   3.722  18.427  0.00  0.00    +0.000 A 
ATOM     21  C   UNL     1       3.221   4.085  19.352  0.00  0.00    +0.000 A 
ATOM     22  C   UNL     1       2.558   5.302  19.217  0.00  0.00    +0.000 A 
ATOM     23  C   UNL     1       2.879   6.153  18.160  0.00  0.00    +0.000 A 
ATOM     24  C   UNL     1       3.855   5.786  17.228  0.00  0.00    +0.000 A 
ENDBRANCH  18  19
ENDBRANCH  17  18
ENDBRANCH   4  17
TORSDOF 5
ENDMDL
MODEL 8
REMARK VINA RESULT:      -7.2      5.533      6.913
REMARK  Name = 
REMARK  6 active torsions:
REMARK  status: ('A' for Active; 'I' for Inactive)
REMARK    1  A    between atoms: C_1  and  C_2
REMARK    2  A    between atoms: C_6  and  N_7
REMARK    3  A    between atoms: C_8  and  C_10
REMARK    4  A    between atoms: C_13  and  C_14
REMARK    5  A    between atoms: C_14  and  O_15
REMARK    6  A    between atoms: O_15  and  C_16
REMARK                            x       y       z     vdW  Elec       q    Type
REMARK                         _______ _______ _______ _____ _____    ______ ____
ROOT
ATOM      1  C   UNL     1       3.305   7.108  18.158  0.00  0.00    +0.000 A 
ATOM      2  C   UNL     1       3.984   7.153  16.955  0.00  0.00    +0.000 A 
ATOM      3  C   UNL     1       4.823   6.017  16.912  0.00  0.00    +0.000 A 
ATOM      4  C   UNL     1       4.611   5.334  18.093  0.00  0.00    +0.000 A 
ATOM      5  O   UNL     1       3.678   5.985  18.852  0.00  0.00    +0.000 OA
ENDROOT
BRANCH   1   7
ATOM      6  N   UNL     1       1.979   9.047  17.854  0.00  0.00    +0.000 N 
ATOM      7  C   UNL     1       2.336   8.033  18.723  0.00  0.00    +0.000 C 
ATOM      8  O   UNL     1       1.916   7.878  19.864  0.00  0.00    +0.000 OA
ATOM      9  H   UNL     1       2.426   9.036  16.947  0.00  0.00    +0.000 HD
BRANCH   6  15
ATOM     10  C   UNL     1      -2.585  10.517  18.000  0.00  0.00    +0.000 C 
ATOM     11  C   UNL     1      -1.139  10.834  18.224  0.00  0.00    +0.000 A 
ATOM     12  C   UNL     1      -0.732  12.082  18.670  0.00  0.00    +0.000 A 
ATOM     13  C   UNL     1       0.630  12.307  18.847  0.00  0.00    +0.000 A 
ATOM     14  C   UNL     1       1.535  11.284  18.572  0.00  0.00    +0.000 A 
ATOM     15  C   UNL     1       1.054  10.059  18.129  0.00  0.00    +0.000 A 
ATOM     16  N   UNL     1      -0.263   9.839  17.960  0.00  0.00    +0.000 NA
ENDBRANCH   6  15
ENDBRANCH   1   7
BRANCH   4  17
ATOM     17  C   UNL     1       5.201   4.096  18.665  0.00  0.00    +0.000 C 
BRANCH  17  18
ATOM     18  O   UNL     1       4.278   3.052  18.368  0.00  0.00    +0.000 OA
BRANCH  18  19
ATOM     19  C   UNL     1       3.186   2.954  19.184  0.00  0.00    +0.000 A 
ATOM     20  C   UNL     1       3.478   2.797  20.541  0.00  0.00    +0.000 A 
ATOM     21  C   UNL     1       2.453   2.710  21.483  0.00  0.00    +0.000 A 
ATOM     22  C   UNL     1       1.125   2.797  21.071  0.00  0.00    +0.000 A 
ATOM     23  C   UNL     1       0.827   2.972  19.720  0.00  0.00    +0.000 A 
ATOM     24  C   UNL     1       1.855   3.051  18.775  0.00  0.00    +0.000 A 
ENDBRANCH  18  19
ENDBRANCH  17  18
ENDBRANCH   4  17
TORSDOF 5
ENDMDL
MODEL 9
REMARK VINA RESULT:      -7.2      4.176      7.139
REMARK  Name = 
REMARK  6 active torsions:
REMARK  status: ('A' for Active; 'I' for Inactive)
REMARK    1  A    between atoms: C_1  and  C_2
REMARK    2  A    between atoms: C_6  and  N_7
REMARK    3  A    between atoms: C_8  and  C_10
REMARK    4  A    between atoms: C_13  and  C_14
REMARK    5  A    between atoms: C_14  and  O_15
REMARK    6  A    between atoms: O_15  and  C_16
REMARK                            x       y       z     vdW  Elec       q    Type
REMARK                         _______ _______ _______ _____ _____    ______ ____
ROOT
ATOM      1  C   UNL     1       2.945   4.712  18.992  0.00  0.00    +0.000 A 
ATOM      2  C   UNL     1       3.205   3.372  19.206  0.00  0.00    +0.000 A 
ATOM      3  C   UNL     1       4.016   2.933  18.136  0.00  0.00    +0.000 A 
ATOM      4  C   UNL     1       4.213   4.031  17.323  0.00  0.00    +0.000 A 
ATOM      5  O   UNL     1       3.574   5.122  17.843  0.00  0.00    +0.000 OA
ENDROOT
BRANCH   1   7
ATOM      6  N   UNL     1       2.366   6.968  19.421  0.00  0.00    +0.000 N 
ATOM      7  C   UNL     1       2.149   5.649  19.768  0.00  0.00    +0.000 C 
ATOM      8  O   UNL     1       1.380   5.245  20.634  0.00  0.00    +0.000 OA
ATOM      9  H   UNL     1       3.043   7.132  18.689  0.00  0.00    +0.000 HD
BRANCH   6  15
ATOM     10  C   UNL     1       0.269  11.247  18.861  0.00  0.00    +0.000 C 
ATOM     11  C   UNL     1       0.691  10.148  19.788  0.00  0.00    +0.000 A 
ATOM     12  C   UNL     1       0.466  10.226  21.154  0.00  0.00    +0.000 A 
ATOM     13  C   UNL     1       0.894   9.172  21.953  0.00  0.00    +0.000 A 
ATOM     14  C   UNL     1       1.530   8.080  21.367  0.00  0.00    +0.000 A 
ATOM     15  C   UNL     1       1.720   8.070  19.990  0.00  0.00    +0.000 A 
ATOM     16  N   UNL     1       1.305   9.089  19.215  0.00  0.00    +0.000 NA
ENDBRANCH   6  15
ENDBRANCH   1   7
BRANCH   4  17
ATOM     17  C   UNL     1       4.937   4.221  16.039  0.00  0.00    +0.000 C 
BRANCH  17  18
ATOM     18  O   UNL     1       6.323   4.118  16.355  0.00  0.00    +0.000 OA
BRANCH  18  19
ATOM     19  C   UNL     1       6.866   5.156  17.057  0.00  0.00    +0.000 A 
ATOM     20  C   UNL     1       7.451   4.800  18.274  0.00  0.00    +0.000 A 
ATOM     21  C   UNL     1       8.064   5.763  19.077  0.00  0.00    +0.000 A 
ATOM     22  C   UNL     1       8.108   7.090  18.655  0.00  0.00    +0.000 A 
ATOM     23  C   UNL     1       7.541   7.448  17.432  0.00  0.00    +0.000 A 
ATOM     24  C   UNL     1       6.919   6.484  16.632  0.00  0.00    +0.000 A 
ENDBRANCH  18  19
ENDBRANCH  17  18
ENDBRANCH   4  17
TORSDOF 5
ENDMDL
