MODEL 1
REMARK VINA RESULT:      -7.6      0.000      0.000
REMARK  Name = 
REMARK  10 active torsions:
REMARK  status: ('A' for Active; 'I' for Inactive)
REMARK    1  A    between atoms: C_1  and  C_2
REMARK    2  A    between atoms: C_2  and  O_3
REMARK    3  A    between atoms: O_3  and  C_4
REMARK    4  A    between atoms: N_8  and  C_9
REMARK    5  A    between atoms: C_11  and  C_12
REMARK    6  A    between atoms: C_14  and  N_15
REMARK    7  A    between atoms: C_16  and  C_18
REMARK    8  A    between atoms: C_18  and  C_19
REMARK    9  A    between atoms: C_27  and  O_28
REMARK   10  A    between atoms: O_28  and  C_29
REMARK                            x       y       z     vdW  Elec       q    Type
REMARK                         _______ _______ _______ _____ _____    ______ ____
ROOT
ATOM      1  C   UNL     1      -0.265  11.800  18.893  0.00  0.00    +0.000 A 
ATOM      2  C   UNL     1      -1.655  12.096  18.928  0.00  0.00    +0.000 A 
ATOM      3  C   UNL     1      -2.628  11.254  18.375  0.00  0.00    +0.000 A 
ATOM      4  C   UNL     1      -2.198  10.143  17.657  0.00  0.00    +0.000 A 
ATOM      5  C   UNL     1      -0.839   9.861  17.580  0.00  0.00    +0.000 A 
ATOM      6  C   UNL     1       0.120  10.602  18.283  0.00  0.00    +0.000 A 
ENDROOT
BRANCH   1  14
ATOM      7  C   UNL     1       0.865  13.033  20.912  0.00  0.00    +0.000 A 
ATOM      8  C   UNL     1       1.456  14.153  21.369  0.00  0.00    +0.000 A 
ATOM      9  C   UNL     1       1.884  15.231  20.433  0.00  0.00    +0.000 A 
ATOM     10  O   UNL     1       2.383  16.246  20.889  0.00  0.00    +0.000 OA
ATOM     11  N   UNL     1       1.678  14.973  19.080  0.00  0.00    +0.000 N 
ATOM     12  C   UNL     1       2.017  16.001  18.104  0.00  0.00    +0.000 C 
ATOM     13  C   UNL     1       1.051  13.818  18.636  0.00  0.00    +0.000 A 
ATOM     14  C   UNL     1       0.622  12.848  19.478  0.00  0.00    +0.000 A 
BRANCH   7  15
ATOM     15  O   UNL     1       0.411  11.985  21.687  0.00  0.00    +0.000 OA
BRANCH  15  17
ATOM     16  C   UNL     1      -1.314  10.907  22.953  0.00  0.00    +0.000 C 
ATOM     17  C   UNL     1      -0.699  12.238  22.551  0.00  0.00    +0.000 C 
ENDBRANCH  15  17
ENDBRANCH   7  15
ENDBRANCH   1  14
BRANCH   3  18
ATOM     18  N   UNL     1      -4.018  11.471  18.520  0.00  0.00    +0.000 N 
ATOM     19  C   UNL     1      -4.921  11.650  17.490  0.00  0.00    +0.000 C 
ATOM     20  O   UNL     1      -4.665  11.576  16.284  0.00  0.00    +0.000 OA
ATOM     21  H   UNL     1      -4.370  11.526  19.473  0.00  0.00    +0.000 HD
BRANCH  19  22
ATOM     22  C   UNL     1      -6.351  11.926  17.897  0.00  0.00    +0.000 C 
BRANCH  22  23
ATOM     23  C   UNL     1      -6.423  12.263  19.357  0.00  0.00    +0.000 A 
ATOM     24  C   UNL     1      -6.934  11.354  20.288  0.00  0.00    +0.000 A 
ATOM     25  N   UNL     1      -6.884  11.572  21.622  0.00  0.00    +0.000 NA
ATOM     26  C   UNL     1      -6.316  12.736  21.993  0.00  0.00    +0.000 A 
ATOM     27  C   UNL     1      -5.832  13.653  21.079  0.00  0.00    +0.000 A 
ATOM     28  N   UNL     1      -5.879  13.444  19.741  0.00  0.00    +0.000 NA
ENDBRANCH  22  23
ENDBRANCH  19  22
ENDBRANCH   3  18
BRANCH   6  29
ATOM     29  O   UNL     1       1.419  10.139  18.324  0.00  0.00    +0.000 OA
BRANCH  29  30
ATOM     30  C   UNL     1       1.703   8.955  19.021  0.00  0.00    +0.000 A 
ATOM     31  C   UNL     1       1.186   8.866  20.317  0.00  0.00    +0.000 A 
ATOM     32  C   UNL     1       1.263   7.663  21.031  0.00  0.00    +0.000 A 
ATOM     33  C   UNL     1       1.881   6.555  20.460  0.00  0.00    +0.000 A 
ATOM     34  F   UNL     1       1.834   5.370  21.085  0.00  0.00    +0.000 F 
ATOM     35  C   UNL     1       2.504   6.648  19.228  0.00  0.00    +0.000 A 
ATOM     36  C   UNL     1       2.402   7.840  18.512  0.00  0.00    +0.000 A 
ATOM     37  F   UNL     1       3.034   7.873  17.329  0.00  0.00    +0.000 F 
ENDBRANCH  29  30
ENDBRANCH   6  29
TORSDOF 8
ENDMDL
MODEL 2
REMARK VINA RESULT:      -7.5      3.422      8.071
REMARK  Name = 
REMARK  10 active torsions:
REMARK  status: ('A' for Active; 'I' for Inactive)
REMARK    1  A    between atoms: C_1  and  C_2
REMARK    2  A    between atoms: C_2  and  O_3
REMARK    3  A    between atoms: O_3  and  C_4
REMARK    4  A    between atoms: N_8  and  C_9
REMARK    5  A    between atoms: C_11  and  C_12
REMARK    6  A    between atoms: C_14  and  N_15
REMARK    7  A    between atoms: C_16  and  C_18
REMARK    8  A    between atoms: C_18  and  C_19
REMARK    9  A    between atoms: C_27  and  O_28
REMARK   10  A    between atoms: O_28  and  C_29
REMARK                            x       y       z     vdW  Elec       q    Type
REMARK                         _______ _______ _______ _____ _____    ______ ____
ROOT
ATOM      1  C   UNL     1      -0.494  12.359  20.554  0.00  0.00    +0.000 A 
ATOM      2  C   UNL     1       0.579  13.289  20.621  0.00  0.00    +0.000 A 
ATOM      3  C   UNL     1       1.685  13.241  19.764  0.00  0.00    +0.000 A 
ATOM      4  C   UNL     1       1.789  12.161  18.892  0.00  0.00    +0.000 A 
ATOM      5  C   UNL     1       0.766  11.221  18.842  0.00  0.00    +0.000 A 
ATOM      6  C   UNL     1      -0.421  11.367  19.570  0.00  0.00    +0.000 A 
ENDROOT
BRANCH   1  14
ATOM      7  C   UNL     1      -1.602  11.807  22.865  0.00  0.00    +0.000 A 
ATOM      8  C   UNL     1      -2.717  11.823  23.619  0.00  0.00    +0.000 A 
ATOM      9  C   UNL     1      -3.925  12.581  23.188  0.00  0.00    +0.000 A 
ATOM     10  O   UNL     1      -4.927  12.541  23.882  0.00  0.00    +0.000 OA
ATOM     11  N   UNL     1      -3.796  13.297  22.001  0.00  0.00    +0.000 N 
ATOM     12  C   UNL     1      -4.951  14.018  21.480  0.00  0.00    +0.000 C 
ATOM     13  C   UNL     1      -2.642  13.250  21.232  0.00  0.00    +0.000 A 
ATOM     14  C   UNL     1      -1.551  12.534  21.592  0.00  0.00    +0.000 A 
BRANCH   7  15
ATOM     15  O   UNL     1      -0.438  11.124  23.155  0.00  0.00    +0.000 OA
BRANCH  15  17
ATOM     16  C   UNL     1       0.689   9.196  22.288  0.00  0.00    +0.000 C 
ATOM     17  C   UNL     1      -0.485   9.697  23.115  0.00  0.00    +0.000 C 
ENDBRANCH  15  17
ENDBRANCH   7  15
ENDBRANCH   1  14
BRANCH   3  18
ATOM     18  N   UNL     1       2.690  14.235  19.734  0.00  0.00    +0.000 N 
ATOM     19  C   UNL     1       3.659  14.438  20.698  0.00  0.00    +0.000 C 
ATOM     20  O   UNL     1       3.840  13.736  21.698  0.00  0.00    +0.000 OA
ATOM     21  H   UNL     1       2.673  14.872  18.940  0.00  0.00    +0.000 HD
BRANCH  19  22
ATOM     22  C   UNL     1       4.591  15.608  20.472  0.00  0.00    +0.000 C 
BRANCH  22  23
ATOM     23  C   UNL     1       5.757  15.191  19.627  0.00  0.00    +0.000 A 
ATOM     24  C   UNL     1       7.038  15.060  20.171  0.00  0.00    +0.000 A 
ATOM     25  N   UNL     1       8.079  14.554  19.470  0.00  0.00    +0.000 NA
ATOM     26  C   UNL     1       7.797  14.195  18.203  0.00  0.00    +0.000 A 
ATOM     27  C   UNL     1       6.540  14.344  17.647  0.00  0.00    +0.000 A 
ATOM     28  N   UNL     1       5.493  14.852  18.341  0.00  0.00    +0.000 NA
ENDBRANCH  22  23
ENDBRANCH  19  22
ENDBRANCH   3  18
BRANCH   6  29
ATOM     29  O   UNL     1      -1.470  10.508  19.312  0.00  0.00    +0.000 OA
BRANCH  29  30
ATOM     30  C   UNL     1      -2.172  10.629  18.104  0.00  0.00    +0.000 A 
ATOM     31  C   UNL     1      -1.682   9.878  17.031  0.00  0.00    +0.000 A 
ATOM     32  C   UNL     1      -2.407   9.792  15.834  0.00  0.00    +0.000 A 
ATOM     33  C   UNL     1      -3.610  10.479  15.701  0.00  0.00    +0.000 A 
ATOM     34  F   UNL     1      -4.369  10.288  14.612  0.00  0.00    +0.000 F 
ATOM     35  C   UNL     1      -4.059  11.321  16.702  0.00  0.00    +0.000 A 
ATOM     36  C   UNL     1      -3.347  11.383  17.899  0.00  0.00    +0.000 A 
ATOM     37  F   UNL     1      -3.826  12.225  18.828  0.00  0.00    +0.000 F 
ENDBRANCH  29  30
ENDBRANCH   6  29
TORSDOF 8
ENDMDL
MODEL 3
REMARK VINA RESULT:      -7.4      1.423      2.073
REMARK  Name = 
REMARK  10 active torsions:
REMARK  status: ('A' for Active; 'I' for Inactive)
REMARK    1  A    between atoms: C_1  and  C_2
REMARK    2  A    between atoms: C_2  and  O_3
REMARK    3  A    between atoms: O_3  and  C_4
REMARK    4  A    between atoms: N_8  and  C_9
REMARK    5  A    between atoms: C_11  and  C_12
REMARK    6  A    between atoms: C_14  and  N_15
REMARK    7  A    between atoms: C_16  and  C_18
REMARK    8  A    between atoms: C_18  and  C_19
REMARK    9  A    between atoms: C_27  and  O_28
REMARK   10  A    between atoms: O_28  and  C_29
REMARK                            x       y       z     vdW  Elec       q    Type
REMARK                         _______ _______ _______ _____ _____    ______ ____
ROOT
ATOM      1  C   UNL     1      -0.288  12.099  19.091  0.00  0.00    +0.000 A 
ATOM      2  C   UNL     1      -1.672  12.407  18.991  0.00  0.00    +0.000 A 
ATOM      3  C   UNL     1      -2.607  11.539  18.414  0.00  0.00    +0.000 A 
ATOM      4  C   UNL     1      -2.133  10.381  17.806  0.00  0.00    +0.000 A 
ATOM      5  C   UNL     1      -0.776  10.085  17.859  0.00  0.00    +0.000 A 
ATOM      6  C   UNL     1       0.130  10.862  18.591  0.00  0.00    +0.000 A 
ENDROOT
BRANCH   1  14
ATOM      7  C   UNL     1       0.798  13.364  21.114  0.00  0.00    +0.000 A 
ATOM      8  C   UNL     1       1.349  14.502  21.575  0.00  0.00    +0.000 A 
ATOM      9  C   UNL     1       1.737  15.599  20.644  0.00  0.00    +0.000 A 
ATOM     10  O   UNL     1       2.201  16.629  21.104  0.00  0.00    +0.000 OA
ATOM     11  N   UNL     1       1.541  15.339  19.290  0.00  0.00    +0.000 N 
ATOM     12  C   UNL     1       1.841  16.383  18.318  0.00  0.00    +0.000 C 
ATOM     13  C   UNL     1       0.954  14.164  18.842  0.00  0.00    +0.000 A 
ATOM     14  C   UNL     1       0.561  13.176  19.679  0.00  0.00    +0.000 A 
BRANCH   7  15
ATOM     15  O   UNL     1       0.383  12.296  21.885  0.00  0.00    +0.000 OA
BRANCH  15  17
ATOM     16  C   UNL     1      -1.289  11.066  23.082  0.00  0.00    +0.000 C 
ATOM     17  C   UNL     1      -0.849  12.438  22.595  0.00  0.00    +0.000 C 
ENDBRANCH  15  17
ENDBRANCH   7  15
ENDBRANCH   1  14
BRANCH   3  18
ATOM     18  N   UNL     1      -4.001  11.775  18.430  0.00  0.00    +0.000 N 
ATOM     19  C   UNL     1      -4.854  11.659  17.348  0.00  0.00    +0.000 C 
ATOM     20  O   UNL     1      -4.541  11.261  16.222  0.00  0.00    +0.000 OA
ATOM     21  H   UNL     1      -4.398  12.085  19.314  0.00  0.00    +0.000 HD
BRANCH  19  22
ATOM     22  C   UNL     1      -6.301  12.023  17.598  0.00  0.00    +0.000 C 
BRANCH  22  23
ATOM     23  C   UNL     1      -6.448  13.509  17.741  0.00  0.00    +0.000 A 
ATOM     24  C   UNL     1      -6.797  14.312  16.651  0.00  0.00    +0.000 A 
ATOM     25  N   UNL     1      -7.073  15.631  16.777  0.00  0.00    +0.000 NA
ATOM     26  C   UNL     1      -6.977  16.120  18.028  0.00  0.00    +0.000 A 
ATOM     27  C   UNL     1      -6.608  15.341  19.108  0.00  0.00    +0.000 A 
ATOM     28  N   UNL     1      -6.328  14.020  18.991  0.00  0.00    +0.000 NA
ENDBRANCH  22  23
ENDBRANCH  19  22
ENDBRANCH   3  18
BRANCH   6  29
ATOM     29  O   UNL     1       1.416  10.392  18.769  0.00  0.00    +0.000 OA
BRANCH  29  30
ATOM     30  C   UNL     1       1.613   9.046  19.107  0.00  0.00    +0.000 A 
ATOM     31  C   UNL     1       2.171   8.239  18.111  0.00  0.00    +0.000 A 
ATOM     32  C   UNL     1       2.568   6.925  18.400  0.00  0.00    +0.000 A 
ATOM     33  C   UNL     1       2.382   6.410  19.679  0.00  0.00    +0.000 A 
ATOM     34  F   UNL     1       2.883   5.207  19.992  0.00  0.00    +0.000 F 
ATOM     35  C   UNL     1       1.725   7.145  20.649  0.00  0.00    +0.000 A 
ATOM     36  C   UNL     1       1.356   8.459  20.364  0.00  0.00    +0.000 A 
ATOM     37  F   UNL     1       0.715   9.117  21.341  0.00  0.00    +0.000 F 
ENDBRANCH  29  30
ENDBRANCH   6  29
TORSDOF 8
ENDMDL
MODEL 4
REMARK VINA RESULT:      -7.3      4.052      8.521
REMARK  Name = 
REMARK  10 active torsions:
REMARK  status: ('A' for Active; 'I' for Inactive)
REMARK    1  A    between atoms: C_1  and  C_2
REMARK    2  A    between atoms: C_2  and  O_3
REMARK    3  A    between atoms: O_3  and  C_4
REMARK    4  A    between atoms: N_8  and  C_9
REMARK    5  A    between atoms: C_11  and  C_12
REMARK    6  A    between atoms: C_14  and  N_15
REMARK    7  A    between atoms: C_16  and  C_18
REMARK    8  A    between atoms: C_18  and  C_19
REMARK    9  A    between atoms: C_27  and  O_28
REMARK   10  A    between atoms: O_28  and  C_29
REMARK                            x       y       z     vdW  Elec       q    Type
REMARK                         _______ _______ _______ _____ _____    ______ ____
ROOT
ATOM      1  C   UNL     1       0.043  11.581  19.497  0.00  0.00    +0.000 A 
ATOM      2  C   UNL     1       0.304  10.287  18.971  0.00  0.00    +0.000 A 
ATOM      3  C   UNL     1       1.508   9.949  18.341  0.00  0.00    +0.000 A 
ATOM      4  C   UNL     1       2.435  10.962  18.118  0.00  0.00    +0.000 A 
ATOM      5  C   UNL     1       2.177  12.243  18.592  0.00  0.00    +0.000 A 
ATOM      6  C   UNL     1       1.056  12.538  19.377  0.00  0.00    +0.000 A 
ENDROOT
BRANCH   1  14
ATOM      7  C   UNL     1      -2.520  12.095  19.296  0.00  0.00    +0.000 A 
ATOM      8  C   UNL     1      -3.645  12.506  19.911  0.00  0.00    +0.000 A 
ATOM      9  C   UNL     1      -3.705  12.637  21.395  0.00  0.00    +0.000 A 
ATOM     10  O   UNL     1      -4.732  13.047  21.910  0.00  0.00    +0.000 OA
ATOM     11  N   UNL     1      -2.555  12.258  22.081  0.00  0.00    +0.000 N 
ATOM     12  C   UNL     1      -2.513  12.410  23.530  0.00  0.00    +0.000 C 
ATOM     13  C   UNL     1      -1.402  11.854  21.423  0.00  0.00    +0.000 A 
ATOM     14  C   UNL     1      -1.321  11.768  20.074  0.00  0.00    +0.000 A 
BRANCH   7  15
ATOM     15  O   UNL     1      -2.346  11.959  17.934  0.00  0.00    +0.000 OA
BRANCH  15  17
ATOM     16  C   UNL     1      -2.908   9.795  17.074  0.00  0.00    +0.000 C 
ATOM     17  C   UNL     1      -3.349  11.243  17.211  0.00  0.00    +0.000 C 
ENDBRANCH  15  17
ENDBRANCH   7  15
ENDBRANCH   1  14
BRANCH   3  18
ATOM     18  N   UNL     1       1.831   8.633  17.934  0.00  0.00    +0.000 N 
ATOM     19  C   UNL     1       2.182   7.590  18.770  0.00  0.00    +0.000 C 
ATOM     20  O   UNL     1       2.195   7.628  20.005  0.00  0.00    +0.000 OA
ATOM     21  H   UNL     1       1.830   8.457  16.932  0.00  0.00    +0.000 HD
BRANCH  19  22
ATOM     22  C   UNL     1       2.544   6.287  18.094  0.00  0.00    +0.000 C 
BRANCH  22  23
ATOM     23  C   UNL     1       4.016   6.030  18.209  0.00  0.00    +0.000 A 
ATOM     24  C   UNL     1       4.530   5.165  19.180  0.00  0.00    +0.000 A 
ATOM     25  N   UNL     1       5.834   4.806  19.219  0.00  0.00    +0.000 NA
ATOM     26  C   UNL     1       6.609   5.351  18.262  0.00  0.00    +0.000 A 
ATOM     27  C   UNL     1       6.116   6.228  17.313  0.00  0.00    +0.000 A 
ATOM     28  N   UNL     1       4.813   6.594  17.267  0.00  0.00    +0.000 NA
ENDBRANCH  22  23
ENDBRANCH  19  22
ENDBRANCH   3  18
BRANCH   6  29
ATOM     29  O   UNL     1       0.975  13.776  19.982  0.00  0.00    +0.000 OA
BRANCH  29  30
ATOM     30  C   UNL     1       0.949  14.929  19.184  0.00  0.00    +0.000 A 
ATOM     31  C   UNL     1      -0.318  15.405  18.834  0.00  0.00    +0.000 A 
ATOM     32  C   UNL     1      -0.458  16.641  18.188  0.00  0.00    +0.000 A 
ATOM     33  C   UNL     1       0.670  17.389  17.868  0.00  0.00    +0.000 A 
ATOM     34  F   UNL     1       0.531  18.628  17.376  0.00  0.00    +0.000 F 
ATOM     35  C   UNL     1       1.940  16.889  18.097  0.00  0.00    +0.000 A 
ATOM     36  C   UNL     1       2.073  15.671  18.762  0.00  0.00    +0.000 A 
ATOM     37  F   UNL     1       3.327  15.234  18.947  0.00  0.00    +0.000 F 
ENDBRANCH  29  30
ENDBRANCH   6  29
TORSDOF 8
ENDMDL
MODEL 5
REMARK VINA RESULT:      -7.3      0.943      1.346
REMARK  Name = 
REMARK  10 active torsions:
REMARK  status: ('A' for Active; 'I' for Inactive)
REMARK    1  A    between atoms: C_1  and  C_2
REMARK    2  A    between atoms: C_2  and  O_3
REMARK    3  A    between atoms: O_3  and  C_4
REMARK    4  A    between atoms: N_8  and  C_9
REMARK    5  A    between atoms: C_11  and  C_12
REMARK    6  A    between atoms: C_14  and  N_15
REMARK    7  A    between atoms: C_16  and  C_18
REMARK    8  A    between atoms: C_18  and  C_19
REMARK    9  A    between atoms: C_27  and  O_28
REMARK   10  A    between atoms: O_28  and  C_29
REMARK                            x       y       z     vdW  Elec       q    Type
REMARK                         _______ _______ _______ _____ _____    ______ ____
ROOT
ATOM      1  C   UNL     1      -0.390  11.976  19.023  0.00  0.00    +0.000 A 
ATOM      2  C   UNL     1      -1.786  12.242  19.034  0.00  0.00    +0.000 A 
ATOM      3  C   UNL     1      -2.733  11.372  18.481  0.00  0.00    +0.000 A 
ATOM      4  C   UNL     1      -2.269  10.258  17.787  0.00  0.00    +0.000 A 
ATOM      5  C   UNL     1      -0.903  10.004  17.733  0.00  0.00    +0.000 A 
ATOM      6  C   UNL     1       0.029  10.777  18.437  0.00  0.00    +0.000 A 
ENDROOT
BRANCH   1  14
ATOM      7  C   UNL     1       0.236  13.695  20.901  0.00  0.00    +0.000 A 
ATOM      8  C   UNL     1       0.886  14.827  21.229  0.00  0.00    +0.000 A 
ATOM      9  C   UNL     1       1.857  15.455  20.289  0.00  0.00    +0.000 A 
ATOM     10  O   UNL     1       2.398  16.501  20.610  0.00  0.00    +0.000 OA
ATOM     11  N   UNL     1       2.075  14.768  19.099  0.00  0.00    +0.000 N 
ATOM     12  C   UNL     1       2.968  15.345  18.101  0.00  0.00    +0.000 C 
ATOM     13  C   UNL     1       1.380  13.612  18.776  0.00  0.00    +0.000 A 
ATOM     14  C   UNL     1       0.466  13.052  19.603  0.00  0.00    +0.000 A 
BRANCH   7  15
ATOM     15  O   UNL     1      -0.696  13.042  21.681  0.00  0.00    +0.000 OA
BRANCH  15  17
ATOM     16  C   UNL     1      -1.492  11.225  23.026  0.00  0.00    +0.000 C 
ATOM     17  C   UNL     1      -0.294  11.820  22.303  0.00  0.00    +0.000 C 
ENDBRANCH  15  17
ENDBRANCH   7  15
ENDBRANCH   1  14
BRANCH   3  18
ATOM     18  N   UNL     1      -4.129  11.560  18.603  0.00  0.00    +0.000 N 
ATOM     19  C   UNL     1      -5.006  11.811  17.565  0.00  0.00    +0.000 C 
ATOM     20  O   UNL     1      -4.716  11.834  16.365  0.00  0.00    +0.000 OA
ATOM     21  H   UNL     1      -4.508  11.537  19.547  0.00  0.00    +0.000 HD
BRANCH  19  22
ATOM     22  C   UNL     1      -6.451  12.038  17.952  0.00  0.00    +0.000 C 
BRANCH  22  23
ATOM     23  C   UNL     1      -6.844  11.117  19.067  0.00  0.00    +0.000 A 
ATOM     24  C   UNL     1      -7.424  11.604  20.243  0.00  0.00    +0.000 A 
ATOM     25  N   UNL     1      -7.915  10.790  21.205  0.00  0.00    +0.000 NA
ATOM     26  C   UNL     1      -7.796   9.471  20.957  0.00  0.00    +0.000 A 
ATOM     27  C   UNL     1      -7.201   8.979  19.810  0.00  0.00    +0.000 A 
ATOM     28  N   UNL     1      -6.705   9.787  18.842  0.00  0.00    +0.000 NA
ENDBRANCH  22  23
ENDBRANCH  19  22
ENDBRANCH   3  18
BRANCH   6  29
ATOM     29  O   UNL     1       1.337  10.342  18.505  0.00  0.00    +0.000 OA
BRANCH  29  30
ATOM     30  C   UNL     1       1.618   9.103  19.100  0.00  0.00    +0.000 A 
ATOM     31  C   UNL     1       1.159   8.934  20.409  0.00  0.00    +0.000 A 
ATOM     32  C   UNL     1       1.235   7.680  21.032  0.00  0.00    +0.000 A 
ATOM     33  C   UNL     1       1.793   6.601  20.353  0.00  0.00    +0.000 A 
ATOM     34  F   UNL     1       1.741   5.375  20.893  0.00  0.00    +0.000 F 
ATOM     35  C   UNL     1       2.361   6.768  19.103  0.00  0.00    +0.000 A 
ATOM     36  C   UNL     1       2.260   8.011  18.479  0.00  0.00    +0.000 A 
ATOM     37  F   UNL     1       2.838   8.114  17.273  0.00  0.00    +0.000 F 
ENDBRANCH  29  30
ENDBRANCH   6  29
TORSDOF 8
ENDMDL
MODEL 6
REMARK VINA RESULT:      -7.3      3.767      8.228
REMARK  Name = 
REMARK  10 active torsions:
REMARK  status: ('A' for Active; 'I' for Inactive)
REMARK    1  A    between atoms: C_1  and  C_2
REMARK    2  A    between atoms: C_2  and  O_3
REMARK    3  A    between atoms: O_3  and  C_4
REMARK    4  A    between atoms: N_8  and  C_9
REMARK    5  A    between atoms: C_11  and  C_12
REMARK    6  A    between atoms: C_14  and  N_15
REMARK    7  A    between atoms: C_16  and  C_18
REMARK    8  A    between atoms: C_18  and  C_19
REMARK    9  A    between atoms: C_27  and  O_28
REMARK   10  A    between atoms: O_28  and  C_29
REMARK                            x       y       z     vdW  Elec       q    Type
REMARK                         _______ _______ _______ _____ _____    ______ ____
ROOT
ATOM      1  C   UNL     1       0.596  11.887  19.937  0.00  0.00    +0.000 A 
ATOM      2  C   UNL     1       1.757  12.702  20.022  0.00  0.00    +0.000 A 
ATOM      3  C   UNL     1       1.728  14.092  19.861  0.00  0.00    +0.000 A 
ATOM      4  C   UNL     1       0.524  14.679  19.481  0.00  0.00    +0.000 A 
ATOM      5  C   UNL     1      -0.613  13.890  19.354  0.00  0.00    +0.000 A 
ATOM      6  C   UNL     1      -0.621  12.531  19.690  0.00  0.00    +0.000 A 
ENDROOT
BRANCH   1  14
ATOM      7  C   UNL     1       0.905   9.699  21.348  0.00  0.00    +0.000 A 
ATOM      8  C   UNL     1       1.386   8.443  21.400  0.00  0.00    +0.000 A 
ATOM      9  C   UNL     1       1.859   7.750  20.168  0.00  0.00    +0.000 A 
ATOM     10  O   UNL     1       2.322   6.626  20.264  0.00  0.00    +0.000 OA
ATOM     11  N   UNL     1       1.717   8.465  18.982  0.00  0.00    +0.000 N 
ATOM     12  C   UNL     1       2.208   7.880  17.740  0.00  0.00    +0.000 C 
ATOM     13  C   UNL     1       1.233   9.765  18.957  0.00  0.00    +0.000 A 
ATOM     14  C   UNL     1       0.837  10.421  20.073  0.00  0.00    +0.000 A 
BRANCH   7  15
ATOM     15  O   UNL     1       0.462  10.441  22.424  0.00  0.00    +0.000 OA
BRANCH  15  17
ATOM     16  C   UNL     1      -1.650  11.310  23.151  0.00  0.00    +0.000 C 
ATOM     17  C   UNL     1      -0.785  10.067  23.013  0.00  0.00    +0.000 C 
ENDBRANCH  15  17
ENDBRANCH   7  15
ENDBRANCH   1  14
BRANCH   3  18
ATOM     18  N   UNL     1       2.850  14.925  20.075  0.00  0.00    +0.000 N 
ATOM     19  C   UNL     1       3.491  15.125  21.283  0.00  0.00    +0.000 C 
ATOM     20  O   UNL     1       3.227  14.551  22.344  0.00  0.00    +0.000 OA
ATOM     21  H   UNL     1       3.191  15.441  19.267  0.00  0.00    +0.000 HD
BRANCH  19  22
ATOM     22  C   UNL     1       4.636  16.113  21.275  0.00  0.00    +0.000 C 
BRANCH  22  23
ATOM     23  C   UNL     1       5.724  15.644  20.355  0.00  0.00    +0.000 A 
ATOM     24  C   UNL     1       6.884  15.042  20.851  0.00  0.00    +0.000 A 
ATOM     25  N   UNL     1       7.817  14.485  20.044  0.00  0.00    +0.000 NA
ATOM     26  C   UNL     1       7.555  14.561  18.725  0.00  0.00    +0.000 A 
ATOM     27  C   UNL     1       6.423  15.178  18.224  0.00  0.00    +0.000 A 
ATOM     28  N   UNL     1       5.485  15.739  19.024  0.00  0.00    +0.000 NA
ENDBRANCH  22  23
ENDBRANCH  19  22
ENDBRANCH   3  18
BRANCH   6  29
ATOM     29  O   UNL     1      -1.829  11.865  19.738  0.00  0.00    +0.000 OA
BRANCH  29  30
ATOM     30  C   UNL     1      -2.536  11.641  18.548  0.00  0.00    +0.000 A 
ATOM     31  C   UNL     1      -1.784  11.179  17.464  0.00  0.00    +0.000 A 
ATOM     32  C   UNL     1      -2.418  10.761  16.286  0.00  0.00    +0.000 A 
ATOM     33  C   UNL     1      -3.804  10.831  16.181  0.00  0.00    +0.000 A 
ATOM     34  F   UNL     1      -4.418  10.306  15.111  0.00  0.00    +0.000 F 
ATOM     35  C   UNL     1      -4.562  11.394  17.191  0.00  0.00    +0.000 A 
ATOM     36  C   UNL     1      -3.929  11.784  18.370  0.00  0.00    +0.000 A 
ATOM     37  F   UNL     1      -4.715  12.332  19.309  0.00  0.00    +0.000 F 
ENDBRANCH  29  30
ENDBRANCH   6  29
TORSDOF 8
ENDMDL
MODEL 7
REMARK VINA RESULT:      -7.2      3.920      7.519
REMARK  Name = 
REMARK  10 active torsions:
REMARK  status: ('A' for Active; 'I' for Inactive)
REMARK    1  A    between atoms: C_1  and  C_2
REMARK    2  A    between atoms: C_2  and  O_3
REMARK    3  A    between atoms: O_3  and  C_4
REMARK    4  A    between atoms: N_8  and  C_9
REMARK    5  A    between atoms: C_11  and  C_12
REMARK    6  A    between atoms: C_14  and  N_15
REMARK    7  A    between atoms: C_16  and  C_18
REMARK    8  A    between atoms: C_18  and  C_19
REMARK    9  A    between atoms: C_27  and  O_28
REMARK   10  A    between atoms: O_28  and  C_29
REMARK                            x       y       z     vdW  Elec       q    Type
REMARK                         _______ _______ _______ _____ _____    ______ ____
ROOT
ATOM      1  C   UNL     1       1.164  11.497  18.649  0.00  0.00    +0.000 A 
ATOM      2  C   UNL     1       2.076  10.424  18.457  0.00  0.00    +0.000 A 
ATOM      3  C   UNL     1       1.680   9.155  18.018  0.00  0.00    +0.000 A 
ATOM      4  C   UNL     1       0.317   8.907  17.883  0.00  0.00    +0.000 A 
ATOM      5  C   UNL     1      -0.591   9.935  18.106  0.00  0.00    +0.000 A 
ATOM      6  C   UNL     1      -0.184  11.249  18.370  0.00  0.00    +0.000 A 
ENDROOT
BRANCH   1  14
ATOM      7  C   UNL     1       1.568  13.264  20.543  0.00  0.00    +0.000 A 
ATOM      8  C   UNL     1       1.920  14.524  20.861  0.00  0.00    +0.000 A 
ATOM      9  C   UNL     1       2.523  15.432  19.844  0.00  0.00    +0.000 A 
ATOM     10  O   UNL     1       2.794  16.578  20.163  0.00  0.00    +0.000 OA
ATOM     11  N   UNL     1       2.737  14.873  18.588  0.00  0.00    +0.000 N 
ATOM     12  C   UNL     1       3.270  15.712  17.521  0.00  0.00    +0.000 C 
ATOM     13  C   UNL     1       2.350  13.577  18.280  0.00  0.00    +0.000 A 
ATOM     14  C   UNL     1       1.766  12.754  19.182  0.00  0.00    +0.000 A 
BRANCH   7  15
ATOM     15  O   UNL     1       0.985  12.347  21.395  0.00  0.00    +0.000 OA
BRANCH  15  17
ATOM     16  C   UNL     1      -1.034  11.322  22.178  0.00  0.00    +0.000 C 
ATOM     17  C   UNL     1      -0.332  12.635  21.869  0.00  0.00    +0.000 C 
ENDBRANCH  15  17
ENDBRANCH   7  15
ENDBRANCH   1  14
BRANCH   3  18
ATOM     18  N   UNL     1       2.592   8.122  17.696  0.00  0.00    +0.000 N 
ATOM     19  C   UNL     1       2.928   7.057  18.509  0.00  0.00    +0.000 C 
ATOM     20  O   UNL     1       2.429   6.803  19.610  0.00  0.00    +0.000 OA
ATOM     21  H   UNL     1       3.058   8.195  16.795  0.00  0.00    +0.000 HD
BRANCH  19  22
ATOM     22  C   UNL     1       3.976   6.110  17.968  0.00  0.00    +0.000 C 
BRANCH  22  23
ATOM     23  C   UNL     1       3.549   4.687  18.170  0.00  0.00    +0.000 A 
ATOM     24  C   UNL     1       2.506   4.130  17.425  0.00  0.00    +0.000 A 
ATOM     25  N   UNL     1       2.190   2.815  17.484  0.00  0.00    +0.000 NA
ATOM     26  C   UNL     1       2.946   2.080  18.323  0.00  0.00    +0.000 A 
ATOM     27  C   UNL     1       3.963   2.627  19.083  0.00  0.00    +0.000 A 
ATOM     28  N   UNL     1       4.285   3.942  19.031  0.00  0.00    +0.000 NA
ENDBRANCH  22  23
ENDBRANCH  19  22
ENDBRANCH   3  18
BRANCH   6  29
ATOM     29  O   UNL     1      -1.133  12.251  18.373  0.00  0.00    +0.000 OA
BRANCH  29  30
ATOM     30  C   UNL     1      -2.478  11.922  18.153  0.00  0.00    +0.000 A 
ATOM     31  C   UNL     1      -3.332  12.068  19.250  0.00  0.00    +0.000 A 
ATOM     32  C   UNL     1      -4.719  11.932  19.094  0.00  0.00    +0.000 A 
ATOM     33  C   UNL     1      -5.250  11.624  17.845  0.00  0.00    +0.000 A 
ATOM     34  F   UNL     1      -6.578  11.630  17.666  0.00  0.00    +0.000 F 
ATOM     35  C   UNL     1      -4.421  11.360  16.770  0.00  0.00    +0.000 A 
ATOM     36  C   UNL     1      -3.045  11.520  16.925  0.00  0.00    +0.000 A 
ATOM     37  F   UNL     1      -2.293  11.240  15.850  0.00  0.00    +0.000 F 
ENDBRANCH  29  30
ENDBRANCH   6  29
TORSDOF 8
ENDMDL
MODEL 8
REMARK VINA RESULT:      -7.2      1.290      1.793
REMARK  Name = 
REMARK  10 active torsions:
REMARK  status: ('A' for Active; 'I' for Inactive)
REMARK    1  A    between atoms: C_1  and  C_2
REMARK    2  A    between atoms: C_2  and  O_3
REMARK    3  A    between atoms: O_3  and  C_4
REMARK    4  A    between atoms: N_8  and  C_9
REMARK    5  A    between atoms: C_11  and  C_12
REMARK    6  A    between atoms: C_14  and  N_15
REMARK    7  A    between atoms: C_16  and  C_18
REMARK    8  A    between atoms: C_18  and  C_19
REMARK    9  A    between atoms: C_27  and  O_28
REMARK   10  A    between atoms: O_28  and  C_29
REMARK                            x       y       z     vdW  Elec       q    Type
REMARK                         _______ _______ _______ _____ _____    ______ ____
ROOT
ATOM      1  C   UNL     1      -0.290  12.141  19.009  0.00  0.00    +0.000 A 
ATOM      2  C   UNL     1      -1.677  12.421  18.873  0.00  0.00    +0.000 A 
ATOM      3  C   UNL     1      -2.606  11.475  18.424  0.00  0.00    +0.000 A 
ATOM      4  C   UNL     1      -2.123  10.247  17.978  0.00  0.00    +0.000 A 
ATOM      5  C   UNL     1      -0.763   9.973  18.068  0.00  0.00    +0.000 A 
ATOM      6  C   UNL     1       0.138  10.851  18.683  0.00  0.00    +0.000 A 
ENDROOT
BRANCH   1  14
ATOM      7  C   UNL     1       0.231  14.191  20.559  0.00  0.00    +0.000 A 
ATOM      8  C   UNL     1       0.890  15.354  20.716  0.00  0.00    +0.000 A 
ATOM      9  C   UNL     1       1.964  15.762  19.766  0.00  0.00    +0.000 A 
ATOM     10  O   UNL     1       2.512  16.840  19.922  0.00  0.00    +0.000 OA
ATOM     11  N   UNL     1       2.260  14.846  18.761  0.00  0.00    +0.000 N 
ATOM     12  C   UNL     1       3.258  15.194  17.757  0.00  0.00    +0.000 C 
ATOM     13  C   UNL     1       1.554  13.661  18.610  0.00  0.00    +0.000 A 
ATOM     14  C   UNL     1       0.550  13.296  19.442  0.00  0.00    +0.000 A 
BRANCH   7  15
ATOM     15  O   UNL     1      -0.790  13.725  21.363  0.00  0.00    +0.000 OA
BRANCH  15  17
ATOM     16  C   UNL     1      -1.488  11.780  22.576  0.00  0.00    +0.000 C 
ATOM     17  C   UNL     1      -0.434  12.869  22.449  0.00  0.00    +0.000 C 
ENDBRANCH  15  17
ENDBRANCH   7  15
ENDBRANCH   1  14
BRANCH   3  18
ATOM     18  N   UNL     1      -4.002  11.698  18.411  0.00  0.00    +0.000 N 
ATOM     19  C   UNL     1      -4.801  11.769  17.285  0.00  0.00    +0.000 C 
ATOM     20  O   UNL     1      -4.429  11.574  16.124  0.00  0.00    +0.000 OA
ATOM     21  H   UNL     1      -4.445  11.848  19.315  0.00  0.00    +0.000 HD
BRANCH  19  22
ATOM     22  C   UNL     1      -6.262  12.079  17.523  0.00  0.00    +0.000 C 
BRANCH  22  23
ATOM     23  C   UNL     1      -6.742  11.406  18.773  0.00  0.00    +0.000 A 
ATOM     24  C   UNL     1      -7.349  12.132  19.802  0.00  0.00    +0.000 A 
ATOM     25  N   UNL     1      -7.916  11.538  20.877  0.00  0.00    +0.000 NA
ATOM     26  C   UNL     1      -7.845  10.193  20.894  0.00  0.00    +0.000 A 
ATOM     27  C   UNL     1      -7.225   9.466  19.895  0.00  0.00    +0.000 A 
ATOM     28  N   UNL     1      -6.653  10.053  18.816  0.00  0.00    +0.000 NA
ENDBRANCH  22  23
ENDBRANCH  19  22
ENDBRANCH   3  18
BRANCH   6  29
ATOM     29  O   UNL     1       1.428  10.421  18.920  0.00  0.00    +0.000 OA
BRANCH  29  30
ATOM     30  C   UNL     1       1.670   9.053  19.110  0.00  0.00    +0.000 A 
ATOM     31  C   UNL     1       2.287   8.385  18.049  0.00  0.00    +0.000 A 
ATOM     32  C   UNL     1       2.729   7.063  18.202  0.00  0.00    +0.000 A 
ATOM     33  C   UNL     1       2.529   6.400  19.408  0.00  0.00    +0.000 A 
ATOM     34  F   UNL     1       3.071   5.189  19.600  0.00  0.00    +0.000 F 
ATOM     35  C   UNL     1       1.818   6.996  20.434  0.00  0.00    +0.000 A 
ATOM     36  C   UNL     1       1.404   8.319  20.286  0.00  0.00    +0.000 A 
ATOM     37  F   UNL     1       0.710   8.839  21.310  0.00  0.00    +0.000 F 
ENDBRANCH  29  30
ENDBRANCH   6  29
TORSDOF 8
ENDMDL
MODEL 9
REMARK VINA RESULT:      -7.1      3.969      8.367
REMARK  Name = 
REMARK  10 active torsions:
REMARK  status: ('A' for Active; 'I' for Inactive)
REMARK    1  A    between atoms: C_1  and  C_2
REMARK    2  A    between atoms: C_2  and  O_3
REMARK    3  A    between atoms: O_3  and  C_4
REMARK    4  A    between atoms: N_8  and  C_9
REMARK    5  A    between atoms: C_11  and  C_12
REMARK    6  A    between atoms: C_14  and  N_15
REMARK    7  A    between atoms: C_16  and  C_18
REMARK    8  A    between atoms: C_18  and  C_19
REMARK    9  A    between atoms: C_27  and  O_28
REMARK   10  A    between atoms: O_28  and  C_29
REMARK                            x       y       z     vdW  Elec       q    Type
REMARK                         _______ _______ _______ _____ _____    ______ ____
ROOT
ATOM      1  C   UNL     1       0.136  11.506  19.269  0.00  0.00    +0.000 A 
ATOM      2  C   UNL     1       0.412  10.171  18.866  0.00  0.00    +0.000 A 
ATOM      3  C   UNL     1       1.597   9.799  18.218  0.00  0.00    +0.000 A 
ATOM      4  C   UNL     1       2.483  10.807  17.850  0.00  0.00    +0.000 A 
ATOM      5  C   UNL     1       2.209  12.123  18.202  0.00  0.00    +0.000 A 
ATOM      6  C   UNL     1       1.114  12.470  19.004  0.00  0.00    +0.000 A 
ENDROOT
BRANCH   1  14
ATOM      7  C   UNL     1      -2.421  12.069  19.146  0.00  0.00    +0.000 A 
ATOM      8  C   UNL     1      -3.519  12.501  19.795  0.00  0.00    +0.000 A 
ATOM      9  C   UNL     1      -3.532  12.629  21.280  0.00  0.00    +0.000 A 
ATOM     10  O   UNL     1      -4.535  13.058  21.827  0.00  0.00    +0.000 OA
ATOM     11  N   UNL     1      -2.369  12.227  21.930  0.00  0.00    +0.000 N 
ATOM     12  C   UNL     1      -2.281  12.374  23.378  0.00  0.00    +0.000 C 
ATOM     13  C   UNL     1      -1.245  11.802  21.237  0.00  0.00    +0.000 A 
ATOM     14  C   UNL     1      -1.205  11.718  19.887  0.00  0.00    +0.000 A 
BRANCH   7  15
ATOM     15  O   UNL     1      -2.291  11.934  17.778  0.00  0.00    +0.000 OA
BRANCH  15  17
ATOM     16  C   UNL     1      -2.954   9.754  17.039  0.00  0.00    +0.000 C 
ATOM     17  C   UNL     1      -3.322  11.228  17.086  0.00  0.00    +0.000 C 
ENDBRANCH  15  17
ENDBRANCH   7  15
ENDBRANCH   1  14
BRANCH   3  18
ATOM     18  N   UNL     1       1.940   8.457  17.933  0.00  0.00    +0.000 N 
ATOM     19  C   UNL     1       2.232   7.481  18.866  0.00  0.00    +0.000 C 
ATOM     20  O   UNL     1       2.167   7.611  20.092  0.00  0.00    +0.000 OA
ATOM     21  H   UNL     1       2.002   8.206  16.949  0.00  0.00    +0.000 HD
BRANCH  19  22
ATOM     22  C   UNL     1       2.631   6.130  18.314  0.00  0.00    +0.000 C 
BRANCH  22  23
ATOM     23  C   UNL     1       4.123   5.977  18.337  0.00  0.00    +0.000 A 
ATOM     24  C   UNL     1       4.745   5.054  19.183  0.00  0.00    +0.000 A 
ATOM     25  N   UNL     1       6.072   4.794  19.127  0.00  0.00    +0.000 NA
ATOM     26  C   UNL     1       6.756   5.497  18.204  0.00  0.00    +0.000 A 
ATOM     27  C   UNL     1       6.155   6.430  17.380  0.00  0.00    +0.000 A 
ATOM     28  N   UNL     1       4.828   6.698  17.431  0.00  0.00    +0.000 NA
ENDBRANCH  22  23
ENDBRANCH  19  22
ENDBRANCH   3  18
BRANCH   6  29
ATOM     29  O   UNL     1       1.024  13.761  19.484  0.00  0.00    +0.000 OA
BRANCH  29  30
ATOM     30  C   UNL     1       2.163  14.579  19.468  0.00  0.00    +0.000 A 
ATOM     31  C   UNL     1       2.175  15.597  18.510  0.00  0.00    +0.000 A 
ATOM     32  C   UNL     1       3.182  16.572  18.522  0.00  0.00    +0.000 A 
ATOM     33  C   UNL     1       4.192  16.515  19.477  0.00  0.00    +0.000 A 
ATOM     34  F   UNL     1       5.074  17.520  19.576  0.00  0.00    +0.000 F 
ATOM     35  C   UNL     1       4.270  15.455  20.362  0.00  0.00    +0.000 A 
ATOM     36  C   UNL     1       3.253  14.502  20.362  0.00  0.00    +0.000 A 
ATOM     37  F   UNL     1       3.388  13.493  21.236  0.00  0.00    +0.000 F 
ENDBRANCH  29  30
ENDBRANCH   6  29
TORSDOF 8
ENDMDL
