MODEL 1
REMARK VINA RESULT:      -6.3      0.000      0.000
REMARK  Name = 
REMARK  11 active torsions:
REMARK  status: ('A' for Active; 'I' for Inactive)
REMARK    1  A    between atoms: C_1  and  O_2
REMARK    2  A    between atoms: O_2  and  C_3
REMARK    3  A    between atoms: C_7  and  O_8
REMARK    4  A    between atoms: O_8  and  C_9
REMARK    5  A    between atoms: C_11  and  C_12
REMARK    6  A    between atoms: C_12  and  O_13
REMARK    7  A    between atoms: C_14  and  O_15
REMARK    8  A    between atoms: C_16  and  O_17
REMARK    9  A    between atoms: C_18  and  O_19
REMARK   10  A    between atoms: C_20  and  O_21
REMARK   11  A    between atoms: C_23  and  O_24
REMARK                            x       y       z     vdW  Elec       q    Type
REMARK                         _______ _______ _______ _____ _____    ______ ____
ROOT
ATOM      1  C   UNL     1      -2.748  14.466  23.151  0.00  0.00    +0.000 A 
ATOM      2  C   UNL     1      -4.127  14.547  23.090  0.00  0.00    +0.000 A 
ATOM      3  C   UNL     1      -4.858  13.898  22.079  0.00  0.00    +0.000 A 
ATOM      4  C   UNL     1      -4.226  13.120  21.058  0.00  0.00    +0.000 A 
ATOM      5  C   UNL     1      -2.793  13.006  21.137  0.00  0.00    +0.000 A 
ATOM      6  C   UNL     1      -2.092  13.707  22.177  0.00  0.00    +0.000 A 
ATOM      7  C   UNL     1      -5.145  12.456  20.077  0.00  0.00    +0.000 A 
ATOM      8  C   UNL     1      -4.733  11.813  18.908  0.00  0.00    +0.000 A 
ATOM      9  C   UNL     1      -5.481  10.815  18.286  0.00  0.00    +0.000 A 
ATOM     10  C   UNL     1      -6.816  10.673  18.615  0.00  0.00    +0.000 A 
ATOM     11  C   UNL     1      -7.365  11.559  19.537  0.00  0.00    +0.000 A 
ATOM     12  C   UNL     1      -6.540  12.426  20.280  0.00  0.00    +0.000 A 
ATOM     13  C   UNL     1      -7.225  13.443  21.144  0.00  0.00    +0.000 C 
ATOM     14  C   UNL     1      -6.353  14.099  22.189  0.00  0.00    +0.000 C 
ENDROOT
BRANCH   1  16
ATOM     15  C   UNL     1      -2.864  15.020  25.475  0.00  0.00    +0.000 C 
ATOM     16  O   UNL     1      -2.227  15.155  24.213  0.00  0.00    +0.000 OA
ENDBRANCH   1  16
BRANCH   6  17
ATOM     17  O   UNL     1      -0.719  13.647  22.208  0.00  0.00    +0.000 OA
ATOM     18  H   UNL     1      -0.455  13.236  21.384  0.00  0.00    +0.000 HD
ENDBRANCH   6  17
BRANCH   8  19
ATOM     19  O   UNL     1      -3.705  12.327  18.153  0.00  0.00    +0.000 OA
ATOM     20  H   UNL     1      -3.428  13.152  18.595  0.00  0.00    +0.000 HD
ENDBRANCH   8  19
BRANCH   5  21
ATOM     21  O   UNL     1      -1.936  12.545  20.147  0.00  0.00    +0.000 OA
BRANCH  21  22
ATOM     22  C   UNL     1      -1.257  11.252  20.085  0.00  0.00    +0.000 C 
ATOM     23  O   UNL     1      -0.663  10.805  21.290  0.00  0.00    +0.000 OA
ATOM     24  C   UNL     1      -0.009   9.512  21.168  0.00  0.00    +0.000 C 
ATOM     25  C   UNL     1       1.097   9.506  20.101  0.00  0.00    +0.000 C 
ATOM     26  C   UNL     1       0.584  10.044  18.774  0.00  0.00    +0.000 C 
ATOM     27  C   UNL     1      -0.192  11.356  18.949  0.00  0.00    +0.000 C 
BRANCH  25  28
ATOM     28  O   UNL     1       1.596   8.179  19.875  0.00  0.00    +0.000 OA
ATOM     29  H   UNL     1       2.551   8.220  20.099  0.00  0.00    +0.000 HD
ENDBRANCH  25  28
BRANCH  26  30
ATOM     30  O   UNL     1       1.727  10.213  17.910  0.00  0.00    +0.000 OA
ATOM     31  H   UNL     1       2.494  10.441  18.470  0.00  0.00    +0.000 HD
ENDBRANCH  26  30
BRANCH  27  32
ATOM     32  O   UNL     1      -0.775  11.695  17.676  0.00  0.00    +0.000 OA
ATOM     33  H   UNL     1      -0.293  11.213  16.977  0.00  0.00    +0.000 HD
ENDBRANCH  27  32
BRANCH  24  34
ATOM     34  C   UNL     1       0.609   9.255  22.546  0.00  0.00    +0.000 C 
BRANCH  34  35
ATOM     35  O   UNL     1       2.035   9.283  22.414  0.00  0.00    +0.000 OA
ATOM     36  H   UNL     1       2.320  10.010  23.008  0.00  0.00    +0.000 HD
ENDBRANCH  34  35
ENDBRANCH  24  34
ENDBRANCH  21  22
ENDBRANCH   5  21
TORSDOF 10
ENDMDL
MODEL 2
REMARK VINA RESULT:      -6.2      0.926      1.075
REMARK  Name = 
REMARK  11 active torsions:
REMARK  status: ('A' for Active; 'I' for Inactive)
REMARK    1  A    between atoms: C_1  and  O_2
REMARK    2  A    between atoms: O_2  and  C_3
REMARK    3  A    between atoms: C_7  and  O_8
REMARK    4  A    between atoms: O_8  and  C_9
REMARK    5  A    between atoms: C_11  and  C_12
REMARK    6  A    between atoms: C_12  and  O_13
REMARK    7  A    between atoms: C_14  and  O_15
REMARK    8  A    between atoms: C_16  and  O_17
REMARK    9  A    between atoms: C_18  and  O_19
REMARK   10  A    between atoms: C_20  and  O_21
REMARK   11  A    between atoms: C_23  and  O_24
REMARK                            x       y       z     vdW  Elec       q    Type
REMARK                         _______ _______ _______ _____ _____    ______ ____
ROOT
ATOM      1  C   UNL     1      -1.875  14.163  23.738  0.00  0.00    +0.000 A 
ATOM      2  C   UNL     1      -3.213  14.279  24.065  0.00  0.00    +0.000 A 
ATOM      3  C   UNL     1      -4.223  13.794  23.216  0.00  0.00    +0.000 A 
ATOM      4  C   UNL     1      -3.931  13.154  21.970  0.00  0.00    +0.000 A 
ATOM      5  C   UNL     1      -2.539  13.001  21.640  0.00  0.00    +0.000 A 
ATOM      6  C   UNL     1      -1.546  13.535  22.533  0.00  0.00    +0.000 A 
ATOM      7  C   UNL     1      -5.115  12.653  21.197  0.00  0.00    +0.000 A 
ATOM      8  C   UNL     1      -5.067  12.172  19.887  0.00  0.00    +0.000 A 
ATOM      9  C   UNL     1      -6.010  11.287  19.368  0.00  0.00    +0.000 A 
ATOM     10  C   UNL     1      -7.215  11.127  20.026  0.00  0.00    +0.000 A 
ATOM     11  C   UNL     1      -7.447  11.886  21.170  0.00  0.00    +0.000 A 
ATOM     12  C   UNL     1      -6.405  12.624  21.766  0.00  0.00    +0.000 A 
ATOM     13  C   UNL     1      -6.775  13.523  22.908  0.00  0.00    +0.000 C 
ATOM     14  C   UNL     1      -5.621  14.008  23.753  0.00  0.00    +0.000 C 
ENDROOT
BRANCH   1  16
ATOM     15  C   UNL     1      -1.419  15.919  25.296  0.00  0.00    +0.000 C 
ATOM     16  O   UNL     1      -1.051  14.685  24.698  0.00  0.00    +0.000 OA
ENDBRANCH   1  16
BRANCH   6  17
ATOM     17  O   UNL     1      -0.221  13.443  22.182  0.00  0.00    +0.000 OA
ATOM     18  H   UNL     1      -0.211  13.233  21.247  0.00  0.00    +0.000 HD
ENDBRANCH   6  17
BRANCH   8  19
ATOM     19  O   UNL     1      -4.250  12.766  18.955  0.00  0.00    +0.000 OA
ATOM     20  H   UNL     1      -4.777  12.840  18.137  0.00  0.00    +0.000 HD
ENDBRANCH   8  19
BRANCH   5  21
ATOM     21  O   UNL     1      -2.004  12.666  20.404  0.00  0.00    +0.000 OA
BRANCH  21  22
ATOM     22  C   UNL     1      -1.311  11.432  20.035  0.00  0.00    +0.000 C 
ATOM     23  O   UNL     1      -0.795  10.668  21.108  0.00  0.00    +0.000 OA
ATOM     24  C   UNL     1      -0.122   9.450  20.681  0.00  0.00    +0.000 C 
ATOM     25  C   UNL     1       1.052   9.727  19.728  0.00  0.00    +0.000 C 
ATOM     26  C   UNL     1       0.624  10.612  18.569  0.00  0.00    +0.000 C 
ATOM     27  C   UNL     1      -0.173  11.833  19.044  0.00  0.00    +0.000 C 
BRANCH  25  28
ATOM     28  O   UNL     1       1.577   8.507  19.181  0.00  0.00    +0.000 OA
ATOM     29  H   UNL     1       1.446   8.581  18.211  0.00  0.00    +0.000 HD
ENDBRANCH  25  28
BRANCH  26  30
ATOM     30  O   UNL     1       1.820  11.000  17.861  0.00  0.00    +0.000 OA
ATOM     31  H   UNL     1       1.730  10.700  16.937  0.00  0.00    +0.000 HD
ENDBRANCH  26  30
BRANCH  27  32
ATOM     32  O   UNL     1      -0.674  12.513  17.877  0.00  0.00    +0.000 OA
ATOM     33  H   UNL     1       0.047  13.054  17.501  0.00  0.00    +0.000 HD
ENDBRANCH  27  32
BRANCH  24  34
ATOM     34  C   UNL     1       0.406   8.820  21.974  0.00  0.00    +0.000 C 
BRANCH  34  35
ATOM     35  O   UNL     1       1.837   8.870  21.949  0.00  0.00    +0.000 OA
ATOM     36  H   UNL     1       2.060   8.985  21.001  0.00  0.00    +0.000 HD
ENDBRANCH  34  35
ENDBRANCH  24  34
ENDBRANCH  21  22
ENDBRANCH   5  21
TORSDOF 10
ENDMDL
MODEL 3
REMARK VINA RESULT:      -6.1      1.169      4.264
REMARK  Name = 
REMARK  11 active torsions:
REMARK  status: ('A' for Active; 'I' for Inactive)
REMARK    1  A    between atoms: C_1  and  O_2
REMARK    2  A    between atoms: O_2  and  C_3
REMARK    3  A    between atoms: C_7  and  O_8
REMARK    4  A    between atoms: O_8  and  C_9
REMARK    5  A    between atoms: C_11  and  C_12
REMARK    6  A    between atoms: C_12  and  O_13
REMARK    7  A    between atoms: C_14  and  O_15
REMARK    8  A    between atoms: C_16  and  O_17
REMARK    9  A    between atoms: C_18  and  O_19
REMARK   10  A    between atoms: C_20  and  O_21
REMARK   11  A    between atoms: C_23  and  O_24
REMARK                            x       y       z     vdW  Elec       q    Type
REMARK                         _______ _______ _______ _____ _____    ______ ____
ROOT
ATOM      1  C   UNL     1      -5.424  12.028  19.360  0.00  0.00    +0.000 A 
ATOM      2  C   UNL     1      -6.048  12.332  20.555  0.00  0.00    +0.000 A 
ATOM      3  C   UNL     1      -5.323  12.793  21.668  0.00  0.00    +0.000 A 
ATOM      4  C   UNL     1      -3.903  12.976  21.632  0.00  0.00    +0.000 A 
ATOM      5  C   UNL     1      -3.254  12.691  20.380  0.00  0.00    +0.000 A 
ATOM      6  C   UNL     1      -4.039  12.201  19.280  0.00  0.00    +0.000 A 
ATOM      7  C   UNL     1      -3.281  13.514  22.885  0.00  0.00    +0.000 A 
ATOM      8  C   UNL     1      -1.907  13.590  23.124  0.00  0.00    +0.000 A 
ATOM      9  C   UNL     1      -1.340  14.497  24.016  0.00  0.00    +0.000 A 
ATOM     10  C   UNL     1      -2.150  15.118  24.948  0.00  0.00    +0.000 A 
ATOM     11  C   UNL     1      -3.501  14.783  24.975  0.00  0.00    +0.000 A 
ATOM     12  C   UNL     1      -4.070  14.010  23.944  0.00  0.00    +0.000 A 
ATOM     13  C   UNL     1      -5.494  13.577  24.125  0.00  0.00    +0.000 C 
ATOM     14  C   UNL     1      -6.184  13.080  22.877  0.00  0.00    +0.000 C 
ENDROOT
BRANCH   1  16
ATOM     15  C   UNL     1      -6.839  12.579  17.512  0.00  0.00    +0.000 C 
ATOM     16  O   UNL     1      -6.303  11.607  18.399  0.00  0.00    +0.000 OA
ENDBRANCH   1  16
BRANCH   6  17
ATOM     17  O   UNL     1      -3.404  11.870  18.108  0.00  0.00    +0.000 OA
ATOM     18  H   UNL     1      -3.038  10.994  18.245  0.00  0.00    +0.000 HD
ENDBRANCH   6  17
BRANCH   8  19
ATOM     19  O   UNL     1      -1.069  12.583  22.706  0.00  0.00    +0.000 OA
ATOM     20  H   UNL     1      -1.646  11.848  22.422  0.00  0.00    +0.000 HD
ENDBRANCH   8  19
BRANCH   5  21
ATOM     21  O   UNL     1      -1.892  12.533  20.162  0.00  0.00    +0.000 OA
BRANCH  21  22
ATOM     22  C   UNL     1      -1.165  11.287  19.921  0.00  0.00    +0.000 C 
ATOM     23  O   UNL     1      -0.595  10.673  21.061  0.00  0.00    +0.000 OA
ATOM     24  C   UNL     1       0.109   9.436  20.761  0.00  0.00    +0.000 C 
ATOM     25  C   UNL     1       1.248   9.634  19.748  0.00  0.00    +0.000 C 
ATOM     26  C   UNL     1       0.759  10.361  18.505  0.00  0.00    +0.000 C 
ATOM     27  C   UNL     1      -0.069  11.603  18.856  0.00  0.00    +0.000 C 
BRANCH  25  28
ATOM     28  O   UNL     1       1.802   8.375  19.334  0.00  0.00    +0.000 OA
ATOM     29  H   UNL     1       2.739   8.565  19.113  0.00  0.00    +0.000 HD
ENDBRANCH  25  28
BRANCH  26  30
ATOM     30  O   UNL     1       1.922  10.699  17.722  0.00  0.00    +0.000 OA
ATOM     31  H   UNL     1       1.816  10.295  16.840  0.00  0.00    +0.000 HD
ENDBRANCH  26  30
BRANCH  27  32
ATOM     32  O   UNL     1      -0.623  12.123  17.632  0.00  0.00    +0.000 OA
ATOM     33  H   UNL     1      -1.467  12.568  17.840  0.00  0.00    +0.000 HD
ENDBRANCH  27  32
BRANCH  24  34
ATOM     34  C   UNL     1       0.692   8.981  22.103  0.00  0.00    +0.000 C 
BRANCH  34  35
ATOM     35  O   UNL     1       0.436  10.002  23.075  0.00  0.00    +0.000 OA
ATOM     36  H   UNL     1       0.644   9.577  23.935  0.00  0.00    +0.000 HD
ENDBRANCH  34  35
ENDBRANCH  24  34
ENDBRANCH  21  22
ENDBRANCH   5  21
TORSDOF 10
ENDMDL
MODEL 4
REMARK VINA RESULT:      -6.1      4.111      7.022
REMARK  Name = 
REMARK  11 active torsions:
REMARK  status: ('A' for Active; 'I' for Inactive)
REMARK    1  A    between atoms: C_1  and  O_2
REMARK    2  A    between atoms: O_2  and  C_3
REMARK    3  A    between atoms: C_7  and  O_8
REMARK    4  A    between atoms: O_8  and  C_9
REMARK    5  A    between atoms: C_11  and  C_12
REMARK    6  A    between atoms: C_12  and  O_13
REMARK    7  A    between atoms: C_14  and  O_15
REMARK    8  A    between atoms: C_16  and  O_17
REMARK    9  A    between atoms: C_18  and  O_19
REMARK   10  A    between atoms: C_20  and  O_21
REMARK   11  A    between atoms: C_23  and  O_24
REMARK                            x       y       z     vdW  Elec       q    Type
REMARK                         _______ _______ _______ _____ _____    ______ ____
ROOT
ATOM      1  C   UNL     1       1.817  10.064  18.338  0.00  0.00    +0.000 A 
ATOM      2  C   UNL     1       1.109   9.422  19.336  0.00  0.00    +0.000 A 
ATOM      3  C   UNL     1       0.528  10.133  20.401  0.00  0.00    +0.000 A 
ATOM      4  C   UNL     1       0.633  11.556  20.516  0.00  0.00    +0.000 A 
ATOM      5  C   UNL     1       1.342  12.232  19.462  0.00  0.00    +0.000 A 
ATOM      6  C   UNL     1       1.936  11.455  18.409  0.00  0.00    +0.000 A 
ATOM      7  C   UNL     1      -0.075  12.172  21.685  0.00  0.00    +0.000 A 
ATOM      8  C   UNL     1       0.054  13.505  22.084  0.00  0.00    +0.000 A 
ATOM      9  C   UNL     1      -0.925  14.178  22.812  0.00  0.00    +0.000 A 
ATOM     10  C   UNL     1      -1.903  13.446  23.459  0.00  0.00    +0.000 A 
ATOM     11  C   UNL     1      -1.848  12.057  23.379  0.00  0.00    +0.000 A 
ATOM     12  C   UNL     1      -0.962  11.423  22.485  0.00  0.00    +0.000 A 
ATOM     13  C   UNL     1      -0.868   9.929  22.567  0.00  0.00    +0.000 C 
ATOM     14  C   UNL     1      -0.212   9.255  21.385  0.00  0.00    +0.000 C 
ENDROOT
BRANCH   1  16
ATOM     15  C   UNL     1       2.856   7.971  17.827  0.00  0.00    +0.000 C 
ATOM     16  O   UNL     1       2.292   9.198  17.389  0.00  0.00    +0.000 OA
ENDBRANCH   1  16
BRANCH   6  17
ATOM     17  O   UNL     1       2.667  12.100  17.440  0.00  0.00    +0.000 OA
ATOM     18  H   UNL     1       3.190  11.422  17.010  0.00  0.00    +0.000 HD
ENDBRANCH   6  17
BRANCH   8  19
ATOM     19  O   UNL     1       1.274  14.136  22.025  0.00  0.00    +0.000 OA
ATOM     20  H   UNL     1       1.312  14.730  22.798  0.00  0.00    +0.000 HD
ENDBRANCH   8  19
BRANCH   5  21
ATOM     21  O   UNL     1       1.806  13.540  19.472  0.00  0.00    +0.000 OA
BRANCH  21  22
ATOM     22  C   UNL     1       3.187  13.997  19.627  0.00  0.00    +0.000 C 
ATOM     23  O   UNL     1       3.616  14.230  20.956  0.00  0.00    +0.000 OA
ATOM     24  C   UNL     1       4.998  14.676  21.048  0.00  0.00    +0.000 C 
ATOM     25  C   UNL     1       5.254  15.974  20.265  0.00  0.00    +0.000 C 
ATOM     26  C   UNL     1       4.756  15.860  18.833  0.00  0.00    +0.000 C 
ATOM     27  C   UNL     1       3.334  15.289  18.763  0.00  0.00    +0.000 C 
BRANCH  25  28
ATOM     28  O   UNL     1       6.654  16.288  20.221  0.00  0.00    +0.000 OA
ATOM     29  H   UNL     1       6.872  16.368  19.268  0.00  0.00    +0.000 HD
ENDBRANCH  25  28
BRANCH  26  30
ATOM     30  O   UNL     1       4.829  17.177  18.248  0.00  0.00    +0.000 OA
ATOM     31  H   UNL     1       4.068  17.279  17.644  0.00  0.00    +0.000 HD
ENDBRANCH  26  30
BRANCH  27  32
ATOM     32  O   UNL     1       3.017  15.063  17.376  0.00  0.00    +0.000 OA
ATOM     33  H   UNL     1       2.049  15.125  17.266  0.00  0.00    +0.000 HD
ENDBRANCH  27  32
BRANCH  24  34
ATOM     34  C   UNL     1       5.230  14.926  22.541  0.00  0.00    +0.000 C 
BRANCH  34  35
ATOM     35  O   UNL     1       4.012  14.645  23.241  0.00  0.00    +0.000 OA
ATOM     36  H   UNL     1       4.098  13.705  23.511  0.00  0.00    +0.000 HD
ENDBRANCH  34  35
ENDBRANCH  24  34
ENDBRANCH  21  22
ENDBRANCH   5  21
TORSDOF 10
ENDMDL
MODEL 5
REMARK VINA RESULT:      -6.0      2.506      5.498
REMARK  Name = 
REMARK  11 active torsions:
REMARK  status: ('A' for Active; 'I' for Inactive)
REMARK    1  A    between atoms: C_1  and  O_2
REMARK    2  A    between atoms: O_2  and  C_3
REMARK    3  A    between atoms: C_7  and  O_8
REMARK    4  A    between atoms: O_8  and  C_9
REMARK    5  A    between atoms: C_11  and  C_12
REMARK    6  A    between atoms: C_12  and  O_13
REMARK    7  A    between atoms: C_14  and  O_15
REMARK    8  A    between atoms: C_16  and  O_17
REMARK    9  A    between atoms: C_18  and  O_19
REMARK   10  A    between atoms: C_20  and  O_21
REMARK   11  A    between atoms: C_23  and  O_24
REMARK                            x       y       z     vdW  Elec       q    Type
REMARK                         _______ _______ _______ _____ _____    ______ ____
ROOT
ATOM      1  C   UNL     1      -2.937  11.112  16.897  0.00  0.00    +0.000 A 
ATOM      2  C   UNL     1      -4.317  11.127  16.962  0.00  0.00    +0.000 A 
ATOM      3  C   UNL     1      -4.997  11.590  18.103  0.00  0.00    +0.000 A 
ATOM      4  C   UNL     1      -4.305  12.074  19.259  0.00  0.00    +0.000 A 
ATOM      5  C   UNL     1      -2.868  12.091  19.184  0.00  0.00    +0.000 A 
ATOM      6  C   UNL     1      -2.223  11.584  18.003  0.00  0.00    +0.000 A 
ATOM      7  C   UNL     1      -5.170  12.573  20.378  0.00  0.00    +0.000 A 
ATOM      8  C   UNL     1      -4.709  12.910  21.653  0.00  0.00    +0.000 A 
ATOM      9  C   UNL     1      -5.377  13.800  22.491  0.00  0.00    +0.000 A 
ATOM     10  C   UNL     1      -6.696  14.114  22.223  0.00  0.00    +0.000 A 
ATOM     11  C   UNL     1      -7.313  13.498  21.138  0.00  0.00    +0.000 A 
ATOM     12  C   UNL     1      -6.558  12.755  20.209  0.00  0.00    +0.000 A 
ATOM     13  C   UNL     1      -7.320  12.010  19.155  0.00  0.00    +0.000 C 
ATOM     14  C   UNL     1      -6.502  11.535  17.977  0.00  0.00    +0.000 C 
ENDROOT
BRANCH   1  16
ATOM     15  C   UNL     1      -3.420  10.310  14.696  0.00  0.00    +0.000 C 
ATOM     16  O   UNL     1      -2.471  10.636  15.702  0.00  0.00    +0.000 OA
ENDBRANCH   1  16
BRANCH   6  17
ATOM     17  O   UNL     1      -0.851  11.544  17.963  0.00  0.00    +0.000 OA
ATOM     18  H   UNL     1      -0.564  11.452  18.873  0.00  0.00    +0.000 HD
ENDBRANCH   6  17
BRANCH   8  19
ATOM     19  O   UNL     1      -3.726  12.164  22.259  0.00  0.00    +0.000 OA
ATOM     20  H   UNL     1      -4.136  11.761  23.048  0.00  0.00    +0.000 HD
ENDBRANCH   8  19
BRANCH   5  21
ATOM     21  O   UNL     1      -1.978  12.255  20.236  0.00  0.00    +0.000 OA
BRANCH  21  22
ATOM     22  C   UNL     1      -1.159  13.428  20.538  0.00  0.00    +0.000 C 
ATOM     23  O   UNL     1      -1.025  14.376  19.496  0.00  0.00    +0.000 OA
ATOM     24  C   UNL     1      -0.206  15.522  19.857  0.00  0.00    +0.000 C 
ATOM     25  C   UNL     1       1.218  15.122  20.278  0.00  0.00    +0.000 C 
ATOM     26  C   UNL     1       1.193  14.043  21.349  0.00  0.00    +0.000 C 
ATOM     27  C   UNL     1       0.239  12.898  20.987  0.00  0.00    +0.000 C 
BRANCH  25  28
ATOM     28  O   UNL     1       1.941  16.247  20.801  0.00  0.00    +0.000 OA
ATOM     29  H   UNL     1       1.969  16.900  20.069  0.00  0.00    +0.000 HD
ENDBRANCH  25  28
BRANCH  26  30
ATOM     30  O   UNL     1       2.547  13.576  21.517  0.00  0.00    +0.000 OA
ATOM     31  H   UNL     1       2.511  12.711  21.969  0.00  0.00    +0.000 HD
ENDBRANCH  26  30
BRANCH  27  32
ATOM     32  O   UNL     1       0.156  12.018  22.124  0.00  0.00    +0.000 OA
ATOM     33  H   UNL     1       1.029  11.995  22.561  0.00  0.00    +0.000 HD
ENDBRANCH  27  32
BRANCH  24  34
ATOM     34  C   UNL     1      -0.143  16.374  18.586  0.00  0.00    +0.000 C 
BRANCH  34  35
ATOM     35  O   UNL     1      -1.388  17.068  18.445  0.00  0.00    +0.000 OA
ATOM     36  H   UNL     1      -1.898  16.816  19.245  0.00  0.00    +0.000 HD
ENDBRANCH  34  35
ENDBRANCH  24  34
ENDBRANCH  21  22
ENDBRANCH   5  21
TORSDOF 10
ENDMDL
MODEL 6
REMARK VINA RESULT:      -6.0      2.418      7.642
REMARK  Name = 
REMARK  11 active torsions:
REMARK  status: ('A' for Active; 'I' for Inactive)
REMARK    1  A    between atoms: C_1  and  O_2
REMARK    2  A    between atoms: O_2  and  C_3
REMARK    3  A    between atoms: C_7  and  O_8
REMARK    4  A    between atoms: O_8  and  C_9
REMARK    5  A    between atoms: C_11  and  C_12
REMARK    6  A    between atoms: C_12  and  O_13
REMARK    7  A    between atoms: C_14  and  O_15
REMARK    8  A    between atoms: C_16  and  O_17
REMARK    9  A    between atoms: C_18  and  O_19
REMARK   10  A    between atoms: C_20  and  O_21
REMARK   11  A    between atoms: C_23  and  O_24
REMARK                            x       y       z     vdW  Elec       q    Type
REMARK                         _______ _______ _______ _____ _____    ______ ____
ROOT
ATOM      1  C   UNL     1      -3.073  11.165  16.865  0.00  0.00    +0.000 A 
ATOM      2  C   UNL     1      -1.901  10.433  16.848  0.00  0.00    +0.000 A 
ATOM      3  C   UNL     1      -1.132  10.248  18.010  0.00  0.00    +0.000 A 
ATOM      4  C   UNL     1      -1.513  10.801  19.274  0.00  0.00    +0.000 A 
ATOM      5  C   UNL     1      -2.750  11.535  19.304  0.00  0.00    +0.000 A 
ATOM      6  C   UNL     1      -3.486  11.715  18.083  0.00  0.00    +0.000 A 
ATOM      7  C   UNL     1      -0.611  10.479  20.428  0.00  0.00    +0.000 A 
ATOM      8  C   UNL     1      -0.695  11.064  21.694  0.00  0.00    +0.000 A 
ATOM      9  C   UNL     1      -0.220  10.447  22.849  0.00  0.00    +0.000 A 
ATOM     10  C   UNL     1       0.659   9.387  22.731  0.00  0.00    +0.000 A 
ATOM     11  C   UNL     1       1.059   9.001  21.455  0.00  0.00    +0.000 A 
ATOM     12  C   UNL     1       0.417   9.520  20.313  0.00  0.00    +0.000 A 
ATOM     13  C   UNL     1       1.003   9.161  18.981  0.00  0.00    +0.000 C 
ATOM     14  C   UNL     1       0.109   9.412  17.789  0.00  0.00    +0.000 C 
ENDROOT
BRANCH   1  16
ATOM     15  C   UNL     1      -3.462  10.141  14.739  0.00  0.00    +0.000 C 
ATOM     16  O   UNL     1      -3.679  11.218  15.638  0.00  0.00    +0.000 OA
ENDBRANCH   1  16
BRANCH   6  17
ATOM     17  O   UNL     1      -4.633  12.471  18.105  0.00  0.00    +0.000 OA
ATOM     18  H   UNL     1      -5.178  12.103  18.801  0.00  0.00    +0.000 HD
ENDBRANCH   6  17
BRANCH   8  19
ATOM     19  O   UNL     1      -0.993  12.400  21.827  0.00  0.00    +0.000 OA
ATOM     20  H   UNL     1      -0.719  12.652  22.729  0.00  0.00    +0.000 HD
ENDBRANCH   8  19
BRANCH   5  21
ATOM     21  O   UNL     1      -3.198  12.376  20.313  0.00  0.00    +0.000 OA
BRANCH  21  22
ATOM     22  C   UNL     1      -4.501  12.356  20.979  0.00  0.00    +0.000 C 
ATOM     23  O   UNL     1      -5.525  13.111  20.359  0.00  0.00    +0.000 OA
ATOM     24  C   UNL     1      -6.797  13.049  21.062  0.00  0.00    +0.000 C 
ATOM     25  C   UNL     1      -6.696  13.546  22.513  0.00  0.00    +0.000 C 
ATOM     26  C   UNL     1      -5.566  12.849  23.256  0.00  0.00    +0.000 C 
ATOM     27  C   UNL     1      -4.265  12.841  22.444  0.00  0.00    +0.000 C 
BRANCH  25  28
ATOM     28  O   UNL     1      -7.914  13.302  23.233  0.00  0.00    +0.000 OA
ATOM     29  H   UNL     1      -8.180  14.174  23.595  0.00  0.00    +0.000 HD
ENDBRANCH  25  28
BRANCH  26  30
ATOM     30  O   UNL     1      -5.402  13.529  24.518  0.00  0.00    +0.000 OA
ATOM     31  H   UNL     1      -4.630  14.123  24.439  0.00  0.00    +0.000 HD
ENDBRANCH  26  30
BRANCH  27  32
ATOM     32  O   UNL     1      -3.312  12.022  23.149  0.00  0.00    +0.000 OA
ATOM     33  H   UNL     1      -3.802  11.366  23.681  0.00  0.00    +0.000 HD
ENDBRANCH  27  32
BRANCH  24  34
ATOM     34  C   UNL     1      -7.728  13.971  20.269  0.00  0.00    +0.000 C 
BRANCH  34  35
ATOM     35  O   UNL     1      -7.840  15.213  20.973  0.00  0.00    +0.000 OA
ATOM     36  H   UNL     1      -8.381  15.779  20.382  0.00  0.00    +0.000 HD
ENDBRANCH  34  35
ENDBRANCH  24  34
ENDBRANCH  21  22
ENDBRANCH   5  21
TORSDOF 10
ENDMDL
MODEL 7
REMARK VINA RESULT:      -6.0      3.567      5.787
REMARK  Name = 
REMARK  11 active torsions:
REMARK  status: ('A' for Active; 'I' for Inactive)
REMARK    1  A    between atoms: C_1  and  O_2
REMARK    2  A    between atoms: O_2  and  C_3
REMARK    3  A    between atoms: C_7  and  O_8
REMARK    4  A    between atoms: O_8  and  C_9
REMARK    5  A    between atoms: C_11  and  C_12
REMARK    6  A    between atoms: C_12  and  O_13
REMARK    7  A    between atoms: C_14  and  O_15
REMARK    8  A    between atoms: C_16  and  O_17
REMARK    9  A    between atoms: C_18  and  O_19
REMARK   10  A    between atoms: C_20  and  O_21
REMARK   11  A    between atoms: C_23  and  O_24
REMARK                            x       y       z     vdW  Elec       q    Type
REMARK                         _______ _______ _______ _____ _____    ______ ____
ROOT
ATOM      1  C   UNL     1      -1.680  13.474  22.979  0.00  0.00    +0.000 A 
ATOM      2  C   UNL     1      -1.383  12.156  23.269  0.00  0.00    +0.000 A 
ATOM      3  C   UNL     1      -0.830  11.296  22.303  0.00  0.00    +0.000 A 
ATOM      4  C   UNL     1      -0.541  11.730  20.970  0.00  0.00    +0.000 A 
ATOM      5  C   UNL     1      -0.817  13.111  20.673  0.00  0.00    +0.000 A 
ATOM      6  C   UNL     1      -1.404  13.941  21.690  0.00  0.00    +0.000 A 
ATOM      7  C   UNL     1       0.086  10.708  20.070  0.00  0.00    +0.000 A 
ATOM      8  C   UNL     1       0.275  10.864  18.695  0.00  0.00    +0.000 A 
ATOM      9  C   UNL     1       1.253  10.177  17.980  0.00  0.00    +0.000 A 
ATOM     10  C   UNL     1       1.841   9.062  18.548  0.00  0.00    +0.000 A 
ATOM     11  C   UNL     1       1.405   8.654  19.805  0.00  0.00    +0.000 A 
ATOM     12  C   UNL     1       0.555   9.476  20.572  0.00  0.00    +0.000 A 
ATOM     13  C   UNL     1       0.021   8.898  21.848  0.00  0.00    +0.000 C 
ATOM     14  C   UNL     1      -0.570   9.897  22.815  0.00  0.00    +0.000 C 
ENDROOT
BRANCH   1  16
ATOM     15  C   UNL     1      -1.346  15.034  24.761  0.00  0.00    +0.000 C 
ATOM     16  O   UNL     1      -2.199  14.146  24.053  0.00  0.00    +0.000 OA
ENDBRANCH   1  16
BRANCH   6  17
ATOM     17  O   UNL     1      -1.725  15.241  21.381  0.00  0.00    +0.000 OA
ATOM     18  H   UNL     1      -0.945  15.612  20.965  0.00  0.00    +0.000 HD
ENDBRANCH   6  17
BRANCH   8  19
ATOM     19  O   UNL     1      -0.679  11.489  17.927  0.00  0.00    +0.000 OA
ATOM     20  H   UNL     1      -0.941  12.292  18.416  0.00  0.00    +0.000 HD
ENDBRANCH   8  19
BRANCH   5  21
ATOM     21  O   UNL     1      -0.878  13.700  19.418  0.00  0.00    +0.000 OA
BRANCH  21  22
ATOM     22  C   UNL     1       0.176  14.442  18.728  0.00  0.00    +0.000 C 
ATOM     23  O   UNL     1       1.502  14.014  18.979  0.00  0.00    +0.000 OA
ATOM     24  C   UNL     1       2.505  14.785  18.261  0.00  0.00    +0.000 C 
ATOM     25  C   UNL     1       2.453  16.283  18.599  0.00  0.00    +0.000 C 
ATOM     26  C   UNL     1       1.045  16.835  18.437  0.00  0.00    +0.000 C 
ATOM     27  C   UNL     1      -0.002  15.944  19.116  0.00  0.00    +0.000 C 
BRANCH  25  28
ATOM     28  O   UNL     1       3.325  17.040  17.745  0.00  0.00    +0.000 OA
ATOM     29  H   UNL     1       3.065  17.977  17.874  0.00  0.00    +0.000 HD
ENDBRANCH  25  28
BRANCH  26  30
ATOM     30  O   UNL     1       1.044  18.170  18.983  0.00  0.00    +0.000 OA
ATOM     31  H   UNL     1       1.957  18.382  19.256  0.00  0.00    +0.000 HD
ENDBRANCH  26  30
BRANCH  27  32
ATOM     32  O   UNL     1      -1.304  16.452  18.768  0.00  0.00    +0.000 OA
ATOM     33  H   UNL     1      -1.301  16.687  17.820  0.00  0.00    +0.000 HD
ENDBRANCH  27  32
BRANCH  24  34
ATOM     34  C   UNL     1       3.847  14.203  18.720  0.00  0.00    +0.000 C 
BRANCH  34  35
ATOM     35  O   UNL     1       4.799  14.378  17.664  0.00  0.00    +0.000 OA
ATOM     36  H   UNL     1       5.544  14.856  18.086  0.00  0.00    +0.000 HD
ENDBRANCH  34  35
ENDBRANCH  24  34
ENDBRANCH  21  22
ENDBRANCH   5  21
TORSDOF 10
ENDMDL
MODEL 8
REMARK VINA RESULT:      -5.9      2.129      6.039
REMARK  Name = 
REMARK  11 active torsions:
REMARK  status: ('A' for Active; 'I' for Inactive)
REMARK    1  A    between atoms: C_1  and  O_2
REMARK    2  A    between atoms: O_2  and  C_3
REMARK    3  A    between atoms: C_7  and  O_8
REMARK    4  A    between atoms: O_8  and  C_9
REMARK    5  A    between atoms: C_11  and  C_12
REMARK    6  A    between atoms: C_12  and  O_13
REMARK    7  A    between atoms: C_14  and  O_15
REMARK    8  A    between atoms: C_16  and  O_17
REMARK    9  A    between atoms: C_18  and  O_19
REMARK   10  A    between atoms: C_20  and  O_21
REMARK   11  A    between atoms: C_23  and  O_24
REMARK                            x       y       z     vdW  Elec       q    Type
REMARK                         _______ _______ _______ _____ _____    ______ ____
ROOT
ATOM      1  C   UNL     1      -1.840  12.399  22.755  0.00  0.00    +0.000 A 
ATOM      2  C   UNL     1      -1.141  11.274  23.152  0.00  0.00    +0.000 A 
ATOM      3  C   UNL     1      -0.495  10.442  22.220  0.00  0.00    +0.000 A 
ATOM      4  C   UNL     1      -0.521  10.706  20.814  0.00  0.00    +0.000 A 
ATOM      5  C   UNL     1      -1.220  11.894  20.399  0.00  0.00    +0.000 A 
ATOM      6  C   UNL     1      -1.882  12.698  21.390  0.00  0.00    +0.000 A 
ATOM      7  C   UNL     1       0.250   9.750  19.954  0.00  0.00    +0.000 A 
ATOM      8  C   UNL     1       0.203   9.717  18.558  0.00  0.00    +0.000 A 
ATOM      9  C   UNL     1       1.235   9.204  17.776  0.00  0.00    +0.000 A 
ATOM     10  C   UNL     1       2.189   8.397  18.367  0.00  0.00    +0.000 A 
ATOM     11  C   UNL     1       2.058   8.106  19.722  0.00  0.00    +0.000 A 
ATOM     12  C   UNL     1       1.116   8.790  20.516  0.00  0.00    +0.000 A 
ATOM     13  C   UNL     1       0.944   8.315  21.927  0.00  0.00    +0.000 C 
ATOM     14  C   UNL     1       0.222   9.269  22.850  0.00  0.00    +0.000 C 
ENDROOT
BRANCH   1  16
ATOM     15  C   UNL     1      -3.708  12.750  24.207  0.00  0.00    +0.000 C 
ATOM     16  O   UNL     1      -2.384  13.079  23.811  0.00  0.00    +0.000 OA
ENDBRANCH   1  16
BRANCH   6  17
ATOM     17  O   UNL     1      -2.602  13.794  20.982  0.00  0.00    +0.000 OA
ATOM     18  H   UNL     1      -3.450  13.458  20.688  0.00  0.00    +0.000 HD
ENDBRANCH   6  17
BRANCH   8  19
ATOM     19  O   UNL     1      -0.982   9.928  17.894  0.00  0.00    +0.000 OA
ATOM     20  H   UNL     1      -1.097   9.168  17.292  0.00  0.00    +0.000 HD
ENDBRANCH   8  19
BRANCH   5  21
ATOM     21  O   UNL     1      -1.612  12.226  19.110  0.00  0.00    +0.000 OA
BRANCH  21  22
ATOM     22  C   UNL     1      -2.976  12.374  18.602  0.00  0.00    +0.000 C 
ATOM     23  O   UNL     1      -4.013  12.049  19.507  0.00  0.00    +0.000 OA
ATOM     24  C   UNL     1      -5.345  12.222  18.949  0.00  0.00    +0.000 C 
ATOM     25  C   UNL     1      -5.573  11.371  17.689  0.00  0.00    +0.000 C 
ATOM     26  C   UNL     1      -4.465  11.586  16.671  0.00  0.00    +0.000 C 
ATOM     27  C   UNL     1      -3.074  11.501  17.311  0.00  0.00    +0.000 C 
BRANCH  25  28
ATOM     28  O   UNL     1      -6.821  11.698  17.058  0.00  0.00    +0.000 OA
ATOM     29  H   UNL     1      -7.484  11.703  17.782  0.00  0.00    +0.000 HD
ENDBRANCH  25  28
BRANCH  26  30
ATOM     30  O   UNL     1      -4.636  10.596  15.636  0.00  0.00    +0.000 OA
ATOM     31  H   UNL     1      -4.899  11.061  14.819  0.00  0.00    +0.000 HD
ENDBRANCH  26  30
BRANCH  27  32
ATOM     32  O   UNL     1      -2.106  11.882  16.314  0.00  0.00    +0.000 OA
ATOM     33  H   UNL     1      -2.130  11.224  15.593  0.00  0.00    +0.000 HD
ENDBRANCH  27  32
BRANCH  24  34
ATOM     34  C   UNL     1      -6.297  11.761  20.057  0.00  0.00    +0.000 C 
BRANCH  34  35
ATOM     35  O   UNL     1      -6.818  10.475  19.699  0.00  0.00    +0.000 OA
ATOM     36  H   UNL     1      -6.744   9.945  20.521  0.00  0.00    +0.000 HD
ENDBRANCH  34  35
ENDBRANCH  24  34
ENDBRANCH  21  22
ENDBRANCH   5  21
TORSDOF 10
ENDMDL
MODEL 9
REMARK VINA RESULT:      -5.9      2.403      6.472
REMARK  Name = 
REMARK  11 active torsions:
REMARK  status: ('A' for Active; 'I' for Inactive)
REMARK    1  A    between atoms: C_1  and  O_2
REMARK    2  A    between atoms: O_2  and  C_3
REMARK    3  A    between atoms: C_7  and  O_8
REMARK    4  A    between atoms: O_8  and  C_9
REMARK    5  A    between atoms: C_11  and  C_12
REMARK    6  A    between atoms: C_12  and  O_13
REMARK    7  A    between atoms: C_14  and  O_15
REMARK    8  A    between atoms: C_16  and  O_17
REMARK    9  A    between atoms: C_18  and  O_19
REMARK   10  A    between atoms: C_20  and  O_21
REMARK   11  A    between atoms: C_23  and  O_24
REMARK                            x       y       z     vdW  Elec       q    Type
REMARK                         _______ _______ _______ _____ _____    ______ ____
ROOT
ATOM      1  C   UNL     1      -5.847  12.025  18.686  0.00  0.00    +0.000 A 
ATOM      2  C   UNL     1      -5.225  11.183  17.783  0.00  0.00    +0.000 A 
ATOM      3  C   UNL     1      -3.833  10.985  17.800  0.00  0.00    +0.000 A 
ATOM      4  C   UNL     1      -2.980  11.638  18.746  0.00  0.00    +0.000 A 
ATOM      5  C   UNL     1      -3.627  12.489  19.709  0.00  0.00    +0.000 A 
ATOM      6  C   UNL     1      -5.051  12.675  19.633  0.00  0.00    +0.000 A 
ATOM      7  C   UNL     1      -1.524  11.291  18.663  0.00  0.00    +0.000 A 
ATOM      8  C   UNL     1      -0.507  11.947  19.360  0.00  0.00    +0.000 A 
ATOM      9  C   UNL     1       0.713  11.347  19.665  0.00  0.00    +0.000 A 
ATOM     10  C   UNL     1       1.087  10.202  18.987  0.00  0.00    +0.000 A 
ATOM     11  C   UNL     1       0.236   9.713  18.000  0.00  0.00    +0.000 A 
ATOM     12  C   UNL     1      -1.066  10.232  17.852  0.00  0.00    +0.000 A 
ATOM     13  C   UNL     1      -1.861   9.748  16.677  0.00  0.00    +0.000 C 
ATOM     14  C   UNL     1      -3.345  10.023  16.741  0.00  0.00    +0.000 C 
ENDROOT
BRANCH   1  16
ATOM     15  C   UNL     1      -7.757  13.218  17.879  0.00  0.00    +0.000 C 
ATOM     16  O   UNL     1      -7.204  12.073  18.512  0.00  0.00    +0.000 OA
ENDBRANCH   1  16
BRANCH   6  17
ATOM     17  O   UNL     1      -5.654  13.540  20.514  0.00  0.00    +0.000 OA
ATOM     18  H   UNL     1      -6.337  13.990  20.015  0.00  0.00    +0.000 HD
ENDBRANCH   6  17
BRANCH   8  19
ATOM     19  O   UNL     1      -0.546  13.310  19.534  0.00  0.00    +0.000 OA
ATOM     20  H   UNL     1      -1.114  13.660  18.821  0.00  0.00    +0.000 HD
ENDBRANCH   8  19
BRANCH   5  21
ATOM     21  O   UNL     1      -3.022  13.421  20.540  0.00  0.00    +0.000 OA
BRANCH  21  22
ATOM     22  C   UNL     1      -2.925  13.386  21.999  0.00  0.00    +0.000 C 
ATOM     23  O   UNL     1      -4.093  12.982  22.688  0.00  0.00    +0.000 OA
ATOM     24  C   UNL     1      -3.934  12.961  24.134  0.00  0.00    +0.000 C 
ATOM     25  C   UNL     1      -3.534  14.330  24.706  0.00  0.00    +0.000 C 
ATOM     26  C   UNL     1      -2.325  14.898  23.979  0.00  0.00    +0.000 C 
ATOM     27  C   UNL     1      -2.478  14.810  22.456  0.00  0.00    +0.000 C 
BRANCH  25  28
ATOM     28  O   UNL     1      -3.207  14.237  26.101  0.00  0.00    +0.000 OA
ATOM     29  H   UNL     1      -2.339  13.781  26.133  0.00  0.00    +0.000 HD
ENDBRANCH  25  28
BRANCH  26  30
ATOM     30  O   UNL     1      -2.162  16.261  24.421  0.00  0.00    +0.000 OA
ATOM     31  H   UNL     1      -1.249  16.536  24.209  0.00  0.00    +0.000 HD
ENDBRANCH  26  30
BRANCH  27  32
ATOM     32  O   UNL     1      -1.228  15.212  21.864  0.00  0.00    +0.000 OA
ATOM     33  H   UNL     1      -0.514  15.048  22.510  0.00  0.00    +0.000 HD
ENDBRANCH  27  32
BRANCH  24  34
ATOM     34  C   UNL     1      -5.312  12.564  24.673  0.00  0.00    +0.000 C 
BRANCH  34  35
ATOM     35  O   UNL     1      -6.160  12.253  23.562  0.00  0.00    +0.000 OA
ATOM     36  H   UNL     1      -5.563  11.820  22.915  0.00  0.00    +0.000 HD
ENDBRANCH  34  35
ENDBRANCH  24  34
ENDBRANCH  21  22
ENDBRANCH   5  21
TORSDOF 10
ENDMDL
