MODEL 1
REMARK VINA RESULT:      -8.2      0.000      0.000
REMARK  Name = 
REMARK  5 active torsions:
REMARK  status: ('A' for Active; 'I' for Inactive)
REMARK    1  A    between atoms: C_1  and  C_2
REMARK    2  A    between atoms: C_6  and  C_7
REMARK    3  A    between atoms: C_7  and  C_8
REMARK    4  A    between atoms: C_7  and  N_13
REMARK    5  A    between atoms: C_23  and  O_24
REMARK                            x       y       z     vdW  Elec       q    Type
REMARK                         _______ _______ _______ _____ _____    ______ ____
ROOT
ATOM      1  C   UNL     1       4.294   5.382  18.910  0.00  0.00    +0.000 C 
ENDROOT
BRANCH   1   2
ATOM      2  N   UNL     1       5.305   5.834  17.872  0.00  0.00    +0.000 NA
ATOM      3  C   UNL     1       6.289   4.731  17.664  0.00  0.00    +0.000 C 
ATOM      4  C   UNL     1       7.205   4.906  16.445  0.00  0.00    +0.000 C 
ATOM      5  C   UNL     1       6.395   5.100  15.171  0.00  0.00    +0.000 C 
ATOM      6  C   UNL     1       5.473   6.291  15.368  0.00  0.00    +0.000 C 
ATOM      7  C   UNL     1       4.583   6.086  16.588  0.00  0.00    +0.000 C 
ATOM      8  O   UNL     1       5.630   3.911  14.900  0.00  0.00    +0.000 OA
ATOM      9  C   UNL     1       5.763   3.696  13.497  0.00  0.00    +0.000 C 
ATOM     10  C   UNL     1       7.129   4.245  13.189  0.00  0.00    +0.000 C 
ATOM     11  O   UNL     1       7.259   5.371  14.057  0.00  0.00    +0.000 OA
ENDBRANCH   1   2
BRANCH   1  17
ATOM     12  C   UNL     1      -0.516  10.404  20.915  0.00  0.00    +0.000 C 
ATOM     13  C   UNL     1       0.438   9.372  20.451  0.00  0.00    +0.000 A 
ATOM     14  N   UNL     1       1.103   9.521  19.260  0.00  0.00    +0.000 NA
ATOM     15  C   UNL     1       1.814   8.433  19.241  0.00  0.00    +0.000 A 
ATOM     16  S   UNL     1       2.978   7.778  18.149  0.00  0.00    +0.000 S 
ATOM     17  C   UNL     1       3.212   6.395  19.277  0.00  0.00    +0.000 A 
ATOM     18  C   UNL     1       2.397   6.476  20.357  0.00  0.00    +0.000 A 
ATOM     19  N   UNL     1       1.620   7.644  20.338  0.00  0.00    +0.000 N 
ATOM     20  N   UNL     1       0.708   8.247  21.143  0.00  0.00    +0.000 NA
BRANCH  18  21
ATOM     21  O   UNL     1       2.341   5.571  21.392  0.00  0.00    +0.000 OA
ATOM     22  H   UNL     1       2.384   6.070  22.233  0.00  0.00    +0.000 HD
ENDBRANCH  18  21
ENDBRANCH   1  17
BRANCH   1  23
ATOM     23  C   UNL     1       3.641   4.042  18.557  0.00  0.00    +0.000 A 
ATOM     24  C   UNL     1       2.710   3.741  17.578  0.00  0.00    +0.000 A 
ATOM     25  C   UNL     1       2.368   2.356  17.562  0.00  0.00    +0.000 A 
ATOM     26  C   UNL     1       3.035   1.646  18.534  0.00  0.00    +0.000 A 
ATOM     27  S   UNL     1       4.063   2.639  19.464  0.00  0.00    +0.000 S 
ENDBRANCH   1  23
TORSDOF 4
ENDMDL
MODEL 2
REMARK VINA RESULT:      -7.8      1.108      1.150
REMARK  Name = 
REMARK  5 active torsions:
REMARK  status: ('A' for Active; 'I' for Inactive)
REMARK    1  A    between atoms: C_1  and  C_2
REMARK    2  A    between atoms: C_6  and  C_7
REMARK    3  A    between atoms: C_7  and  C_8
REMARK    4  A    between atoms: C_7  and  N_13
REMARK    5  A    between atoms: C_23  and  O_24
REMARK                            x       y       z     vdW  Elec       q    Type
REMARK                         _______ _______ _______ _____ _____    ______ ____
ROOT
ATOM      1  C   UNL     1       3.615   5.983  19.310  0.00  0.00    +0.000 C 
ENDROOT
BRANCH   1   2
ATOM      2  N   UNL     1       4.870   6.198  18.483  0.00  0.00    +0.000 NA
ATOM      3  C   UNL     1       5.598   4.897  18.387  0.00  0.00    +0.000 C 
ATOM      4  C   UNL     1       6.730   4.867  17.353  0.00  0.00    +0.000 C 
ATOM      5  C   UNL     1       6.224   5.260  15.972  0.00  0.00    +0.000 C 
ATOM      6  C   UNL     1       5.579   6.631  16.072  0.00  0.00    +0.000 C 
ATOM      7  C   UNL     1       4.464   6.626  17.110  0.00  0.00    +0.000 C 
ATOM      8  O   UNL     1       5.269   4.286  15.513  0.00  0.00    +0.000 OA
ATOM      9  C   UNL     1       5.596   4.062  14.143  0.00  0.00    +0.000 C 
ATOM     10  C   UNL     1       7.083   4.280  14.101  0.00  0.00    +0.000 C 
ATOM     11  O   UNL     1       7.311   5.334  15.037  0.00  0.00    +0.000 OA
ENDBRANCH   1   2
BRANCH   1  17
ATOM     12  C   UNL     1      -0.784  11.723  19.573  0.00  0.00    +0.000 C 
ATOM     13  C   UNL     1       0.085  10.530  19.469  0.00  0.00    +0.000 A 
ATOM     14  N   UNL     1       0.767  10.263  18.308  0.00  0.00    +0.000 NA
ATOM     15  C   UNL     1       1.388   9.170  18.637  0.00  0.00    +0.000 A 
ATOM     16  S   UNL     1       2.501   8.130  17.827  0.00  0.00    +0.000 S 
ATOM     17  C   UNL     1       2.617   7.138  19.324  0.00  0.00    +0.000 A 
ATOM     18  C   UNL     1       1.805   7.602  20.305  0.00  0.00    +0.000 A 
ATOM     19  N   UNL     1       1.125   8.765  19.914  0.00  0.00    +0.000 N 
ATOM     20  N   UNL     1       0.260   9.649  20.474  0.00  0.00    +0.000 NA
BRANCH  18  21
ATOM     21  O   UNL     1       1.671   7.057  21.562  0.00  0.00    +0.000 OA
ATOM     22  H   UNL     1       1.545   7.791  22.198  0.00  0.00    +0.000 HD
ENDBRANCH  18  21
ENDBRANCH   1  17
BRANCH   1  23
ATOM     23  C   UNL     1       2.888   4.682  18.955  0.00  0.00    +0.000 A 
ATOM     24  C   UNL     1       2.172   4.349  17.818  0.00  0.00    +0.000 A 
ATOM     25  C   UNL     1       1.663   3.018  17.868  0.00  0.00    +0.000 A 
ATOM     26  C   UNL     1       1.990   2.381  19.043  0.00  0.00    +0.000 A 
ATOM     27  S   UNL     1       2.902   3.379  20.082  0.00  0.00    +0.000 S 
ENDBRANCH   1  23
TORSDOF 4
ENDMDL
MODEL 3
REMARK VINA RESULT:      -7.5      2.074      2.663
REMARK  Name = 
REMARK  5 active torsions:
REMARK  status: ('A' for Active; 'I' for Inactive)
REMARK    1  A    between atoms: C_1  and  C_2
REMARK    2  A    between atoms: C_6  and  C_7
REMARK    3  A    between atoms: C_7  and  C_8
REMARK    4  A    between atoms: C_7  and  N_13
REMARK    5  A    between atoms: C_23  and  O_24
REMARK                            x       y       z     vdW  Elec       q    Type
REMARK                         _______ _______ _______ _____ _____    ______ ____
ROOT
ATOM      1  C   UNL     1       2.822   6.324  19.246  0.00  0.00    +0.000 C 
ENDROOT
BRANCH   1   2
ATOM      2  N   UNL     1       3.166   6.116  17.782  0.00  0.00    +0.000 NA
ATOM      3  C   UNL     1       4.295   7.029  17.431  0.00  0.00    +0.000 C 
ATOM      4  C   UNL     1       4.956   6.744  16.076  0.00  0.00    +0.000 C 
ATOM      5  C   UNL     1       5.434   5.302  15.989  0.00  0.00    +0.000 C 
ATOM      6  C   UNL     1       4.249   4.389  16.249  0.00  0.00    +0.000 C 
ATOM      7  C   UNL     1       3.614   4.702  17.599  0.00  0.00    +0.000 C 
ATOM      8  O   UNL     1       6.466   5.077  16.967  0.00  0.00    +0.000 OA
ATOM      9  C   UNL     1       7.460   4.311  16.288  0.00  0.00    +0.000 C 
ATOM     10  C   UNL     1       7.348   4.781  14.864  0.00  0.00    +0.000 C 
ATOM     11  O   UNL     1       5.951   5.017  14.681  0.00  0.00    +0.000 OA
ENDBRANCH   1   2
BRANCH   1  17
ATOM     12  C   UNL     1      -1.356  12.067  20.636  0.00  0.00    +0.000 C 
ATOM     13  C   UNL     1      -0.466  10.909  20.399  0.00  0.00    +0.000 A 
ATOM     14  N   UNL     1      -0.188  10.024  21.411  0.00  0.00    +0.000 NA
ATOM     15  C   UNL     1       0.598   9.191  20.795  0.00  0.00    +0.000 A 
ATOM     16  S   UNL     1       1.410   7.741  21.258  0.00  0.00    +0.000 S 
ATOM     17  C   UNL     1       2.021   7.582  19.573  0.00  0.00    +0.000 A 
ATOM     18  C   UNL     1       1.631   8.618  18.790  0.00  0.00    +0.000 A 
ATOM     19  N   UNL     1       0.809   9.516  19.486  0.00  0.00    +0.000 N 
ATOM     20  N   UNL     1       0.119  10.653  19.212  0.00  0.00    +0.000 NA
BRANCH  18  21
ATOM     21  O   UNL     1       1.940   8.781  17.459  0.00  0.00    +0.000 OA
ATOM     22  H   UNL     1       1.167   9.188  17.017  0.00  0.00    +0.000 HD
ENDBRANCH  18  21
ENDBRANCH   1  17
BRANCH   1  23
ATOM     23  C   UNL     1       2.139   5.104  19.873  0.00  0.00    +0.000 A 
ATOM     24  C   UNL     1       0.938   4.497  19.547  0.00  0.00    +0.000 A 
ATOM     25  C   UNL     1       0.665   3.363  20.367  0.00  0.00    +0.000 A 
ATOM     26  C   UNL     1       1.652   3.146  21.300  0.00  0.00    +0.000 A 
ATOM     27  S   UNL     1       2.900   4.303  21.194  0.00  0.00    +0.000 S 
ENDBRANCH   1  23
TORSDOF 4
ENDMDL
MODEL 4
REMARK VINA RESULT:      -7.4      1.875      2.244
REMARK  Name = 
REMARK  5 active torsions:
REMARK  status: ('A' for Active; 'I' for Inactive)
REMARK    1  A    between atoms: C_1  and  C_2
REMARK    2  A    between atoms: C_6  and  C_7
REMARK    3  A    between atoms: C_7  and  C_8
REMARK    4  A    between atoms: C_7  and  N_13
REMARK    5  A    between atoms: C_23  and  O_24
REMARK                            x       y       z     vdW  Elec       q    Type
REMARK                         _______ _______ _______ _____ _____    ______ ____
ROOT
ATOM      1  C   UNL     1       3.121   6.490  19.517  0.00  0.00    +0.000 C 
ENDROOT
BRANCH   1   2
ATOM      2  N   UNL     1       4.416   6.697  18.752  0.00  0.00    +0.000 NA
ATOM      3  C   UNL     1       5.250   5.468  18.901  0.00  0.00    +0.000 C 
ATOM      4  C   UNL     1       6.460   5.392  17.959  0.00  0.00    +0.000 C 
ATOM      5  C   UNL     1       6.034   5.534  16.505  0.00  0.00    +0.000 C 
ATOM      6  C   UNL     1       5.275   6.841  16.355  0.00  0.00    +0.000 C 
ATOM      7  C   UNL     1       4.085   6.884  17.307  0.00  0.00    +0.000 C 
ATOM      8  O   UNL     1       5.199   4.422  16.136  0.00  0.00    +0.000 OA
ATOM      9  C   UNL     1       5.649   4.033  14.840  0.00  0.00    +0.000 C 
ATOM     10  C   UNL     1       7.113   4.377  14.863  0.00  0.00    +0.000 C 
ATOM     11  O   UNL     1       7.181   5.571  15.643  0.00  0.00    +0.000 OA
ENDBRANCH   1   2
BRANCH   1  17
ATOM     12  C   UNL     1      -1.662  11.919  19.655  0.00  0.00    +0.000 C 
ATOM     13  C   UNL     1      -0.656  10.834  19.676  0.00  0.00    +0.000 A 
ATOM     14  N   UNL     1      -0.444  10.101  20.817  0.00  0.00    +0.000 NA
ATOM     15  C   UNL     1       0.482   9.284  20.412  0.00  0.00    +0.000 A 
ATOM     16  S   UNL     1       1.342   7.982  21.148  0.00  0.00    +0.000 S 
ATOM     17  C   UNL     1       2.183   7.693  19.584  0.00  0.00    +0.000 A 
ATOM     18  C   UNL     1       1.816   8.590  18.636  0.00  0.00    +0.000 A 
ATOM     19  N   UNL     1       0.838   9.477  19.108  0.00  0.00    +0.000 N 
ATOM     20  N   UNL     1       0.101  10.503  18.610  0.00  0.00    +0.000 NA
BRANCH  18  21
ATOM     21  O   UNL     1       2.286   8.630  17.343  0.00  0.00    +0.000 OA
ATOM     22  H   UNL     1       3.020   7.986  17.267  0.00  0.00    +0.000 HD
ENDBRANCH  18  21
ENDBRANCH   1  17
BRANCH   1  23
ATOM     23  C   UNL     1       2.342   5.259  19.041  0.00  0.00    +0.000 A 
ATOM     24  C   UNL     1       1.911   4.921  17.770  0.00  0.00    +0.000 A 
ATOM     25  C   UNL     1       1.230   3.668  17.744  0.00  0.00    +0.000 A 
ATOM     26  C   UNL     1       1.148   3.096  18.993  0.00  0.00    +0.000 A 
ATOM     27  S   UNL     1       1.883   4.062  20.191  0.00  0.00    +0.000 S 
ENDBRANCH   1  23
TORSDOF 4
ENDMDL
MODEL 5
REMARK VINA RESULT:      -7.2      1.865      2.351
REMARK  Name = 
REMARK  5 active torsions:
REMARK  status: ('A' for Active; 'I' for Inactive)
REMARK    1  A    between atoms: C_1  and  C_2
REMARK    2  A    between atoms: C_6  and  C_7
REMARK    3  A    between atoms: C_7  and  C_8
REMARK    4  A    between atoms: C_7  and  N_13
REMARK    5  A    between atoms: C_23  and  O_24
REMARK                            x       y       z     vdW  Elec       q    Type
REMARK                         _______ _______ _______ _____ _____    ______ ____
ROOT
ATOM      1  C   UNL     1       2.808   6.405  19.160  0.00  0.00    +0.000 C 
ENDROOT
BRANCH   1   2
ATOM      2  N   UNL     1       3.174   6.141  17.710  0.00  0.00    +0.000 NA
ATOM      3  C   UNL     1       4.285   7.064  17.331  0.00  0.00    +0.000 C 
ATOM      4  C   UNL     1       4.968   6.737  15.997  0.00  0.00    +0.000 C 
ATOM      5  C   UNL     1       5.482   5.304  15.980  0.00  0.00    +0.000 C 
ATOM      6  C   UNL     1       4.315   4.375  16.267  0.00  0.00    +0.000 C 
ATOM      7  C   UNL     1       3.657   4.732  17.595  0.00  0.00    +0.000 C 
ATOM      8  O   UNL     1       6.507   5.147  16.978  0.00  0.00    +0.000 OA
ATOM      9  C   UNL     1       7.526   4.376  16.344  0.00  0.00    +0.000 C 
ATOM     10  C   UNL     1       7.420   4.780  14.899  0.00  0.00    +0.000 C 
ATOM     11  O   UNL     1       6.021   4.974  14.691  0.00  0.00    +0.000 OA
ENDBRANCH   1   2
BRANCH   1  17
ATOM     12  C   UNL     1      -0.720  12.581  20.496  0.00  0.00    +0.000 C 
ATOM     13  C   UNL     1      -0.044  11.302  20.183  0.00  0.00    +0.000 A 
ATOM     14  N   UNL     1       0.252  10.969  18.885  0.00  0.00    +0.000 NA
ATOM     15  C   UNL     1       0.824   9.814  19.055  0.00  0.00    +0.000 A 
ATOM     16  S   UNL     1       1.550   8.665  17.993  0.00  0.00    +0.000 S 
ATOM     17  C   UNL     1       1.979   7.660  19.423  0.00  0.00    +0.000 A 
ATOM     18  C   UNL     1       1.529   8.204  20.580  0.00  0.00    +0.000 A 
ATOM     19  N   UNL     1       0.891   9.434  20.365  0.00  0.00    +0.000 N 
ATOM     20  N   UNL     1       0.315  10.403  21.122  0.00  0.00    +0.000 NA
BRANCH  18  21
ATOM     21  O   UNL     1       1.698   7.672  21.838  0.00  0.00    +0.000 OA
ATOM     22  H   UNL     1       1.205   6.826  21.877  0.00  0.00    +0.000 HD
ENDBRANCH  18  21
ENDBRANCH   1  17
BRANCH   1  23
ATOM     23  C   UNL     1       2.140   5.200  19.831  0.00  0.00    +0.000 A 
ATOM     24  C   UNL     1       0.937   4.580  19.541  0.00  0.00    +0.000 A 
ATOM     25  C   UNL     1       0.682   3.467  20.396  0.00  0.00    +0.000 A 
ATOM     26  C   UNL     1       1.686   3.280  21.318  0.00  0.00    +0.000 A 
ATOM     27  S   UNL     1       2.927   4.439  21.161  0.00  0.00    +0.000 S 
ENDBRANCH   1  23
TORSDOF 4
ENDMDL
MODEL 6
REMARK VINA RESULT:      -7.1      5.565      8.800
REMARK  Name = 
REMARK  5 active torsions:
REMARK  status: ('A' for Active; 'I' for Inactive)
REMARK    1  A    between atoms: C_1  and  C_2
REMARK    2  A    between atoms: C_6  and  C_7
REMARK    3  A    between atoms: C_7  and  C_8
REMARK    4  A    between atoms: C_7  and  N_13
REMARK    5  A    between atoms: C_23  and  O_24
REMARK                            x       y       z     vdW  Elec       q    Type
REMARK                         _______ _______ _______ _____ _____    ______ ____
ROOT
ATOM      1  C   UNL     1       0.518  10.873  18.668  0.00  0.00    +0.000 C 
ENDROOT
BRANCH   1   2
ATOM      2  N   UNL     1      -0.923  10.718  19.120  0.00  0.00    +0.000 NA
ATOM      3  C   UNL     1      -1.564  12.067  19.116  0.00  0.00    +0.000 C 
ATOM      4  C   UNL     1      -3.090  12.056  19.268  0.00  0.00    +0.000 C 
ATOM      5  C   UNL     1      -3.743  11.189  18.201  0.00  0.00    +0.000 C 
ATOM      6  C   UNL     1      -3.150   9.794  18.291  0.00  0.00    +0.000 C 
ATOM      7  C   UNL     1      -1.634   9.843  18.141  0.00  0.00    +0.000 C 
ATOM      8  O   UNL     1      -3.498  11.757  16.901  0.00  0.00    +0.000 OA
ATOM      9  C   UNL     1      -4.741  11.654  16.211  0.00  0.00    +0.000 C 
ATOM     10  C   UNL     1      -5.761  11.768  17.311  0.00  0.00    +0.000 C 
ATOM     11  O   UNL     1      -5.159  11.098  18.419  0.00  0.00    +0.000 OA
ENDBRANCH   1   2
BRANCH   1  17
ATOM     12  C   UNL     1       4.639  15.794  22.010  0.00  0.00    +0.000 C 
ATOM     13  C   UNL     1       3.776  14.833  21.289  0.00  0.00    +0.000 A 
ATOM     14  N   UNL     1       3.866  14.699  19.926  0.00  0.00    +0.000 NA
ATOM     15  C   UNL     1       2.971  13.782  19.711  0.00  0.00    +0.000 A 
ATOM     16  S   UNL     1       2.412  12.954  18.305  0.00  0.00    +0.000 S 
ATOM     17  C   UNL     1       1.319  11.979  19.350  0.00  0.00    +0.000 A 
ATOM     18  C   UNL     1       1.398  12.348  20.653  0.00  0.00    +0.000 A 
ATOM     19  N   UNL     1       2.351  13.358  20.851  0.00  0.00    +0.000 N 
ATOM     20  N   UNL     1       2.866  14.049  21.901  0.00  0.00    +0.000 NA
BRANCH  18  21
ATOM     21  O   UNL     1       0.686  11.792  21.690  0.00  0.00    +0.000 OA
ATOM     22  H   UNL     1       0.191  11.023  21.339  0.00  0.00    +0.000 HD
ENDBRANCH  18  21
ENDBRANCH   1  17
BRANCH   1  23
ATOM     23  C   UNL     1       1.303   9.559  18.731  0.00  0.00    +0.000 A 
ATOM     24  C   UNL     1       2.065   8.934  17.759  0.00  0.00    +0.000 A 
ATOM     25  C   UNL     1       2.655   7.723  18.228  0.00  0.00    +0.000 A 
ATOM     26  C   UNL     1       2.316   7.452  19.534  0.00  0.00    +0.000 A 
ATOM     27  S   UNL     1       1.290   8.645  20.191  0.00  0.00    +0.000 S 
ENDBRANCH   1  23
TORSDOF 4
ENDMDL
MODEL 7
REMARK VINA RESULT:      -7.1      4.276      9.575
REMARK  Name = 
REMARK  5 active torsions:
REMARK  status: ('A' for Active; 'I' for Inactive)
REMARK    1  A    between atoms: C_1  and  C_2
REMARK    2  A    between atoms: C_6  and  C_7
REMARK    3  A    between atoms: C_7  and  C_8
REMARK    4  A    between atoms: C_7  and  N_13
REMARK    5  A    between atoms: C_23  and  O_24
REMARK                            x       y       z     vdW  Elec       q    Type
REMARK                         _______ _______ _______ _____ _____    ______ ____
ROOT
ATOM      1  C   UNL     1       0.669  10.870  19.513  0.00  0.00    +0.000 C 
ENDROOT
BRANCH   1   2
ATOM      2  N   UNL     1       0.559  11.486  20.897  0.00  0.00    +0.000 NA
ATOM      3  C   UNL     1       0.757  12.961  20.770  0.00  0.00    +0.000 C 
ATOM      4  C   UNL     1       0.393  13.770  22.022  0.00  0.00    +0.000 C 
ATOM      5  C   UNL     1      -1.038  13.492  22.460  0.00  0.00    +0.000 C 
ATOM      6  C   UNL     1      -1.189  11.998  22.682  0.00  0.00    +0.000 C 
ATOM      7  C   UNL     1      -0.815  11.227  21.421  0.00  0.00    +0.000 C 
ATOM      8  O   UNL     1      -1.949  13.945  21.441  0.00  0.00    +0.000 OA
ATOM      9  C   UNL     1      -3.004  14.594  22.149  0.00  0.00    +0.000 C 
ATOM     10  C   UNL     1      -2.315  15.151  23.365  0.00  0.00    +0.000 C 
ATOM     11  O   UNL     1      -1.331  14.169  23.692  0.00  0.00    +0.000 OA
ENDBRANCH   1   2
BRANCH   1  17
ATOM     12  C   UNL     1       3.368   4.169  19.085  0.00  0.00    +0.000 C 
ATOM     13  C   UNL     1       2.871   5.561  19.153  0.00  0.00    +0.000 A 
ATOM     14  N   UNL     1       2.953   6.386  18.059  0.00  0.00    +0.000 NA
ATOM     15  C   UNL     1       2.420   7.472  18.534  0.00  0.00    +0.000 A 
ATOM     16  S   UNL     1       2.069   9.027  17.873  0.00  0.00    +0.000 S 
ATOM     17  C   UNL     1       1.328   9.494  19.444  0.00  0.00    +0.000 A 
ATOM     18  C   UNL     1       1.421   8.504  20.365  0.00  0.00    +0.000 A 
ATOM     19  N   UNL     1       2.025   7.354  19.835  0.00  0.00    +0.000 N 
ATOM     20  N   UNL     1       2.324   6.100  20.261  0.00  0.00    +0.000 NA
BRANCH  18  21
ATOM     21  O   UNL     1       0.950   8.561  21.657  0.00  0.00    +0.000 OA
ATOM     22  H   UNL     1       1.050   9.481  21.975  0.00  0.00    +0.000 HD
ENDBRANCH  18  21
ENDBRANCH   1  17
BRANCH   1  23
ATOM     23  C   UNL     1      -0.672  10.834  18.773  0.00  0.00    +0.000 A 
ATOM     24  C   UNL     1      -1.518   9.767  18.525  0.00  0.00    +0.000 A 
ATOM     25  C   UNL     1      -2.690  10.159  17.813  0.00  0.00    +0.000 A 
ATOM     26  C   UNL     1      -2.698  11.504  17.527  0.00  0.00    +0.000 A 
ATOM     27  S   UNL     1      -1.301  12.292  18.107  0.00  0.00    +0.000 S 
ENDBRANCH   1  23
TORSDOF 4
ENDMDL
MODEL 8
REMARK VINA RESULT:      -7.1      8.900     11.634
REMARK  Name = 
REMARK  5 active torsions:
REMARK  status: ('A' for Active; 'I' for Inactive)
REMARK    1  A    between atoms: C_1  and  C_2
REMARK    2  A    between atoms: C_6  and  C_7
REMARK    3  A    between atoms: C_7  and  C_8
REMARK    4  A    between atoms: C_7  and  N_13
REMARK    5  A    between atoms: C_23  and  O_24
REMARK                            x       y       z     vdW  Elec       q    Type
REMARK                         _______ _______ _______ _____ _____    ______ ____
ROOT
ATOM      1  C   UNL     1      -1.557  11.971  20.157  0.00  0.00    +0.000 C 
ENDROOT
BRANCH   1   2
ATOM      2  N   UNL     1      -2.558  12.555  21.137  0.00  0.00    +0.000 NA
ATOM      3  C   UNL     1      -2.307  11.952  22.480  0.00  0.00    +0.000 C 
ATOM      4  C   UNL     1      -3.035  12.641  23.642  0.00  0.00    +0.000 C 
ATOM      5  C   UNL     1      -2.708  14.126  23.692  0.00  0.00    +0.000 C 
ATOM      6  C   UNL     1      -3.067  14.740  22.350  0.00  0.00    +0.000 C 
ATOM      7  C   UNL     1      -2.331  14.030  21.220  0.00  0.00    +0.000 C 
ATOM      8  O   UNL     1      -1.307  14.303  23.968  0.00  0.00    +0.000 OA
ATOM      9  C   UNL     1      -1.247  15.360  24.923  0.00  0.00    +0.000 C 
ATOM     10  C   UNL     1      -2.530  15.207  25.692  0.00  0.00    +0.000 C 
ATOM     11  O   UNL     1      -3.478  14.780  24.713  0.00  0.00    +0.000 OA
ENDBRANCH   1   2
BRANCH   1  17
ATOM     12  C   UNL     1      -4.118   9.878  13.720  0.00  0.00    +0.000 C 
ATOM     13  C   UNL     1      -3.588  10.246  15.052  0.00  0.00    +0.000 A 
ATOM     14  N   UNL     1      -2.384   9.750  15.485  0.00  0.00    +0.000 NA
ATOM     15  C   UNL     1      -2.300  10.308  16.657  0.00  0.00    +0.000 A 
ATOM     16  S   UNL     1      -1.116  10.293  17.912  0.00  0.00    +0.000 S 
ATOM     17  C   UNL     1      -2.134  11.448  18.843  0.00  0.00    +0.000 A 
ATOM     18  C   UNL     1      -3.292  11.739  18.200  0.00  0.00    +0.000 A 
ATOM     19  N   UNL     1      -3.370  11.102  16.953  0.00  0.00    +0.000 N 
ATOM     20  N   UNL     1      -4.234  11.065  15.906  0.00  0.00    +0.000 NA
BRANCH  18  21
ATOM     21  O   UNL     1      -4.274  12.586  18.658  0.00  0.00    +0.000 OA
ATOM     22  H   UNL     1      -4.290  12.531  19.636  0.00  0.00    +0.000 HD
ENDBRANCH  18  21
ENDBRANCH   1  17
BRANCH   1  23
ATOM     23  C   UNL     1      -0.392  12.921  19.862  0.00  0.00    +0.000 A 
ATOM     24  C   UNL     1      -0.279  13.914  18.905  0.00  0.00    +0.000 A 
ATOM     25  C   UNL     1       0.973  14.594  18.973  0.00  0.00    +0.000 A 
ATOM     26  C   UNL     1       1.782  14.093  19.967  0.00  0.00    +0.000 A 
ATOM     27  S   UNL     1       1.041  12.809  20.811  0.00  0.00    +0.000 S 
ENDBRANCH   1  23
TORSDOF 4
ENDMDL
MODEL 9
REMARK VINA RESULT:      -7.0      2.472      7.048
REMARK  Name = 
REMARK  5 active torsions:
REMARK  status: ('A' for Active; 'I' for Inactive)
REMARK    1  A    between atoms: C_1  and  C_2
REMARK    2  A    between atoms: C_6  and  C_7
REMARK    3  A    between atoms: C_7  and  C_8
REMARK    4  A    between atoms: C_7  and  N_13
REMARK    5  A    between atoms: C_23  and  O_24
REMARK                            x       y       z     vdW  Elec       q    Type
REMARK                         _______ _______ _______ _____ _____    ______ ____
ROOT
ATOM      1  C   UNL     1       2.319   5.966  18.668  0.00  0.00    +0.000 C 
ENDROOT
BRANCH   1   2
ATOM      2  N   UNL     1       2.466   7.331  19.317  0.00  0.00    +0.000 NA
ATOM      3  C   UNL     1       2.179   8.373  18.287  0.00  0.00    +0.000 C 
ATOM      4  C   UNL     1       2.000   9.793  18.840  0.00  0.00    +0.000 C 
ATOM      5  C   UNL     1       0.917   9.835  19.908  0.00  0.00    +0.000 C 
ATOM      6  C   UNL     1       1.281   8.841  20.997  0.00  0.00    +0.000 C 
ATOM      7  C   UNL     1       1.455   7.444  20.412  0.00  0.00    +0.000 C 
ATOM      8  O   UNL     1      -0.353   9.497  19.321  0.00  0.00    +0.000 OA
ATOM      9  C   UNL     1      -1.279  10.426  19.879  0.00  0.00    +0.000 C 
ATOM     10  C   UNL     1      -0.443  11.655  20.110  0.00  0.00    +0.000 C 
ATOM     11  O   UNL     1       0.834  11.143  20.495  0.00  0.00    +0.000 OA
ENDBRANCH   1   2
BRANCH   1  17
ATOM     12  C   UNL     1       7.213   4.264  13.616  0.00  0.00    +0.000 C 
ATOM     13  C   UNL     1       6.258   4.623  14.688  0.00  0.00    +0.000 A 
ATOM     14  N   UNL     1       6.355   5.832  15.332  0.00  0.00    +0.000 NA
ATOM     15  C   UNL     1       5.360   5.744  16.164  0.00  0.00    +0.000 A 
ATOM     16  S   UNL     1       4.688   6.801  17.350  0.00  0.00    +0.000 S 
ATOM     17  C   UNL     1       3.411   5.576  17.675  0.00  0.00    +0.000 A 
ATOM     18  C   UNL     1       3.579   4.456  16.929  0.00  0.00    +0.000 A 
ATOM     19  N   UNL     1       4.675   4.567  16.062  0.00  0.00    +0.000 N 
ATOM     20  N   UNL     1       5.262   3.813  15.097  0.00  0.00    +0.000 NA
BRANCH  18  21
ATOM     21  O   UNL     1       2.768   3.345  16.955  0.00  0.00    +0.000 OA
ATOM     22  H   UNL     1       2.762   2.955  16.056  0.00  0.00    +0.000 HD
ENDBRANCH  18  21
ENDBRANCH   1  17
BRANCH   1  23
ATOM     23  C   UNL     1       2.132   4.841  19.692  0.00  0.00    +0.000 A 
ATOM     24  C   UNL     1       0.974   4.209  20.111  0.00  0.00    +0.000 A 
ATOM     25  C   UNL     1       1.233   3.188  21.074  0.00  0.00    +0.000 A 
ATOM     26  C   UNL     1       2.572   3.081  21.370  0.00  0.00    +0.000 A 
ATOM     27  S   UNL     1       3.514   4.204  20.499  0.00  0.00    +0.000 S 
ENDBRANCH   1  23
TORSDOF 4
ENDMDL
