MODEL 1
REMARK VINA RESULT:      -7.7      0.000      0.000
REMARK  Name = 
REMARK  9 active torsions:
REMARK  status: ('A' for Active; 'I' for Inactive)
REMARK    1  A    between atoms: C_2  and  C_22
REMARK    2  A    between atoms: N_3  and  C_4
REMARK    3  A    between atoms: C_4  and  C_5
REMARK    4  A    between atoms: C_5  and  N_6
REMARK    5  A    between atoms: C_5  and  C_16
REMARK    6  A    between atoms: N_6  and  S_7
REMARK    7  A    between atoms: S_7  and  O_10
REMARK    8  A    between atoms: O_10  and  C_11
REMARK    9  A    between atoms: C_11  and  C_12
REMARK                            x       y       z     vdW  Elec       q    Type
REMARK                         _______ _______ _______ _____ _____    ______ ____
ROOT
ATOM      1  C   UNL     1       4.202   4.710  16.895  0.00  0.00    +0.000 C 
ENDROOT
BRANCH   1   2
ATOM      2  C   UNL     1       3.146   3.799  17.557  0.00  0.00    +0.000 A 
ATOM      3  C   UNL     1       1.840   4.274  17.782  0.00  0.00    +0.000 A 
ATOM      4  C   UNL     1       0.888   3.507  18.451  0.00  0.00    +0.000 A 
ATOM      5  C   UNL     1       1.206   2.220  18.867  0.00  0.00    +0.000 A 
ATOM      6  C   UNL     1       2.468   1.701  18.604  0.00  0.00    +0.000 A 
ATOM      7  C   UNL     1       3.426   2.481  17.951  0.00  0.00    +0.000 A 
ENDBRANCH   1   2
BRANCH   1   8
ATOM      8  N   UNL     1       5.453   3.941  16.561  0.00  0.00    +0.000 NA
ATOM      9  H   UNL     1       5.185   3.029  16.213  0.00  0.00    +0.000 HD
BRANCH   8  10
ATOM     10  S   UNL     1       6.467   4.633  15.390  0.00  0.00    +0.000 S 
ATOM     11  O   UNL     1       5.783   5.825  14.940  0.00  0.00    +0.000 OA
ATOM     12  O   UNL     1       7.804   4.663  15.907  0.00  0.00    +0.000 OA
BRANCH  10  13
ATOM     13  O   UNL     1       6.435   3.546  14.188  0.00  0.00    +0.000 OA
BRANCH  13  14
ATOM     14  C   UNL     1       5.267   3.444  13.381  0.00  0.00    +0.000 C 
BRANCH  14  15
ATOM     15  C   UNL     1       5.548   3.206  11.880  0.00  0.00    +0.000 C 
ATOM     16 CL   UNL     1       5.885   1.500  11.464  0.00  0.00    +0.000 Cl
ATOM     17 CL   UNL     1       4.120   3.743  10.917  0.00  0.00    +0.000 Cl
ATOM     18 CL   UNL     1       6.950   4.203  11.359  0.00  0.00    +0.000 Cl
ENDBRANCH  14  15
ENDBRANCH  13  14
ENDBRANCH  10  13
ENDBRANCH   8  10
ENDBRANCH   1   8
BRANCH   1  19
ATOM     19  C   UNL     1       4.508   5.951  17.776  0.00  0.00    +0.000 C 
BRANCH  19  22
ATOM     20  O   UNL     1       5.788   4.564  19.796  0.00  0.00    +0.000 OA
ATOM     21  C   UNL     1       6.466   5.380  19.165  0.00  0.00    +0.000 C 
ATOM     22  N   UNL     1       5.915   6.110  18.119  0.00  0.00    +0.000 N 
ATOM     23  H   UNL     1       6.545   6.559  17.458  0.00  0.00    +0.000 HD
BRANCH  21  24
ATOM     24  C   UNL     1       7.958   5.650  19.457  0.00  0.00    +0.000 C 
ATOM     25  F   UNL     1       8.360   6.876  19.009  0.00  0.00    +0.000 F 
ATOM     26  F   UNL     1       8.249   5.611  20.786  0.00  0.00    +0.000 F 
ATOM     27  F   UNL     1       8.775   4.743  18.852  0.00  0.00    +0.000 F 
ENDBRANCH  21  24
ENDBRANCH  19  22
ENDBRANCH   1  19
TORSDOF 9
ENDMDL
MODEL 2
REMARK VINA RESULT:      -7.5      0.304      1.292
REMARK  Name = 
REMARK  9 active torsions:
REMARK  status: ('A' for Active; 'I' for Inactive)
REMARK    1  A    between atoms: C_2  and  C_22
REMARK    2  A    between atoms: N_3  and  C_4
REMARK    3  A    between atoms: C_4  and  C_5
REMARK    4  A    between atoms: C_5  and  N_6
REMARK    5  A    between atoms: C_5  and  C_16
REMARK    6  A    between atoms: N_6  and  S_7
REMARK    7  A    between atoms: S_7  and  O_10
REMARK    8  A    between atoms: O_10  and  C_11
REMARK    9  A    between atoms: C_11  and  C_12
REMARK                            x       y       z     vdW  Elec       q    Type
REMARK                         _______ _______ _______ _____ _____    ______ ____
ROOT
ATOM      1  C   UNL     1       4.126   4.886  16.918  0.00  0.00    +0.000 C 
ENDROOT
BRANCH   1   2
ATOM      2  C   UNL     1       3.071   4.022  17.641  0.00  0.00    +0.000 A 
ATOM      3  C   UNL     1       2.066   4.631  18.416  0.00  0.00    +0.000 A 
ATOM      4  C   UNL     1       1.150   3.877  19.148  0.00  0.00    +0.000 A 
ATOM      5  C   UNL     1       1.186   2.490  19.081  0.00  0.00    +0.000 A 
ATOM      6  C   UNL     1       2.128   1.861  18.275  0.00  0.00    +0.000 A 
ATOM      7  C   UNL     1       3.059   2.620  17.559  0.00  0.00    +0.000 A 
ENDBRANCH   1   2
BRANCH   1   8
ATOM      8  N   UNL     1       5.335   4.071  16.542  0.00  0.00    +0.000 NA
ATOM      9  H   UNL     1       5.020   3.178  16.184  0.00  0.00    +0.000 HD
BRANCH   8  10
ATOM     10  S   UNL     1       6.354   4.740  15.362  0.00  0.00    +0.000 S 
ATOM     11  O   UNL     1       5.653   5.901  14.859  0.00  0.00    +0.000 OA
ATOM     12  O   UNL     1       7.681   4.816  15.897  0.00  0.00    +0.000 OA
BRANCH  10  13
ATOM     13  O   UNL     1       6.362   3.610  14.201  0.00  0.00    +0.000 OA
BRANCH  13  14
ATOM     14  C   UNL     1       5.193   3.424  13.410  0.00  0.00    +0.000 C 
BRANCH  14  15
ATOM     15  C   UNL     1       5.465   3.268  11.896  0.00  0.00    +0.000 C 
ATOM     16 CL   UNL     1       4.106   3.782  10.855  0.00  0.00    +0.000 Cl
ATOM     17 CL   UNL     1       6.912   4.247  11.449  0.00  0.00    +0.000 Cl
ATOM     18 CL   UNL     1       5.845   1.551  11.522  0.00  0.00    +0.000 Cl
ENDBRANCH  14  15
ENDBRANCH  13  14
ENDBRANCH  10  13
ENDBRANCH   8  10
ENDBRANCH   1   8
BRANCH   1  19
ATOM     19  C   UNL     1       4.512   6.130  17.763  0.00  0.00    +0.000 C 
BRANCH  19  22
ATOM     20  O   UNL     1       5.734   4.691  19.782  0.00  0.00    +0.000 OA
ATOM     21  C   UNL     1       6.449   5.464  19.139  0.00  0.00    +0.000 C 
ATOM     22  N   UNL     1       5.928   6.215  18.092  0.00  0.00    +0.000 N 
ATOM     23  H   UNL     1       6.576   6.625  17.421  0.00  0.00    +0.000 HD
BRANCH  21  24
ATOM     24  C   UNL     1       7.956   5.655  19.416  0.00  0.00    +0.000 C 
ATOM     25  F   UNL     1       8.721   4.715  18.785  0.00  0.00    +0.000 F 
ATOM     26  F   UNL     1       8.418   6.867  19.004  0.00  0.00    +0.000 F 
ATOM     27  F   UNL     1       8.255   5.552  20.741  0.00  0.00    +0.000 F 
ENDBRANCH  21  24
ENDBRANCH  19  22
ENDBRANCH   1  19
TORSDOF 9
ENDMDL
MODEL 3
REMARK VINA RESULT:      -7.5      4.177      5.100
REMARK  Name = 
REMARK  9 active torsions:
REMARK  status: ('A' for Active; 'I' for Inactive)
REMARK    1  A    between atoms: C_2  and  C_22
REMARK    2  A    between atoms: N_3  and  C_4
REMARK    3  A    between atoms: C_4  and  C_5
REMARK    4  A    between atoms: C_5  and  N_6
REMARK    5  A    between atoms: C_5  and  C_16
REMARK    6  A    between atoms: N_6  and  S_7
REMARK    7  A    between atoms: S_7  and  O_10
REMARK    8  A    between atoms: O_10  and  C_11
REMARK    9  A    between atoms: C_11  and  C_12
REMARK                            x       y       z     vdW  Elec       q    Type
REMARK                         _______ _______ _______ _____ _____    ______ ____
ROOT
ATOM      1  C   UNL     1       3.751   5.792  18.391  0.00  0.00    +0.000 C 
ENDROOT
BRANCH   1   2
ATOM      2  C   UNL     1       2.671   4.864  18.989  0.00  0.00    +0.000 A 
ATOM      3  C   UNL     1       2.503   4.780  20.384  0.00  0.00    +0.000 A 
ATOM      4  C   UNL     1       1.595   3.891  20.957  0.00  0.00    +0.000 A 
ATOM      5  C   UNL     1       0.793   3.100  20.143  0.00  0.00    +0.000 A 
ATOM      6  C   UNL     1       0.893   3.208  18.761  0.00  0.00    +0.000 A 
ATOM      7  C   UNL     1       1.820   4.084  18.190  0.00  0.00    +0.000 A 
ENDBRANCH   1   2
BRANCH   1   8
ATOM      8  N   UNL     1       4.881   6.011  19.361  0.00  0.00    +0.000 NA
ATOM      9  H   UNL     1       4.551   5.786  20.292  0.00  0.00    +0.000 HD
BRANCH   8  10
ATOM     10  S   UNL     1       6.281   5.090  19.102  0.00  0.00    +0.000 S 
ATOM     11  O   UNL     1       7.226   5.531  20.104  0.00  0.00    +0.000 OA
ATOM     12  O   UNL     1       5.900   3.715  18.958  0.00  0.00    +0.000 OA
BRANCH  10  13
ATOM     13  O   UNL     1       6.798   5.605  17.656  0.00  0.00    +0.000 OA
BRANCH  13  14
ATOM     14  C   UNL     1       6.988   4.655  16.612  0.00  0.00    +0.000 C 
BRANCH  14  15
ATOM     15  C   UNL     1       5.916   4.705  15.500  0.00  0.00    +0.000 C 
ATOM     16 CL   UNL     1       5.245   6.337  15.208  0.00  0.00    +0.000 Cl
ATOM     17 CL   UNL     1       6.635   4.114  13.956  0.00  0.00    +0.000 Cl
ATOM     18 CL   UNL     1       4.558   3.602  15.915  0.00  0.00    +0.000 Cl
ENDBRANCH  14  15
ENDBRANCH  13  14
ENDBRANCH  10  13
ENDBRANCH   8  10
ENDBRANCH   1   8
BRANCH   1  19
ATOM     19  C   UNL     1       3.137   7.135  17.910  0.00  0.00    +0.000 C 
BRANCH  19  22
ATOM     20  O   UNL     1       1.882   9.567  17.518  0.00  0.00    +0.000 OA
ATOM     21  C   UNL     1       1.704   9.018  18.608  0.00  0.00    +0.000 C 
ATOM     22  N   UNL     1       2.276   7.784  18.890  0.00  0.00    +0.000 N 
ATOM     23  H   UNL     1       1.901   7.242  19.666  0.00  0.00    +0.000 HD
BRANCH  21  24
ATOM     24  C   UNL     1       0.833   9.625  19.730  0.00  0.00    +0.000 C 
ATOM     25  F   UNL     1       0.846   8.864  20.864  0.00  0.00    +0.000 F 
ATOM     26  F   UNL     1       1.241  10.870  20.098  0.00  0.00    +0.000 F 
ATOM     27  F   UNL     1      -0.476   9.734  19.367  0.00  0.00    +0.000 F 
ENDBRANCH  21  24
ENDBRANCH  19  22
ENDBRANCH   1  19
TORSDOF 9
ENDMDL
MODEL 4
REMARK VINA RESULT:      -7.5      4.299      5.149
REMARK  Name = 
REMARK  9 active torsions:
REMARK  status: ('A' for Active; 'I' for Inactive)
REMARK    1  A    between atoms: C_2  and  C_22
REMARK    2  A    between atoms: N_3  and  C_4
REMARK    3  A    between atoms: C_4  and  C_5
REMARK    4  A    between atoms: C_5  and  N_6
REMARK    5  A    between atoms: C_5  and  C_16
REMARK    6  A    between atoms: N_6  and  S_7
REMARK    7  A    between atoms: S_7  and  O_10
REMARK    8  A    between atoms: O_10  and  C_11
REMARK    9  A    between atoms: C_11  and  C_12
REMARK                            x       y       z     vdW  Elec       q    Type
REMARK                         _______ _______ _______ _____ _____    ______ ____
ROOT
ATOM      1  C   UNL     1       3.727   5.789  18.651  0.00  0.00    +0.000 C 
ENDROOT
BRANCH   1   2
ATOM      2  C   UNL     1       2.699   4.749  19.146  0.00  0.00    +0.000 A 
ATOM      3  C   UNL     1       1.934   4.013  18.221  0.00  0.00    +0.000 A 
ATOM      4  C   UNL     1       0.940   3.128  18.637  0.00  0.00    +0.000 A 
ATOM      5  C   UNL     1       0.723   2.919  19.993  0.00  0.00    +0.000 A 
ATOM      6  C   UNL     1       1.506   3.585  20.929  0.00  0.00    +0.000 A 
ATOM      7  C   UNL     1       2.487   4.488  20.509  0.00  0.00    +0.000 A 
ENDBRANCH   1   2
BRANCH   1   8
ATOM      8  N   UNL     1       4.872   5.929  19.619  0.00  0.00    +0.000 NA
ATOM      9  H   UNL     1       4.587   5.540  20.509  0.00  0.00    +0.000 HD
BRANCH   8  10
ATOM     10  S   UNL     1       6.318   5.154  19.187  0.00  0.00    +0.000 S 
ATOM     11  O   UNL     1       7.280   5.539  20.196  0.00  0.00    +0.000 OA
ATOM     12  O   UNL     1       6.026   3.782  18.888  0.00  0.00    +0.000 OA
BRANCH  10  13
ATOM     13  O   UNL     1       6.722   5.879  17.796  0.00  0.00    +0.000 OA
BRANCH  13  14
ATOM     14  C   UNL     1       7.041   5.074  16.666  0.00  0.00    +0.000 C 
BRANCH  14  15
ATOM     15  C   UNL     1       5.972   5.092  15.549  0.00  0.00    +0.000 C 
ATOM     16 CL   UNL     1       5.121   6.655  15.380  0.00  0.00    +0.000 Cl
ATOM     17 CL   UNL     1       6.757   4.711  13.971  0.00  0.00    +0.000 Cl
ATOM     18 CL   UNL     1       4.748   3.812  15.860  0.00  0.00    +0.000 Cl
ENDBRANCH  14  15
ENDBRANCH  13  14
ENDBRANCH  10  13
ENDBRANCH   8  10
ENDBRANCH   1   8
BRANCH   1  19
ATOM     19  C   UNL     1       3.051   7.156  18.360  0.00  0.00    +0.000 C 
BRANCH  19  22
ATOM     20  O   UNL     1       1.557   9.479  18.235  0.00  0.00    +0.000 OA
ATOM     21  C   UNL     1       1.487   8.827  19.280  0.00  0.00    +0.000 C 
ATOM     22  N   UNL     1       2.186   7.636  19.428  0.00  0.00    +0.000 N 
ATOM     23  H   UNL     1       1.903   6.998  20.170  0.00  0.00    +0.000 HD
BRANCH  21  24
ATOM     24  C   UNL     1       0.622   9.252  20.487  0.00  0.00    +0.000 C 
ATOM     25  F   UNL     1      -0.579   9.778  20.105  0.00  0.00    +0.000 F 
ATOM     26  F   UNL     1       0.341   8.216  21.323  0.00  0.00    +0.000 F 
ATOM     27  F   UNL     1       1.227  10.212  21.243  0.00  0.00    +0.000 F 
ENDBRANCH  21  24
ENDBRANCH  19  22
ENDBRANCH   1  19
TORSDOF 9
ENDMDL
MODEL 5
REMARK VINA RESULT:      -7.4      4.682      6.148
REMARK  Name = 
REMARK  9 active torsions:
REMARK  status: ('A' for Active; 'I' for Inactive)
REMARK    1  A    between atoms: C_2  and  C_22
REMARK    2  A    between atoms: N_3  and  C_4
REMARK    3  A    between atoms: C_4  and  C_5
REMARK    4  A    between atoms: C_5  and  N_6
REMARK    5  A    between atoms: C_5  and  C_16
REMARK    6  A    between atoms: N_6  and  S_7
REMARK    7  A    between atoms: S_7  and  O_10
REMARK    8  A    between atoms: O_10  and  C_11
REMARK    9  A    between atoms: C_11  and  C_12
REMARK                            x       y       z     vdW  Elec       q    Type
REMARK                         _______ _______ _______ _____ _____    ______ ____
ROOT
ATOM      1  C   UNL     1       3.606   6.360  18.122  0.00  0.00    +0.000 C 
ENDROOT
BRANCH   1   2
ATOM      2  C   UNL     1       2.627   7.445  18.619  0.00  0.00    +0.000 A 
ATOM      3  C   UNL     1       2.182   8.454  17.743  0.00  0.00    +0.000 A 
ATOM      4  C   UNL     1       1.364   9.494  18.183  0.00  0.00    +0.000 A 
ATOM      5  C   UNL     1       0.928   9.521  19.502  0.00  0.00    +0.000 A 
ATOM      6  C   UNL     1       1.300   8.504  20.373  0.00  0.00    +0.000 A 
ATOM      7  C   UNL     1       2.137   7.474  19.934  0.00  0.00    +0.000 A 
ENDBRANCH   1   2
BRANCH   1   8
ATOM      8  N   UNL     1       4.023   5.446  19.243  0.00  0.00    +0.000 NA
ATOM      9  H   UNL     1       3.209   5.244  19.811  0.00  0.00    +0.000 HD
BRANCH   8  10
ATOM     10  S   UNL     1       4.682   3.951  18.786  0.00  0.00    +0.000 S 
ATOM     11  O   UNL     1       4.043   3.612  17.533  0.00  0.00    +0.000 OA
ATOM     12  O   UNL     1       6.107   4.021  18.927  0.00  0.00    +0.000 OA
BRANCH  10  13
ATOM     13  O   UNL     1       4.131   2.942  19.926  0.00  0.00    +0.000 OA
BRANCH  13  14
ATOM     14  C   UNL     1       3.230   3.439  20.911  0.00  0.00    +0.000 C 
BRANCH  14  15
ATOM     15  C   UNL     1       1.755   3.032  20.690  0.00  0.00    +0.000 C 
ATOM     16 CL   UNL     1       0.675   4.401  20.295  0.00  0.00    +0.000 Cl
ATOM     17 CL   UNL     1       1.664   1.842  19.339  0.00  0.00    +0.000 Cl
ATOM     18 CL   UNL     1       1.123   2.219  22.163  0.00  0.00    +0.000 Cl
ENDBRANCH  14  15
ENDBRANCH  13  14
ENDBRANCH  10  13
ENDBRANCH   8  10
ENDBRANCH   1   8
BRANCH   1  19
ATOM     19  C   UNL     1       4.833   6.991  17.409  0.00  0.00    +0.000 C 
BRANCH  19  22
ATOM     20  O   UNL     1       5.180   6.400  14.731  0.00  0.00    +0.000 OA
ATOM     21  C   UNL     1       5.882   5.779  15.534  0.00  0.00    +0.000 C 
ATOM     22  N   UNL     1       5.793   6.023  16.899  0.00  0.00    +0.000 N 
ATOM     23  H   UNL     1       6.554   5.706  17.498  0.00  0.00    +0.000 HD
BRANCH  21  24
ATOM     24  C   UNL     1       6.915   4.712  15.109  0.00  0.00    +0.000 C 
ATOM     25  F   UNL     1       7.761   5.168  14.138  0.00  0.00    +0.000 F 
ATOM     26  F   UNL     1       7.700   4.300  16.142  0.00  0.00    +0.000 F 
ATOM     27  F   UNL     1       6.324   3.596  14.598  0.00  0.00    +0.000 F 
ENDBRANCH  21  24
ENDBRANCH  19  22
ENDBRANCH   1  19
TORSDOF 9
ENDMDL
MODEL 6
REMARK VINA RESULT:      -7.4      0.335      1.059
REMARK  Name = 
REMARK  9 active torsions:
REMARK  status: ('A' for Active; 'I' for Inactive)
REMARK    1  A    between atoms: C_2  and  C_22
REMARK    2  A    between atoms: N_3  and  C_4
REMARK    3  A    between atoms: C_4  and  C_5
REMARK    4  A    between atoms: C_5  and  N_6
REMARK    5  A    between atoms: C_5  and  C_16
REMARK    6  A    between atoms: N_6  and  S_7
REMARK    7  A    between atoms: S_7  and  O_10
REMARK    8  A    between atoms: O_10  and  C_11
REMARK    9  A    between atoms: C_11  and  C_12
REMARK                            x       y       z     vdW  Elec       q    Type
REMARK                         _______ _______ _______ _____ _____    ______ ____
ROOT
ATOM      1  C   UNL     1       4.135   4.968  16.921  0.00  0.00    +0.000 C 
ENDROOT
BRANCH   1   2
ATOM      2  C   UNL     1       3.173   3.940  17.552  0.00  0.00    +0.000 A 
ATOM      3  C   UNL     1       1.832   4.286  17.807  0.00  0.00    +0.000 A 
ATOM      4  C   UNL     1       0.961   3.409  18.451  0.00  0.00    +0.000 A 
ATOM      5  C   UNL     1       1.397   2.140  18.810  0.00  0.00    +0.000 A 
ATOM      6  C   UNL     1       2.697   1.747  18.514  0.00  0.00    +0.000 A 
ATOM      7  C   UNL     1       3.574   2.637  17.888  0.00  0.00    +0.000 A 
ENDBRANCH   1   2
BRANCH   1   8
ATOM      8  N   UNL     1       5.377   4.301  16.392  0.00  0.00    +0.000 NA
ATOM      9  H   UNL     1       5.108   3.431  15.950  0.00  0.00    +0.000 HD
BRANCH   8  10
ATOM     10  S   UNL     1       6.269   5.178  15.246  0.00  0.00    +0.000 S 
ATOM     11  O   UNL     1       5.331   6.107  14.654  0.00  0.00    +0.000 OA
ATOM     12  O   UNL     1       7.494   5.606  15.854  0.00  0.00    +0.000 OA
BRANCH  10  13
ATOM     13  O   UNL     1       6.643   4.058  14.136  0.00  0.00    +0.000 OA
BRANCH  13  14
ATOM     14  C   UNL     1       5.591   3.340  13.499  0.00  0.00    +0.000 C 
BRANCH  14  15
ATOM     15  C   UNL     1       5.726   3.241  11.963  0.00  0.00    +0.000 C 
ATOM     16 CL   UNL     1       7.069   4.207  11.286  0.00  0.00    +0.000 Cl
ATOM     17 CL   UNL     1       5.990   1.518  11.500  0.00  0.00    +0.000 Cl
ATOM     18 CL   UNL     1       4.196   3.775  11.183  0.00  0.00    +0.000 Cl
ENDBRANCH  14  15
ENDBRANCH  13  14
ENDBRANCH  10  13
ENDBRANCH   8  10
ENDBRANCH   1   8
BRANCH   1  19
ATOM     19  C   UNL     1       4.477   6.108  17.920  0.00  0.00    +0.000 C 
BRANCH  19  22
ATOM     20  O   UNL     1       5.805   4.534  19.764  0.00  0.00    +0.000 OA
ATOM     21  C   UNL     1       6.470   5.400  19.190  0.00  0.00    +0.000 C 
ATOM     22  N   UNL     1       5.894   6.226  18.232  0.00  0.00    +0.000 N 
ATOM     23  H   UNL     1       6.509   6.730  17.595  0.00  0.00    +0.000 HD
BRANCH  21  24
ATOM     24  C   UNL     1       7.973   5.632  19.459  0.00  0.00    +0.000 C 
ATOM     25  F   UNL     1       8.394   6.857  19.025  0.00  0.00    +0.000 F 
ATOM     26  F   UNL     1       8.288   5.563  20.781  0.00  0.00    +0.000 F 
ATOM     27  F   UNL     1       8.760   4.719  18.822  0.00  0.00    +0.000 F 
ENDBRANCH  21  24
ENDBRANCH  19  22
ENDBRANCH   1  19
TORSDOF 9
ENDMDL
MODEL 7
REMARK VINA RESULT:      -7.4      2.943      3.587
REMARK  Name = 
REMARK  9 active torsions:
REMARK  status: ('A' for Active; 'I' for Inactive)
REMARK    1  A    between atoms: C_2  and  C_22
REMARK    2  A    between atoms: N_3  and  C_4
REMARK    3  A    between atoms: C_4  and  C_5
REMARK    4  A    between atoms: C_5  and  N_6
REMARK    5  A    between atoms: C_5  and  C_16
REMARK    6  A    between atoms: N_6  and  S_7
REMARK    7  A    between atoms: S_7  and  O_10
REMARK    8  A    between atoms: O_10  and  C_11
REMARK    9  A    between atoms: C_11  and  C_12
REMARK                            x       y       z     vdW  Elec       q    Type
REMARK                         _______ _______ _______ _____ _____    ______ ____
ROOT
ATOM      1  C   UNL     1       4.105   4.891  16.879  0.00  0.00    +0.000 C 
ENDROOT
BRANCH   1   2
ATOM      2  C   UNL     1       3.247   3.832  17.605  0.00  0.00    +0.000 A 
ATOM      3  C   UNL     1       1.858   4.016  17.739  0.00  0.00    +0.000 A 
ATOM      4  C   UNL     1       1.069   3.121  18.460  0.00  0.00    +0.000 A 
ATOM      5  C   UNL     1       1.645   1.989  19.022  0.00  0.00    +0.000 A 
ATOM      6  C   UNL     1       3.004   1.749  18.853  0.00  0.00    +0.000 A 
ATOM      7  C   UNL     1       3.796   2.660  18.148  0.00  0.00    +0.000 A 
ENDBRANCH   1   2
BRANCH   1   8
ATOM      8  N   UNL     1       5.319   4.267  16.243  0.00  0.00    +0.000 NA
ATOM      9  H   UNL     1       5.009   3.646  15.505  0.00  0.00    +0.000 HD
BRANCH   8  10
ATOM     10  S   UNL     1       6.434   5.338  15.544  0.00  0.00    +0.000 S 
ATOM     11  O   UNL     1       5.645   6.436  15.029  0.00  0.00    +0.000 OA
ATOM     12  O   UNL     1       7.514   5.534  16.466  0.00  0.00    +0.000 OA
BRANCH  10  13
ATOM     13  O   UNL     1       7.014   4.496  14.288  0.00  0.00    +0.000 OA
BRANCH  13  14
ATOM     14  C   UNL     1       6.211   3.471  13.713  0.00  0.00    +0.000 C 
BRANCH  14  15
ATOM     15  C   UNL     1       6.212   3.451  12.167  0.00  0.00    +0.000 C 
ATOM     16 CL   UNL     1       7.193   4.747  11.423  0.00  0.00    +0.000 Cl
ATOM     17 CL   UNL     1       6.856   1.866  11.596  0.00  0.00    +0.000 Cl
ATOM     18 CL   UNL     1       4.527   3.594  11.557  0.00  0.00    +0.000 Cl
ENDBRANCH  14  15
ENDBRANCH  13  14
ENDBRANCH  10  13
ENDBRANCH   8  10
ENDBRANCH   1   8
BRANCH   1  19
ATOM     19  C   UNL     1       4.491   6.054  17.833  0.00  0.00    +0.000 C 
BRANCH  19  22
ATOM     20  O   UNL     1       2.513   6.809  19.609  0.00  0.00    +0.000 OA
ATOM     21  C   UNL     1       2.682   7.533  18.625  0.00  0.00    +0.000 C 
ATOM     22  N   UNL     1       3.667   7.246  17.688  0.00  0.00    +0.000 N 
ATOM     23  H   UNL     1       3.961   7.986  17.052  0.00  0.00    +0.000 HD
BRANCH  21  24
ATOM     24  C   UNL     1       1.851   8.806  18.355  0.00  0.00    +0.000 C 
ATOM     25  F   UNL     1       2.617   9.835  17.885  0.00  0.00    +0.000 F 
ATOM     26  F   UNL     1       0.868   8.608  17.436  0.00  0.00    +0.000 F 
ATOM     27  F   UNL     1       1.244   9.276  19.481  0.00  0.00    +0.000 F 
ENDBRANCH  21  24
ENDBRANCH  19  22
ENDBRANCH   1  19
TORSDOF 9
ENDMDL
MODEL 8
REMARK VINA RESULT:      -7.3      2.965      3.573
REMARK  Name = 
REMARK  9 active torsions:
REMARK  status: ('A' for Active; 'I' for Inactive)
REMARK    1  A    between atoms: C_2  and  C_22
REMARK    2  A    between atoms: N_3  and  C_4
REMARK    3  A    between atoms: C_4  and  C_5
REMARK    4  A    between atoms: C_5  and  N_6
REMARK    5  A    between atoms: C_5  and  C_16
REMARK    6  A    between atoms: N_6  and  S_7
REMARK    7  A    between atoms: S_7  and  O_10
REMARK    8  A    between atoms: O_10  and  C_11
REMARK    9  A    between atoms: C_11  and  C_12
REMARK                            x       y       z     vdW  Elec       q    Type
REMARK                         _______ _______ _______ _____ _____    ______ ____
ROOT
ATOM      1  C   UNL     1       4.074   4.899  16.860  0.00  0.00    +0.000 C 
ENDROOT
BRANCH   1   2
ATOM      2  C   UNL     1       3.207   3.877  17.627  0.00  0.00    +0.000 A 
ATOM      3  C   UNL     1       3.787   2.707  18.151  0.00  0.00    +0.000 A 
ATOM      4  C   UNL     1       3.017   1.727  18.776  0.00  0.00    +0.000 A 
ATOM      5  C   UNL     1       1.651   1.919  18.938  0.00  0.00    +0.000 A 
ATOM      6  C   UNL     1       1.061   3.094  18.486  0.00  0.00    +0.000 A 
ATOM      7  C   UNL     1       1.832   4.065  17.841  0.00  0.00    +0.000 A 
ENDBRANCH   1   2
BRANCH   1   8
ATOM      8  N   UNL     1       5.278   4.238  16.243  0.00  0.00    +0.000 NA
ATOM      9  H   UNL     1       4.973   3.706  15.437  0.00  0.00    +0.000 HD
BRANCH   8  10
ATOM     10  S   UNL     1       6.510   5.274  15.707  0.00  0.00    +0.000 S 
ATOM     11  O   UNL     1       5.861   6.536  15.427  0.00  0.00    +0.000 OA
ATOM     12  O   UNL     1       7.619   5.165  16.609  0.00  0.00    +0.000 OA
BRANCH  10  13
ATOM     13  O   UNL     1       6.962   4.612  14.300  0.00  0.00    +0.000 OA
BRANCH  13  14
ATOM     14  C   UNL     1       6.206   3.527  13.773  0.00  0.00    +0.000 C 
BRANCH  14  15
ATOM     15  C   UNL     1       6.217   3.430  12.230  0.00  0.00    +0.000 C 
ATOM     16 CL   UNL     1       6.869   1.889  11.601  0.00  0.00    +0.000 Cl
ATOM     17 CL   UNL     1       4.533   3.616  11.613  0.00  0.00    +0.000 Cl
ATOM     18 CL   UNL     1       7.189   4.778  11.545  0.00  0.00    +0.000 Cl
ENDBRANCH  14  15
ENDBRANCH  13  14
ENDBRANCH  10  13
ENDBRANCH   8  10
ENDBRANCH   1   8
BRANCH   1  19
ATOM     19  C   UNL     1       4.477   6.092  17.769  0.00  0.00    +0.000 C 
BRANCH  19  22
ATOM     20  O   UNL     1       2.534   6.912  19.555  0.00  0.00    +0.000 OA
ATOM     21  C   UNL     1       2.686   7.602  18.543  0.00  0.00    +0.000 C 
ATOM     22  N   UNL     1       3.652   7.280  17.598  0.00  0.00    +0.000 N 
ATOM     23  H   UNL     1       3.936   7.997  16.932  0.00  0.00    +0.000 HD
BRANCH  21  24
ATOM     24  C   UNL     1       1.852   8.867  18.245  0.00  0.00    +0.000 C 
ATOM     25  F   UNL     1       1.212   9.338  19.356  0.00  0.00    +0.000 F 
ATOM     26  F   UNL     1       2.607   9.895  17.771  0.00  0.00    +0.000 F 
ATOM     27  F   UNL     1       0.878   8.638  17.320  0.00  0.00    +0.000 F 
ENDBRANCH  21  24
ENDBRANCH  19  22
ENDBRANCH   1  19
TORSDOF 9
ENDMDL
MODEL 9
REMARK VINA RESULT:      -7.3      4.121      6.202
REMARK  Name = 
REMARK  9 active torsions:
REMARK  status: ('A' for Active; 'I' for Inactive)
REMARK    1  A    between atoms: C_2  and  C_22
REMARK    2  A    between atoms: N_3  and  C_4
REMARK    3  A    between atoms: C_4  and  C_5
REMARK    4  A    between atoms: C_5  and  N_6
REMARK    5  A    between atoms: C_5  and  C_16
REMARK    6  A    between atoms: N_6  and  S_7
REMARK    7  A    between atoms: S_7  and  O_10
REMARK    8  A    between atoms: O_10  and  C_11
REMARK    9  A    between atoms: C_11  and  C_12
REMARK                            x       y       z     vdW  Elec       q    Type
REMARK                         _______ _______ _______ _____ _____    ______ ____
ROOT
ATOM      1  C   UNL     1       5.722   4.558  15.889  0.00  0.00    +0.000 C 
ENDROOT
BRANCH   1   2
ATOM      2  C   UNL     1       6.202   4.428  14.428  0.00  0.00    +0.000 A 
ATOM      3  C   UNL     1       5.530   3.575  13.533  0.00  0.00    +0.000 A 
ATOM      4  C   UNL     1       5.988   3.372  12.233  0.00  0.00    +0.000 A 
ATOM      5  C   UNL     1       7.105   4.062  11.777  0.00  0.00    +0.000 A 
ATOM      6  C   UNL     1       7.752   4.959  12.619  0.00  0.00    +0.000 A 
ATOM      7  C   UNL     1       7.303   5.143  13.929  0.00  0.00    +0.000 A 
ENDBRANCH   1   2
BRANCH   1   8
ATOM      8  N   UNL     1       6.864   4.891  16.812  0.00  0.00    +0.000 NA
ATOM      9  H   UNL     1       7.698   5.021  16.254  0.00  0.00    +0.000 HD
BRANCH   8  10
ATOM     10  S   UNL     1       6.683   6.290  17.755  0.00  0.00    +0.000 S 
ATOM     11  O   UNL     1       6.992   5.887  19.109  0.00  0.00    +0.000 OA
ATOM     12  O   UNL     1       7.362   7.369  17.101  0.00  0.00    +0.000 OA
BRANCH  10  13
ATOM     13  O   UNL     1       5.093   6.590  17.665  0.00  0.00    +0.000 OA
BRANCH  13  14
ATOM     14  C   UNL     1       4.294   6.434  18.833  0.00  0.00    +0.000 C 
BRANCH  14  15
ATOM     15  C   UNL     1       2.808   6.813  18.645  0.00  0.00    +0.000 C 
ATOM     16 CL   UNL     1       2.552   8.300  17.685  0.00  0.00    +0.000 Cl
ATOM     17 CL   UNL     1       1.951   5.460  17.817  0.00  0.00    +0.000 Cl
ATOM     18 CL   UNL     1       2.030   7.036  20.251  0.00  0.00    +0.000 Cl
ENDBRANCH  14  15
ENDBRANCH  13  14
ENDBRANCH  10  13
ENDBRANCH   8  10
ENDBRANCH   1   8
BRANCH   1  19
ATOM     19  C   UNL     1       4.964   3.282  16.349  0.00  0.00    +0.000 C 
BRANCH  19  22
ATOM     20  O   UNL     1       2.816   1.987  17.509  0.00  0.00    +0.000 OA
ATOM     21  C   UNL     1       3.601   2.555  18.272  0.00  0.00    +0.000 C 
ATOM     22  N   UNL     1       4.721   3.215  17.784  0.00  0.00    +0.000 N 
ATOM     23  H   UNL     1       5.476   3.432  18.432  0.00  0.00    +0.000 HD
BRANCH  21  24
ATOM     24  C   UNL     1       3.429   2.570  19.807  0.00  0.00    +0.000 C 
ATOM     25  F   UNL     1       2.280   1.950  20.206  0.00  0.00    +0.000 F 
ATOM     26  F   UNL     1       4.449   1.946  20.457  0.00  0.00    +0.000 F 
ATOM     27  F   UNL     1       3.365   3.837  20.307  0.00  0.00    +0.000 F 
ENDBRANCH  21  24
ENDBRANCH  19  22
ENDBRANCH   1  19
TORSDOF 9
ENDMDL
