MODEL 1
REMARK VINA RESULT:      -8.2      0.000      0.000
REMARK  Name = 
REMARK  8 active torsions:
REMARK  status: ('A' for Active; 'I' for Inactive)
REMARK    1  A    between atoms: C_1  and  O_2
REMARK    2  A    between atoms: O_2  and  C_3
REMARK    3  A    between atoms: C_6  and  C_7
REMARK    4  A    between atoms: C_7  and  C_8
REMARK    5  A    between atoms: C_11  and  S_12
REMARK    6  A    between atoms: S_12  and  C_13
REMARK    7  A    between atoms: C_13  and  C_14
REMARK    8  A    between atoms: C_14  and  C_16
REMARK                            x       y       z     vdW  Elec       q    Type
REMARK                         _______ _______ _______ _____ _____    ______ ____
ROOT
ATOM      1  S   UNL     1       7.489   5.688  18.018  0.00  0.00    +0.000 S 
ENDROOT
BRANCH   1   5
ATOM      2  C   UNL     1       8.688   9.257  18.663  0.00  0.00    +0.000 A 
ATOM      3  N   UNL     1       7.966   9.489  17.585  0.00  0.00    +0.000 NA
ATOM      4  N   UNL     1       7.448   8.271  17.200  0.00  0.00    +0.000 NA
ATOM      5  C   UNL     1       7.879   7.381  18.071  0.00  0.00    +0.000 A 
ATOM      6  O   UNL     1       8.657   7.944  19.051  0.00  0.00    +0.000 OA
BRANCH   2   7
ATOM      7  C   UNL     1       9.500  10.200  19.472  0.00  0.00    +0.000 C 
BRANCH   7  11
ATOM      8  C   UNL     1      10.845  13.677  17.259  0.00  0.00    +0.000 A 
ATOM      9  C   UNL     1       9.550  13.624  17.770  0.00  0.00    +0.000 A 
ATOM     10  C   UNL     1       9.116  12.511  18.498  0.00  0.00    +0.000 A 
ATOM     11  C   UNL     1       9.966  11.413  18.690  0.00  0.00    +0.000 A 
ATOM     12  C   UNL     1      11.272  11.469  18.168  0.00  0.00    +0.000 A 
ATOM     13  C   UNL     1      11.702  12.595  17.452  0.00  0.00    +0.000 A 
BRANCH   8  15
ATOM     14  C   UNL     1      11.528  15.943  17.322  0.00  0.00    +0.000 C 
ATOM     15  O   UNL     1      11.144  14.810  16.552  0.00  0.00    +0.000 OA
ENDBRANCH   8  15
ENDBRANCH   7  11
ENDBRANCH   2   7
ENDBRANCH   1   5
BRANCH   1  16
ATOM     16  C   UNL     1       7.098   5.502  16.251  0.00  0.00    +0.000 C 
BRANCH  16  17
ATOM     17  C   UNL     1       5.623   5.745  15.979  0.00  0.00    +0.000 C 
ATOM     18  O   UNL     1       5.207   6.619  15.222  0.00  0.00    +0.000 OA
BRANCH  17  19
ATOM     19  C   UNL     1       4.632   4.886  16.681  0.00  0.00    +0.000 A 
ATOM     20  C   UNL     1       4.714   3.483  16.685  0.00  0.00    +0.000 A 
ATOM     21  C   UNL     1       3.848   2.730  17.490  0.00  0.00    +0.000 A 
ATOM     22  C   UNL     1       2.923   3.388  18.297  0.00  0.00    +0.000 A 
ATOM     23  C   UNL     1       2.781   4.773  18.200  0.00  0.00    +0.000 A 
ATOM     24  C   UNL     1       3.619   5.528  17.396  0.00  0.00    +0.000 A 
ATOM     25  N   UNL     1       1.819   5.424  19.003  0.00  0.00    +0.000 N 
ATOM     26  C   UNL     1       1.811   4.932  20.298  0.00  0.00    +0.000 C 
ATOM     27  O   UNL     1       1.739   5.656  21.286  0.00  0.00    +0.000 OA
ATOM     28  C   UNL     1       1.871   3.398  20.371  0.00  0.00    +0.000 C 
ATOM     29  O   UNL     1       2.174   2.655  19.179  0.00  0.00    +0.000 OA
ATOM     30  H   UNL     1       0.914   5.153  18.616  0.00  0.00    +0.000 HD
ENDBRANCH  17  19
ENDBRANCH  16  17
ENDBRANCH   1  16
TORSDOF 7
ENDMDL
MODEL 2
REMARK VINA RESULT:      -8.2      5.638      8.012
REMARK  Name = 
REMARK  8 active torsions:
REMARK  status: ('A' for Active; 'I' for Inactive)
REMARK    1  A    between atoms: C_1  and  O_2
REMARK    2  A    between atoms: O_2  and  C_3
REMARK    3  A    between atoms: C_6  and  C_7
REMARK    4  A    between atoms: C_7  and  C_8
REMARK    5  A    between atoms: C_11  and  S_12
REMARK    6  A    between atoms: S_12  and  C_13
REMARK    7  A    between atoms: C_13  and  C_14
REMARK    8  A    between atoms: C_14  and  C_16
REMARK                            x       y       z     vdW  Elec       q    Type
REMARK                         _______ _______ _______ _____ _____    ______ ____
ROOT
ATOM      1  S   UNL     1       1.101   2.626  19.071  0.00  0.00    +0.000 S 
ENDROOT
BRANCH   1   5
ATOM      2  C   UNL     1       2.158   6.279  19.429  0.00  0.00    +0.000 A 
ATOM      3  N   UNL     1       2.049   5.984  20.709  0.00  0.00    +0.000 NA
ATOM      4  N   UNL     1       1.656   4.664  20.768  0.00  0.00    +0.000 NA
ATOM      5  C   UNL     1       1.560   4.239  19.524  0.00  0.00    +0.000 A 
ATOM      6  O   UNL     1       1.892   5.211  18.614  0.00  0.00    +0.000 OA
BRANCH   2   7
ATOM      7  C   UNL     1       2.513   7.570  18.788  0.00  0.00    +0.000 C 
BRANCH   7  11
ATOM      8  C   UNL     1      -0.441  10.669  19.474  0.00  0.00    +0.000 A 
ATOM      9  C   UNL     1      -0.102  10.291  18.176  0.00  0.00    +0.000 A 
ATOM     10  C   UNL     1       0.839   9.281  17.949  0.00  0.00    +0.000 A 
ATOM     11  C   UNL     1       1.487   8.660  19.026  0.00  0.00    +0.000 A 
ATOM     12  C   UNL     1       1.146   9.047  20.335  0.00  0.00    +0.000 A 
ATOM     13  C   UNL     1       0.191  10.051  20.553  0.00  0.00    +0.000 A 
BRANCH   8  15
ATOM     14  C   UNL     1      -0.974  12.925  18.999  0.00  0.00    +0.000 C 
ATOM     15  O   UNL     1      -1.360  11.678  19.564  0.00  0.00    +0.000 OA
ENDBRANCH   8  15
ENDBRANCH   7  11
ENDBRANCH   2   7
ENDBRANCH   1   5
BRANCH   1  16
ATOM     16  C   UNL     1       2.563   2.132  18.107  0.00  0.00    +0.000 C 
BRANCH  16  17
ATOM     17  C   UNL     1       3.848   2.613  18.759  0.00  0.00    +0.000 C 
ATOM     18  O   UNL     1       4.210   2.271  19.882  0.00  0.00    +0.000 OA
BRANCH  17  19
ATOM     19  C   UNL     1       4.702   3.565  17.999  0.00  0.00    +0.000 A 
ATOM     20  C   UNL     1       5.744   4.292  18.598  0.00  0.00    +0.000 A 
ATOM     21  C   UNL     1       6.617   5.053  17.808  0.00  0.00    +0.000 A 
ATOM     22  C   UNL     1       6.450   5.064  16.426  0.00  0.00    +0.000 A 
ATOM     23  C   UNL     1       5.347   4.426  15.857  0.00  0.00    +0.000 A 
ATOM     24  C   UNL     1       4.468   3.684  16.627  0.00  0.00    +0.000 A 
ATOM     25  N   UNL     1       5.174   4.469  14.455  0.00  0.00    +0.000 N 
ATOM     26  C   UNL     1       6.368   4.268  13.782  0.00  0.00    +0.000 C 
ATOM     27  O   UNL     1       6.464   3.545  12.796  0.00  0.00    +0.000 OA
ATOM     28  C   UNL     1       7.545   5.059  14.374  0.00  0.00    +0.000 C 
ATOM     29  O   UNL     1       7.384   5.699  15.650  0.00  0.00    +0.000 OA
ATOM     30  H   UNL     1       4.915   5.434  14.243  0.00  0.00    +0.000 HD
ENDBRANCH  17  19
ENDBRANCH  16  17
ENDBRANCH   1  16
TORSDOF 7
ENDMDL
MODEL 3
REMARK VINA RESULT:      -8.1      5.447      9.159
REMARK  Name = 
REMARK  8 active torsions:
REMARK  status: ('A' for Active; 'I' for Inactive)
REMARK    1  A    between atoms: C_1  and  O_2
REMARK    2  A    between atoms: O_2  and  C_3
REMARK    3  A    between atoms: C_6  and  C_7
REMARK    4  A    between atoms: C_7  and  C_8
REMARK    5  A    between atoms: C_11  and  S_12
REMARK    6  A    between atoms: S_12  and  C_13
REMARK    7  A    between atoms: C_13  and  C_14
REMARK    8  A    between atoms: C_14  and  C_16
REMARK                            x       y       z     vdW  Elec       q    Type
REMARK                         _______ _______ _______ _____ _____    ______ ____
ROOT
ATOM      1  S   UNL     1       2.438   6.822  19.601  0.00  0.00    +0.000 S 
ENDROOT
BRANCH   1   5
ATOM      2  C   UNL     1       0.609  10.157  19.957  0.00  0.00    +0.000 A 
ATOM      3  N   UNL     1       0.509   9.749  21.206  0.00  0.00    +0.000 NA
ATOM      4  N   UNL     1       1.129   8.519  21.259  0.00  0.00    +0.000 NA
ATOM      5  C   UNL     1       1.573   8.262  20.045  0.00  0.00    +0.000 A 
ATOM      6  O   UNL     1       1.299   9.278  19.164  0.00  0.00    +0.000 OA
BRANCH   2   7
ATOM      7  C   UNL     1       0.084  11.394  19.326  0.00  0.00    +0.000 C 
BRANCH   7  11
ATOM      8  C   UNL     1      -3.984  11.014  17.877  0.00  0.00    +0.000 A 
ATOM      9  C   UNL     1      -3.673  11.937  18.873  0.00  0.00    +0.000 A 
ATOM     10  C   UNL     1      -2.359  12.075  19.333  0.00  0.00    +0.000 A 
ATOM     11  C   UNL     1      -1.340  11.255  18.827  0.00  0.00    +0.000 A 
ATOM     12  C   UNL     1      -1.660  10.320  17.825  0.00  0.00    +0.000 A 
ATOM     13  C   UNL     1      -2.977  10.200  17.360  0.00  0.00    +0.000 A 
BRANCH   8  15
ATOM     14  C   UNL     1      -5.957  12.217  17.364  0.00  0.00    +0.000 C 
ATOM     15  O   UNL     1      -5.305  10.962  17.525  0.00  0.00    +0.000 OA
ENDBRANCH   8  15
ENDBRANCH   7  11
ENDBRANCH   2   7
ENDBRANCH   1   5
BRANCH   1  16
ATOM     16  C   UNL     1       1.714   5.636  20.775  0.00  0.00    +0.000 C 
BRANCH  16  17
ATOM     17  C   UNL     1       2.378   4.273  20.670  0.00  0.00    +0.000 C 
ATOM     18  O   UNL     1       2.346   3.430  21.564  0.00  0.00    +0.000 OA
BRANCH  17  19
ATOM     19  C   UNL     1       3.121   3.953  19.422  0.00  0.00    +0.000 A 
ATOM     20  C   UNL     1       2.475   3.577  18.232  0.00  0.00    +0.000 A 
ATOM     21  C   UNL     1       3.210   3.440  17.046  0.00  0.00    +0.000 A 
ATOM     22  C   UNL     1       4.579   3.697  17.058  0.00  0.00    +0.000 A 
ATOM     23  C   UNL     1       5.222   3.963  18.268  0.00  0.00    +0.000 A 
ATOM     24  C   UNL     1       4.511   4.086  19.450  0.00  0.00    +0.000 A 
ATOM     25  N   UNL     1       6.616   4.195  18.270  0.00  0.00    +0.000 N 
ATOM     26  C   UNL     1       7.004   5.009  17.219  0.00  0.00    +0.000 C 
ATOM     27  O   UNL     1       7.809   5.925  17.348  0.00  0.00    +0.000 OA
ATOM     28  C   UNL     1       6.352   4.632  15.879  0.00  0.00    +0.000 C 
ATOM     29  O   UNL     1       5.265   3.693  15.873  0.00  0.00    +0.000 OA
ATOM     30  H   UNL     1       7.042   3.289  18.069  0.00  0.00    +0.000 HD
ENDBRANCH  17  19
ENDBRANCH  16  17
ENDBRANCH   1  16
TORSDOF 7
ENDMDL
MODEL 4
REMARK VINA RESULT:      -8.0      4.952      8.584
REMARK  Name = 
REMARK  8 active torsions:
REMARK  status: ('A' for Active; 'I' for Inactive)
REMARK    1  A    between atoms: C_1  and  O_2
REMARK    2  A    between atoms: O_2  and  C_3
REMARK    3  A    between atoms: C_6  and  C_7
REMARK    4  A    between atoms: C_7  and  C_8
REMARK    5  A    between atoms: C_11  and  S_12
REMARK    6  A    between atoms: S_12  and  C_13
REMARK    7  A    between atoms: C_13  and  C_14
REMARK    8  A    between atoms: C_14  and  C_16
REMARK                            x       y       z     vdW  Elec       q    Type
REMARK                         _______ _______ _______ _____ _____    ______ ____
ROOT
ATOM      1  S   UNL     1       2.174   5.762  20.733  0.00  0.00    +0.000 S 
ENDROOT
BRANCH   1   5
ATOM      2  C   UNL     1       1.602   9.008  18.803  0.00  0.00    +0.000 A 
ATOM      3  N   UNL     1       2.151   8.303  17.835  0.00  0.00    +0.000 NA
ATOM      4  N   UNL     1       2.437   7.066  18.373  0.00  0.00    +0.000 NA
ATOM      5  C   UNL     1       2.036   7.096  19.629  0.00  0.00    +0.000 A 
ATOM      6  O   UNL     1       1.468   8.297  19.967  0.00  0.00    +0.000 OA
BRANCH   2   7
ATOM      7  C   UNL     1       1.135  10.417  18.793  0.00  0.00    +0.000 C 
BRANCH   7  11
ATOM      8  C   UNL     1      -3.096  10.829  17.939  0.00  0.00    +0.000 A 
ATOM      9  C   UNL     1      -2.494  11.613  18.921  0.00  0.00    +0.000 A 
ATOM     10  C   UNL     1      -1.126  11.495  19.190  0.00  0.00    +0.000 A 
ATOM     11  C   UNL     1      -0.346  10.555  18.501  0.00  0.00    +0.000 A 
ATOM     12  C   UNL     1      -0.959   9.761  17.514  0.00  0.00    +0.000 A 
ATOM     13  C   UNL     1      -2.328   9.897  17.242  0.00  0.00    +0.000 A 
BRANCH   8  15
ATOM     14  C   UNL     1      -5.014  12.069  18.560  0.00  0.00    +0.000 C 
ATOM     15  O   UNL     1      -4.440  11.025  17.782  0.00  0.00    +0.000 OA
ENDBRANCH   8  15
ENDBRANCH   7  11
ENDBRANCH   2   7
ENDBRANCH   1   5
BRANCH   1  16
ATOM     16  C   UNL     1       1.313   4.468  19.786  0.00  0.00    +0.000 C 
BRANCH  16  17
ATOM     17  C   UNL     1       2.246   3.320  19.438  0.00  0.00    +0.000 C 
ATOM     18  O   UNL     1       2.149   2.194  19.923  0.00  0.00    +0.000 OA
BRANCH  17  19
ATOM     19  C   UNL     1       3.345   3.582  18.471  0.00  0.00    +0.000 A 
ATOM     20  C   UNL     1       3.125   3.693  17.087  0.00  0.00    +0.000 A 
ATOM     21  C   UNL     1       4.167   4.096  16.240  0.00  0.00    +0.000 A 
ATOM     22  C   UNL     1       5.411   4.399  16.787  0.00  0.00    +0.000 A 
ATOM     23  C   UNL     1       5.643   4.179  18.145  0.00  0.00    +0.000 A 
ATOM     24  C   UNL     1       4.627   3.766  18.991  0.00  0.00    +0.000 A 
ATOM     25  N   UNL     1       6.919   4.465  18.681  0.00  0.00    +0.000 N 
ATOM     26  C   UNL     1       7.426   5.658  18.195  0.00  0.00    +0.000 C 
ATOM     27  O   UNL     1       7.987   6.484  18.908  0.00  0.00    +0.000 OA
ATOM     28  C   UNL     1       7.242   5.831  16.679  0.00  0.00    +0.000 C 
ATOM     29  O   UNL     1       6.384   4.920  15.974  0.00  0.00    +0.000 OA
ATOM     30  H   UNL     1       7.539   3.746  18.304  0.00  0.00    +0.000 HD
ENDBRANCH  17  19
ENDBRANCH  16  17
ENDBRANCH   1  16
TORSDOF 7
ENDMDL
MODEL 5
REMARK VINA RESULT:      -7.9      3.737      6.629
REMARK  Name = 
REMARK  8 active torsions:
REMARK  status: ('A' for Active; 'I' for Inactive)
REMARK    1  A    between atoms: C_1  and  O_2
REMARK    2  A    between atoms: O_2  and  C_3
REMARK    3  A    between atoms: C_6  and  C_7
REMARK    4  A    between atoms: C_7  and  C_8
REMARK    5  A    between atoms: C_11  and  S_12
REMARK    6  A    between atoms: S_12  and  C_13
REMARK    7  A    between atoms: C_13  and  C_14
REMARK    8  A    between atoms: C_14  and  C_16
REMARK                            x       y       z     vdW  Elec       q    Type
REMARK                         _______ _______ _______ _____ _____    ______ ____
ROOT
ATOM      1  S   UNL     1       1.290   2.181  19.623  0.00  0.00    +0.000 S 
ENDROOT
BRANCH   1   5
ATOM      2  C   UNL     1       4.509   3.432  17.991  0.00  0.00    +0.000 A 
ATOM      3  N   UNL     1       5.043   2.831  19.035  0.00  0.00    +0.000 NA
ATOM      4  N   UNL     1       3.992   2.313  19.761  0.00  0.00    +0.000 NA
ATOM      5  C   UNL     1       2.890   2.622  19.109  0.00  0.00    +0.000 A 
ATOM      6  O   UNL     1       3.144   3.316  17.953  0.00  0.00    +0.000 OA
BRANCH   2   7
ATOM      7  C   UNL     1       5.171   4.190  16.900  0.00  0.00    +0.000 C 
BRANCH   7  11
ATOM      8  C   UNL     1       7.927   7.204  18.358  0.00  0.00    +0.000 A 
ATOM      9  C   UNL     1       7.187   7.425  17.198  0.00  0.00    +0.000 A 
ATOM     10  C   UNL     1       6.285   6.463  16.732  0.00  0.00    +0.000 A 
ATOM     11  C   UNL     1       6.141   5.241  17.404  0.00  0.00    +0.000 A 
ATOM     12  C   UNL     1       6.894   5.019  18.572  0.00  0.00    +0.000 A 
ATOM     13  C   UNL     1       7.784   5.996  19.039  0.00  0.00    +0.000 A 
BRANCH   8  15
ATOM     14  C   UNL     1       8.439   9.511  18.236  0.00  0.00    +0.000 C 
ATOM     15  O   UNL     1       8.785   8.212  18.700  0.00  0.00    +0.000 OA
ENDBRANCH   8  15
ENDBRANCH   7  11
ENDBRANCH   2   7
ENDBRANCH   1   5
BRANCH   1  16
ATOM     16  C   UNL     1       0.618   3.822  20.034  0.00  0.00    +0.000 C 
BRANCH  16  17
ATOM     17  C   UNL     1       1.675   4.714  20.664  0.00  0.00    +0.000 C 
ATOM     18  O   UNL     1       2.325   4.398  21.658  0.00  0.00    +0.000 OA
BRANCH  17  19
ATOM     19  C   UNL     1       1.919   6.047  20.053  0.00  0.00    +0.000 A 
ATOM     20  C   UNL     1       2.563   6.205  18.814  0.00  0.00    +0.000 A 
ATOM     21  C   UNL     1       2.627   7.469  18.211  0.00  0.00    +0.000 A 
ATOM     22  C   UNL     1       2.031   8.557  18.843  0.00  0.00    +0.000 A 
ATOM     23  C   UNL     1       1.491   8.404  20.121  0.00  0.00    +0.000 A 
ATOM     24  C   UNL     1       1.436   7.165  20.735  0.00  0.00    +0.000 A 
ATOM     25  N   UNL     1       0.915   9.523  20.763  0.00  0.00    +0.000 N 
ATOM     26  C   UNL     1       0.138  10.272  19.894  0.00  0.00    +0.000 C 
ATOM     27  O   UNL     1      -0.961  10.721  20.201  0.00  0.00    +0.000 OA
ATOM     28  C   UNL     1       0.800  10.505  18.526  0.00  0.00    +0.000 C 
ATOM     29  O   UNL     1       1.979   9.759  18.187  0.00  0.00    +0.000 OA
ATOM     30  H   UNL     1       1.698  10.133  21.002  0.00  0.00    +0.000 HD
ENDBRANCH  17  19
ENDBRANCH  16  17
ENDBRANCH   1  16
TORSDOF 7
ENDMDL
MODEL 6
REMARK VINA RESULT:      -7.9      5.647      8.256
REMARK  Name = 
REMARK  8 active torsions:
REMARK  status: ('A' for Active; 'I' for Inactive)
REMARK    1  A    between atoms: C_1  and  O_2
REMARK    2  A    between atoms: O_2  and  C_3
REMARK    3  A    between atoms: C_6  and  C_7
REMARK    4  A    between atoms: C_7  and  C_8
REMARK    5  A    between atoms: C_11  and  S_12
REMARK    6  A    between atoms: S_12  and  C_13
REMARK    7  A    between atoms: C_13  and  C_14
REMARK    8  A    between atoms: C_14  and  C_16
REMARK                            x       y       z     vdW  Elec       q    Type
REMARK                         _______ _______ _______ _____ _____    ______ ____
ROOT
ATOM      1  S   UNL     1       1.260   2.400  19.010  0.00  0.00    +0.000 S 
ENDROOT
BRANCH   1   5
ATOM      2  C   UNL     1       2.159   6.041  19.734  0.00  0.00    +0.000 A 
ATOM      3  N   UNL     1       2.163   5.593  20.973  0.00  0.00    +0.000 NA
ATOM      4  N   UNL     1       1.841   4.254  20.899  0.00  0.00    +0.000 NA
ATOM      5  C   UNL     1       1.673   3.973  19.622  0.00  0.00    +0.000 A 
ATOM      6  O   UNL     1       1.885   5.063  18.816  0.00  0.00    +0.000 OA
BRANCH   2   7
ATOM      7  C   UNL     1       2.400   7.417  19.231  0.00  0.00    +0.000 C 
BRANCH   7  11
ATOM      8  C   UNL     1      -0.131  10.409  21.086  0.00  0.00    +0.000 A 
ATOM      9  C   UNL     1       0.459   9.408  21.855  0.00  0.00    +0.000 A 
ATOM     10  C   UNL     1       1.289   8.449  21.264  0.00  0.00    +0.000 A 
ATOM     11  C   UNL     1       1.508   8.457  19.879  0.00  0.00    +0.000 A 
ATOM     12  C   UNL     1       0.906   9.466  19.105  0.00  0.00    +0.000 A 
ATOM     13  C   UNL     1       0.087  10.431  19.709  0.00  0.00    +0.000 A 
BRANCH   8  15
ATOM     14  C   UNL     1      -1.280  10.885  23.100  0.00  0.00    +0.000 C 
ATOM     15  O   UNL     1      -0.933  11.275  21.776  0.00  0.00    +0.000 OA
ENDBRANCH   8  15
ENDBRANCH   7  11
ENDBRANCH   2   7
ENDBRANCH   1   5
BRANCH   1  16
ATOM     16  C   UNL     1       2.672   2.105  17.901  0.00  0.00    +0.000 C 
BRANCH  16  17
ATOM     17  C   UNL     1       3.971   2.607  18.508  0.00  0.00    +0.000 C 
ATOM     18  O   UNL     1       4.372   2.281  19.623  0.00  0.00    +0.000 OA
BRANCH  17  19
ATOM     19  C   UNL     1       4.791   3.559  17.712  0.00  0.00    +0.000 A 
ATOM     20  C   UNL     1       5.811   4.341  18.282  0.00  0.00    +0.000 A 
ATOM     21  C   UNL     1       6.655   5.103  17.463  0.00  0.00    +0.000 A 
ATOM     22  C   UNL     1       6.483   5.061  16.081  0.00  0.00    +0.000 A 
ATOM     23  C   UNL     1       5.399   4.368  15.539  0.00  0.00    +0.000 A 
ATOM     24  C   UNL     1       4.548   3.624  16.339  0.00  0.00    +0.000 A 
ATOM     25  N   UNL     1       5.220   4.358  14.138  0.00  0.00    +0.000 N 
ATOM     26  C   UNL     1       6.418   4.174  13.467  0.00  0.00    +0.000 C 
ATOM     27  O   UNL     1       6.534   3.421  12.506  0.00  0.00    +0.000 OA
ATOM     28  C   UNL     1       7.571   5.022  14.026  0.00  0.00    +0.000 C 
ATOM     29  O   UNL     1       7.393   5.699  15.280  0.00  0.00    +0.000 OA
ATOM     30  H   UNL     1       4.929   5.306  13.894  0.00  0.00    +0.000 HD
ENDBRANCH  17  19
ENDBRANCH  16  17
ENDBRANCH   1  16
TORSDOF 7
ENDMDL
MODEL 7
REMARK VINA RESULT:      -7.9      2.605      3.185
REMARK  Name = 
REMARK  8 active torsions:
REMARK  status: ('A' for Active; 'I' for Inactive)
REMARK    1  A    between atoms: C_1  and  O_2
REMARK    2  A    between atoms: O_2  and  C_3
REMARK    3  A    between atoms: C_6  and  C_7
REMARK    4  A    between atoms: C_7  and  C_8
REMARK    5  A    between atoms: C_11  and  S_12
REMARK    6  A    between atoms: S_12  and  C_13
REMARK    7  A    between atoms: C_13  and  C_14
REMARK    8  A    between atoms: C_14  and  C_16
REMARK                            x       y       z     vdW  Elec       q    Type
REMARK                         _______ _______ _______ _____ _____    ______ ____
ROOT
ATOM      1  S   UNL     1       7.302   7.767  17.484  0.00  0.00    +0.000 S 
ENDROOT
BRANCH   1   5
ATOM      2  C   UNL     1       9.143  11.027  18.240  0.00  0.00    +0.000 A 
ATOM      3  N   UNL     1       9.565  10.325  19.272  0.00  0.00    +0.000 NA
ATOM      4  N   UNL     1       8.975   9.084  19.160  0.00  0.00    +0.000 NA
ATOM      5  C   UNL     1       8.242   9.108  18.065  0.00  0.00    +0.000 A 
ATOM      6  O   UNL     1       8.322  10.311  17.410  0.00  0.00    +0.000 OA
BRANCH   2   7
ATOM      7  C   UNL     1       9.431  12.439  17.882  0.00  0.00    +0.000 C 
BRANCH   7  11
ATOM      8  C   UNL     1       6.527  15.256  19.440  0.00  0.00    +0.000 A 
ATOM      9  C   UNL     1       7.546  14.769  20.256  0.00  0.00    +0.000 A 
ATOM     10  C   UNL     1       8.495  13.872  19.754  0.00  0.00    +0.000 A 
ATOM     11  C   UNL     1       8.411  13.417  18.430  0.00  0.00    +0.000 A 
ATOM     12  C   UNL     1       7.377  13.907  17.611  0.00  0.00    +0.000 A 
ATOM     13  C   UNL     1       6.439  14.817  18.120  0.00  0.00    +0.000 A 
BRANCH   8  15
ATOM     14  C   UNL     1       5.756  17.481  19.676  0.00  0.00    +0.000 C 
ATOM     15  O   UNL     1       5.654  16.113  20.051  0.00  0.00    +0.000 OA
ENDBRANCH   8  15
ENDBRANCH   7  11
ENDBRANCH   2   7
ENDBRANCH   1   5
BRANCH   1  16
ATOM     16  C   UNL     1       7.836   6.472  18.645  0.00  0.00    +0.000 C 
BRANCH  16  17
ATOM     17  C   UNL     1       7.326   5.104  18.225  0.00  0.00    +0.000 C 
ATOM     18  O   UNL     1       8.062   4.169  17.917  0.00  0.00    +0.000 OA
BRANCH  17  19
ATOM     19  C   UNL     1       5.855   4.894  18.169  0.00  0.00    +0.000 A 
ATOM     20  C   UNL     1       5.207   4.372  17.037  0.00  0.00    +0.000 A 
ATOM     21  C   UNL     1       3.844   4.048  17.093  0.00  0.00    +0.000 A 
ATOM     22  C   UNL     1       3.148   4.232  18.286  0.00  0.00    +0.000 A 
ATOM     23  C   UNL     1       3.778   4.851  19.366  0.00  0.00    +0.000 A 
ATOM     24  C   UNL     1       5.119   5.191  19.319  0.00  0.00    +0.000 A 
ATOM     25  N   UNL     1       3.052   5.057  20.560  0.00  0.00    +0.000 N 
ATOM     26  C   UNL     1       2.286   3.953  20.894  0.00  0.00    +0.000 C 
ATOM     27  O   UNL     1       2.207   3.518  22.038  0.00  0.00    +0.000 OA
ATOM     28  C   UNL     1       1.528   3.349  19.701  0.00  0.00    +0.000 C 
ATOM     29  O   UNL     1       1.855   3.788  18.374  0.00  0.00    +0.000 OA
ATOM     30  H   UNL     1       2.373   5.788  20.342  0.00  0.00    +0.000 HD
ENDBRANCH  17  19
ENDBRANCH  16  17
ENDBRANCH   1  16
TORSDOF 7
ENDMDL
MODEL 8
REMARK VINA RESULT:      -7.9      2.631      3.267
REMARK  Name = 
REMARK  8 active torsions:
REMARK  status: ('A' for Active; 'I' for Inactive)
REMARK    1  A    between atoms: C_1  and  O_2
REMARK    2  A    between atoms: O_2  and  C_3
REMARK    3  A    between atoms: C_6  and  C_7
REMARK    4  A    between atoms: C_7  and  C_8
REMARK    5  A    between atoms: C_11  and  S_12
REMARK    6  A    between atoms: S_12  and  C_13
REMARK    7  A    between atoms: C_13  and  C_14
REMARK    8  A    between atoms: C_14  and  C_16
REMARK                            x       y       z     vdW  Elec       q    Type
REMARK                         _______ _______ _______ _____ _____    ______ ____
ROOT
ATOM      1  S   UNL     1       7.400   7.852  17.458  0.00  0.00    +0.000 S 
ENDROOT
BRANCH   1   5
ATOM      2  C   UNL     1       9.197  11.109  18.327  0.00  0.00    +0.000 A 
ATOM      3  N   UNL     1       9.549  10.407  19.385  0.00  0.00    +0.000 NA
ATOM      4  N   UNL     1       8.965   9.167  19.237  0.00  0.00    +0.000 NA
ATOM      5  C   UNL     1       8.304   9.191  18.097  0.00  0.00    +0.000 A 
ATOM      6  O   UNL     1       8.429  10.393  17.447  0.00  0.00    +0.000 OA
BRANCH   2   7
ATOM      7  C   UNL     1       9.511  12.519  17.986  0.00  0.00    +0.000 C 
BRANCH   7  11
ATOM      8  C   UNL     1       6.316  15.259  19.025  0.00  0.00    +0.000 A 
ATOM      9  C   UNL     1       6.272  14.545  17.829  0.00  0.00    +0.000 A 
ATOM     10  C   UNL     1       7.293  13.647  17.497  0.00  0.00    +0.000 A 
ATOM     11  C   UNL     1       8.398  13.484  18.344  0.00  0.00    +0.000 A 
ATOM     12  C   UNL     1       8.441  14.212  19.548  0.00  0.00    +0.000 A 
ATOM     13  C   UNL     1       7.406  15.098  19.879  0.00  0.00    +0.000 A 
BRANCH   8  15
ATOM     14  C   UNL     1       4.401  15.796  20.308  0.00  0.00    +0.000 C 
ATOM     15  O   UNL     1       5.269  16.116  19.228  0.00  0.00    +0.000 OA
ENDBRANCH   8  15
ENDBRANCH   7  11
ENDBRANCH   2   7
ENDBRANCH   1   5
BRANCH   1  16
ATOM     16  C   UNL     1       7.841   6.561  18.663  0.00  0.00    +0.000 C 
BRANCH  16  17
ATOM     17  C   UNL     1       7.363   5.192  18.211  0.00  0.00    +0.000 C 
ATOM     18  O   UNL     1       8.121   4.280  17.887  0.00  0.00    +0.000 OA
BRANCH  17  19
ATOM     19  C   UNL     1       5.897   4.951  18.143  0.00  0.00    +0.000 A 
ATOM     20  C   UNL     1       5.273   4.390  17.016  0.00  0.00    +0.000 A 
ATOM     21  C   UNL     1       3.916   4.040  17.064  0.00  0.00    +0.000 A 
ATOM     22  C   UNL     1       3.203   4.237  18.243  0.00  0.00    +0.000 A 
ATOM     23  C   UNL     1       3.807   4.894  19.316  0.00  0.00    +0.000 A 
ATOM     24  C   UNL     1       5.142   5.260  19.277  0.00  0.00    +0.000 A 
ATOM     25  N   UNL     1       3.063   5.113  20.497  0.00  0.00    +0.000 N 
ATOM     26  C   UNL     1       2.315   4.002  20.848  0.00  0.00    +0.000 C 
ATOM     27  O   UNL     1       2.231   3.592  22.001  0.00  0.00    +0.000 OA
ATOM     28  C   UNL     1       1.583   3.355  19.660  0.00  0.00    +0.000 C 
ATOM     29  O   UNL     1       1.918   3.770  18.327  0.00  0.00    +0.000 OA
ATOM     30  H   UNL     1       2.372   5.825  20.254  0.00  0.00    +0.000 HD
ENDBRANCH  17  19
ENDBRANCH  16  17
ENDBRANCH   1  16
TORSDOF 7
ENDMDL
MODEL 9
REMARK VINA RESULT:      -7.9      3.511      9.654
REMARK  Name = 
REMARK  8 active torsions:
REMARK  status: ('A' for Active; 'I' for Inactive)
REMARK    1  A    between atoms: C_1  and  O_2
REMARK    2  A    between atoms: O_2  and  C_3
REMARK    3  A    between atoms: C_6  and  C_7
REMARK    4  A    between atoms: C_7  and  C_8
REMARK    5  A    between atoms: C_11  and  S_12
REMARK    6  A    between atoms: S_12  and  C_13
REMARK    7  A    between atoms: C_13  and  C_14
REMARK    8  A    between atoms: C_14  and  C_16
REMARK                            x       y       z     vdW  Elec       q    Type
REMARK                         _______ _______ _______ _____ _____    ______ ____
ROOT
ATOM      1  S   UNL     1       8.285   9.838  17.907  0.00  0.00    +0.000 S 
ENDROOT
BRANCH   1   5
ATOM      2  C   UNL     1       6.936   6.352  17.121  0.00  0.00    +0.000 A 
ATOM      3  N   UNL     1       7.619   6.053  18.208  0.00  0.00    +0.000 NA
ATOM      4  N   UNL     1       8.196   7.230  18.635  0.00  0.00    +0.000 NA
ATOM      5  C   UNL     1       7.820   8.168  17.789  0.00  0.00    +0.000 A 
ATOM      6  O   UNL     1       6.991   7.685  16.809  0.00  0.00    +0.000 OA
BRANCH   2   7
ATOM      7  C   UNL     1       6.151   5.463  16.229  0.00  0.00    +0.000 C 
BRANCH   7  11
ATOM      8  C   UNL     1       2.349   4.236  17.912  0.00  0.00    +0.000 A 
ATOM      9  C   UNL     1       2.770   5.560  18.011  0.00  0.00    +0.000 A 
ATOM     10  C   UNL     1       3.989   5.965  17.456  0.00  0.00    +0.000 A 
ATOM     11  C   UNL     1       4.825   5.033  16.826  0.00  0.00    +0.000 A 
ATOM     12  C   UNL     1       4.399   3.695  16.733  0.00  0.00    +0.000 A 
ATOM     13  C   UNL     1       3.169   3.303  17.280  0.00  0.00    +0.000 A 
BRANCH   8  15
ATOM     14  C   UNL     1       1.019   2.669  19.087  0.00  0.00    +0.000 C 
ATOM     15  O   UNL     1       1.148   3.962  18.509  0.00  0.00    +0.000 OA
ENDBRANCH   8  15
ENDBRANCH   7  11
ENDBRANCH   2   7
ENDBRANCH   1   5
BRANCH   1  16
ATOM     16  C   UNL     1       9.312   9.782  19.408  0.00  0.00    +0.000 C 
BRANCH  16  17
ATOM     17  C   UNL     1       9.944  11.133  19.701  0.00  0.00    +0.000 C 
ATOM     18  O   UNL     1      11.015  11.500  19.222  0.00  0.00    +0.000 OA
BRANCH  17  19
ATOM     19  C   UNL     1       9.234  12.049  20.631  0.00  0.00    +0.000 A 
ATOM     20  C   UNL     1       8.903  13.371  20.287  0.00  0.00    +0.000 A 
ATOM     21  C   UNL     1       8.097  14.139  21.139  0.00  0.00    +0.000 A 
ATOM     22  C   UNL     1       7.615  13.573  22.316  0.00  0.00    +0.000 A 
ATOM     23  C   UNL     1       8.041  12.299  22.696  0.00  0.00    +0.000 A 
ATOM     24  C   UNL     1       8.850  11.535  21.871  0.00  0.00    +0.000 A 
ATOM     25  N   UNL     1       7.567  11.747  23.907  0.00  0.00    +0.000 N 
ATOM     26  C   UNL     1       6.213  11.980  24.083  0.00  0.00    +0.000 C 
ATOM     27  O   UNL     1       5.436  11.122  24.490  0.00  0.00    +0.000 OA
ATOM     28  C   UNL     1       5.789  13.419  23.749  0.00  0.00    +0.000 C 
ATOM     29  O   UNL     1       6.721  14.280  23.075  0.00  0.00    +0.000 OA
ATOM     30  H   UNL     1       8.021  12.285  24.647  0.00  0.00    +0.000 HD
ENDBRANCH  17  19
ENDBRANCH  16  17
ENDBRANCH   1  16
TORSDOF 7
ENDMDL
