MODEL 1
REMARK VINA RESULT:      -6.4      0.000      0.000
REMARK  Name = 
REMARK  15 active torsions:
REMARK  status: ('A' for Active; 'I' for Inactive)
REMARK    1  A    between atoms: C_1  and  C_2
REMARK    2  A    between atoms: C_2  and  N_3
REMARK    3  A    between atoms: C_2  and  C_4
REMARK    4  A    between atoms: N_6  and  C_7
REMARK    5  A    between atoms: C_7  and  C_8
REMARK    6  A    between atoms: C_7  and  C_13
REMARK    7  A    between atoms: C_8  and  C_9
REMARK    8  A    between atoms: C_9  and  C_10
REMARK    9  A    between atoms: N_15  and  C_16
REMARK   10  A    between atoms: C_16  and  C_17
REMARK   11  A    between atoms: C_17  and  C_18
REMARK   12  A    between atoms: C_18  and  C_19
REMARK   13  A    between atoms: C_19  and  C_20
REMARK   14  A    between atoms: C_20  and  C_21
REMARK   15  A    between atoms: C_21  and  O_23
REMARK                            x       y       z     vdW  Elec       q    Type
REMARK                         _______ _______ _______ _____ _____    ______ ____
ROOT
ATOM      1  C   UNL     1       5.483   4.533  16.979  0.00  0.00    +0.000 C 
ENDROOT
BRANCH   1   4
ATOM      2  C   UNL     1       6.738   6.650  17.334  0.00  0.00    +0.000 C 
ATOM      3  O   UNL     1       5.868   7.331  16.800  0.00  0.00    +0.000 OA
ATOM      4  N   UNL     1       6.646   5.282  17.442  0.00  0.00    +0.000 N 
ATOM      5  H   UNL     1       7.318   4.812  18.049  0.00  0.00    +0.000 HD
BRANCH   2   7
ATOM      6  C   UNL     1       8.019   8.752  17.948  0.00  0.00    +0.000 C 
ATOM      7  C   UNL     1       8.049   7.229  17.911  0.00  0.00    +0.000 C 
BRANCH   7   8
ATOM      8  N   UNL     1       8.282   6.678  19.262  0.00  0.00    +0.000 NA
ATOM      9  H   UNL     1       8.994   5.949  19.200  0.00  0.00    +0.000 HD
ATOM     10  H   UNL     1       7.435   6.200  19.572  0.00  0.00    +0.000 HD
ENDBRANCH   7   8
ENDBRANCH   2   7
ENDBRANCH   1   4
BRANCH   1  11
ATOM     11  C   UNL     1       4.967   3.701  18.166  0.00  0.00    +0.000 C 
ATOM     12  O   UNL     1       5.456   3.805  19.292  0.00  0.00    +0.000 OA
ATOM     13  N   UNL     1       3.975   2.794  17.847  0.00  0.00    +0.000 N 
ATOM     14  H   UNL     1       3.615   2.759  16.902  0.00  0.00    +0.000 HD
BRANCH  13  15
ATOM     15  C   UNL     1       3.487   1.823  18.805  0.00  0.00    +0.000 C 
BRANCH  15  16
ATOM     16  C   UNL     1       1.968   1.887  18.950  0.00  0.00    +0.000 C 
BRANCH  16  17
ATOM     17  C   UNL     1       1.514   2.655  20.198  0.00  0.00    +0.000 C 
BRANCH  17  18
ATOM     18  C   UNL     1       1.275   4.141  19.919  0.00  0.00    +0.000 C 
BRANCH  18  19
ATOM     19  C   UNL     1       2.307   5.042  20.592  0.00  0.00    +0.000 C 
BRANCH  19  20
ATOM     20  C   UNL     1       2.487   6.334  19.820  0.00  0.00    +0.000 C 
ATOM     21  O   UNL     1       2.864   6.420  18.663  0.00  0.00    +0.000 OA
BRANCH  20  22
ATOM     22  O   UNL     1       2.177   7.421  20.561  0.00  0.00    +0.000 OA
ATOM     23  H   UNL     1       1.222   7.621  20.589  0.00  0.00    +0.000 HD
ENDBRANCH  20  22
ENDBRANCH  19  20
ENDBRANCH  18  19
ENDBRANCH  17  18
ENDBRANCH  16  17
ENDBRANCH  15  16
ENDBRANCH  13  15
ENDBRANCH   1  11
BRANCH   1  24
ATOM     24  C   UNL     1       5.864   3.624  15.798  0.00  0.00    +0.000 C 
BRANCH  24  25
ATOM     25  C   UNL     1       5.713   4.306  14.438  0.00  0.00    +0.000 C 
BRANCH  25  26
ATOM     26  C   UNL     1       7.024   4.758  13.839  0.00  0.00    +0.000 C 
ATOM     27  N   UNL     1       7.219   4.450  12.527  0.00  0.00    +0.000 N 
ATOM     28  O   UNL     1       7.846   5.423  14.459  0.00  0.00    +0.000 OA
ATOM     29  H   UNL     1       6.584   3.884  11.981  0.00  0.00    +0.000 HD
ATOM     30  H   UNL     1       8.078   4.765  12.095  0.00  0.00    +0.000 HD
ENDBRANCH  25  26
ENDBRANCH  24  25
ENDBRANCH   1  24
TORSDOF 14
ENDMDL
MODEL 2
REMARK VINA RESULT:      -6.4      2.242      4.503
REMARK  Name = 
REMARK  15 active torsions:
REMARK  status: ('A' for Active; 'I' for Inactive)
REMARK    1  A    between atoms: C_1  and  C_2
REMARK    2  A    between atoms: C_2  and  N_3
REMARK    3  A    between atoms: C_2  and  C_4
REMARK    4  A    between atoms: N_6  and  C_7
REMARK    5  A    between atoms: C_7  and  C_8
REMARK    6  A    between atoms: C_7  and  C_13
REMARK    7  A    between atoms: C_8  and  C_9
REMARK    8  A    between atoms: C_9  and  C_10
REMARK    9  A    between atoms: N_15  and  C_16
REMARK   10  A    between atoms: C_16  and  C_17
REMARK   11  A    between atoms: C_17  and  C_18
REMARK   12  A    between atoms: C_18  and  C_19
REMARK   13  A    between atoms: C_19  and  C_20
REMARK   14  A    between atoms: C_20  and  C_21
REMARK   15  A    between atoms: C_21  and  O_23
REMARK                            x       y       z     vdW  Elec       q    Type
REMARK                         _______ _______ _______ _____ _____    ______ ____
ROOT
ATOM      1  C   UNL     1       4.995   5.699  17.951  0.00  0.00    +0.000 C 
ENDROOT
BRANCH   1   4
ATOM      2  C   UNL     1       6.665   5.421  16.130  0.00  0.00    +0.000 C 
ATOM      3  O   UNL     1       7.406   6.284  16.590  0.00  0.00    +0.000 OA
ATOM      4  N   UNL     1       5.463   5.090  16.710  0.00  0.00    +0.000 N 
ATOM      5  H   UNL     1       4.992   4.251  16.372  0.00  0.00    +0.000 HD
BRANCH   2   7
ATOM      6  C   UNL     1       5.678   4.180  14.149  0.00  0.00    +0.000 C 
ATOM      7  C   UNL     1       6.962   4.635  14.833  0.00  0.00    +0.000 C 
BRANCH   7   8
ATOM      8  N   UNL     1       7.773   5.469  13.922  0.00  0.00    +0.000 NA
ATOM      9  H   UNL     1       7.203   6.255  13.606  0.00  0.00    +0.000 HD
ATOM     10  H   UNL     1       7.978   4.931  13.080  0.00  0.00    +0.000 HD
ENDBRANCH   7   8
ENDBRANCH   2   7
ENDBRANCH   1   4
BRANCH   1  11
ATOM     11  C   UNL     1       5.391   4.759  19.104  0.00  0.00    +0.000 C 
ATOM     12  O   UNL     1       6.432   4.917  19.741  0.00  0.00    +0.000 OA
ATOM     13  N   UNL     1       4.527   3.700  19.307  0.00  0.00    +0.000 N 
ATOM     14  H   UNL     1       3.686   3.627  18.749  0.00  0.00    +0.000 HD
BRANCH  13  15
ATOM     15  C   UNL     1       4.827   2.634  20.240  0.00  0.00    +0.000 C 
BRANCH  15  16
ATOM     16  C   UNL     1       3.567   2.123  20.938  0.00  0.00    +0.000 C 
BRANCH  16  17
ATOM     17  C   UNL     1       2.613   3.249  21.358  0.00  0.00    +0.000 C 
BRANCH  17  18
ATOM     18  C   UNL     1       1.162   2.969  20.960  0.00  0.00    +0.000 C 
BRANCH  18  19
ATOM     19  C   UNL     1       0.755   3.682  19.673  0.00  0.00    +0.000 C 
BRANCH  19  20
ATOM     20  C   UNL     1       1.144   2.870  18.454  0.00  0.00    +0.000 C 
ATOM     21  O   UNL     1       1.529   3.329  17.392  0.00  0.00    +0.000 OA
BRANCH  20  22
ATOM     22  O   UNL     1       1.021   1.540  18.664  0.00  0.00    +0.000 OA
ATOM     23  H   UNL     1       1.760   1.150  19.168  0.00  0.00    +0.000 HD
ENDBRANCH  20  22
ENDBRANCH  19  20
ENDBRANCH  18  19
ENDBRANCH  17  18
ENDBRANCH  16  17
ENDBRANCH  15  16
ENDBRANCH  13  15
ENDBRANCH   1  11
BRANCH   1  24
ATOM     24  C   UNL     1       3.471   5.902  17.910  0.00  0.00    +0.000 C 
BRANCH  24  25
ATOM     25  C   UNL     1       3.054   7.368  18.041  0.00  0.00    +0.000 C 
BRANCH  25  26
ATOM     26  C   UNL     1       2.245   7.657  19.285  0.00  0.00    +0.000 C 
ATOM     27  N   UNL     1       2.368   6.758  20.299  0.00  0.00    +0.000 N 
ATOM     28  O   UNL     1       1.569   8.670  19.419  0.00  0.00    +0.000 OA
ATOM     29  H   UNL     1       2.893   5.897  20.228  0.00  0.00    +0.000 HD
ATOM     30  H   UNL     1       1.857   6.943  21.153  0.00  0.00    +0.000 HD
ENDBRANCH  25  26
ENDBRANCH  24  25
ENDBRANCH   1  24
TORSDOF 14
ENDMDL
MODEL 3
REMARK VINA RESULT:      -6.2      1.940      4.473
REMARK  Name = 
REMARK  15 active torsions:
REMARK  status: ('A' for Active; 'I' for Inactive)
REMARK    1  A    between atoms: C_1  and  C_2
REMARK    2  A    between atoms: C_2  and  N_3
REMARK    3  A    between atoms: C_2  and  C_4
REMARK    4  A    between atoms: N_6  and  C_7
REMARK    5  A    between atoms: C_7  and  C_8
REMARK    6  A    between atoms: C_7  and  C_13
REMARK    7  A    between atoms: C_8  and  C_9
REMARK    8  A    between atoms: C_9  and  C_10
REMARK    9  A    between atoms: N_15  and  C_16
REMARK   10  A    between atoms: C_16  and  C_17
REMARK   11  A    between atoms: C_17  and  C_18
REMARK   12  A    between atoms: C_18  and  C_19
REMARK   13  A    between atoms: C_19  and  C_20
REMARK   14  A    between atoms: C_20  and  C_21
REMARK   15  A    between atoms: C_21  and  O_23
REMARK                            x       y       z     vdW  Elec       q    Type
REMARK                         _______ _______ _______ _____ _____    ______ ____
ROOT
ATOM      1  C   UNL     1       5.795   4.639  16.609  0.00  0.00    +0.000 C 
ENDROOT
BRANCH   1   4
ATOM      2  C   UNL     1       6.754   4.656  14.314  0.00  0.00    +0.000 C 
ATOM      3  O   UNL     1       7.812   5.150  14.690  0.00  0.00    +0.000 OA
ATOM      4  N   UNL     1       5.710   4.397  15.173  0.00  0.00    +0.000 N 
ATOM      5  H   UNL     1       4.940   3.829  14.820  0.00  0.00    +0.000 HD
BRANCH   2   7
ATOM      6  C   UNL     1       7.517   4.838  11.902  0.00  0.00    +0.000 C 
ATOM      7  C   UNL     1       6.445   4.301  12.843  0.00  0.00    +0.000 C 
BRANCH   7   8
ATOM      8  N   UNL     1       6.313   2.836  12.703  0.00  0.00    +0.000 NA
ATOM      9  H   UNL     1       5.901   2.462  13.559  0.00  0.00    +0.000 HD
ATOM     10  H   UNL     1       7.246   2.426  12.653  0.00  0.00    +0.000 HD
ENDBRANCH   7   8
ENDBRANCH   2   7
ENDBRANCH   1   4
BRANCH   1  11
ATOM     11  C   UNL     1       4.411   4.338  17.210  0.00  0.00    +0.000 C 
ATOM     12  O   UNL     1       3.886   3.229  17.105  0.00  0.00    +0.000 OA
ATOM     13  N   UNL     1       3.791   5.421  17.803  0.00  0.00    +0.000 N 
ATOM     14  H   UNL     1       4.278   6.307  17.858  0.00  0.00    +0.000 HD
BRANCH  13  15
ATOM     15  C   UNL     1       2.425   5.358  18.277  0.00  0.00    +0.000 C 
BRANCH  15  16
ATOM     16  C   UNL     1       2.236   6.157  19.565  0.00  0.00    +0.000 C 
BRANCH  16  17
ATOM     17  C   UNL     1       1.790   5.292  20.751  0.00  0.00    +0.000 C 
BRANCH  17  18
ATOM     18  C   UNL     1       0.890   4.130  20.326  0.00  0.00    +0.000 C 
BRANCH  18  19
ATOM     19  C   UNL     1       1.367   2.785  20.868  0.00  0.00    +0.000 C 
BRANCH  19  20
ATOM     20  C   UNL     1       2.548   2.265  20.073  0.00  0.00    +0.000 C 
ATOM     21  O   UNL     1       3.719   2.374  20.395  0.00  0.00    +0.000 OA
BRANCH  20  22
ATOM     22  O   UNL     1       2.166   1.645  18.934  0.00  0.00    +0.000 OA
ATOM     23  H   UNL     1       1.589   2.187  18.364  0.00  0.00    +0.000 HD
ENDBRANCH  20  22
ENDBRANCH  19  20
ENDBRANCH  18  19
ENDBRANCH  17  18
ENDBRANCH  16  17
ENDBRANCH  15  16
ENDBRANCH  13  15
ENDBRANCH   1  11
BRANCH   1  24
ATOM     24  C   UNL     1       6.207   6.095  16.886  0.00  0.00    +0.000 C 
BRANCH  24  25
ATOM     25  C   UNL     1       7.438   6.214  17.785  0.00  0.00    +0.000 C 
BRANCH  25  26
ATOM     26  C   UNL     1       7.224   5.667  19.177  0.00  0.00    +0.000 C 
ATOM     27  N   UNL     1       8.350   5.383  19.887  0.00  0.00    +0.000 N 
ATOM     28  O   UNL     1       6.114   5.546  19.682  0.00  0.00    +0.000 OA
ATOM     29  H   UNL     1       9.285   5.443  19.507  0.00  0.00    +0.000 HD
ATOM     30  H   UNL     1       8.234   5.040  20.832  0.00  0.00    +0.000 HD
ENDBRANCH  25  26
ENDBRANCH  24  25
ENDBRANCH   1  24
TORSDOF 14
ENDMDL
MODEL 4
REMARK VINA RESULT:      -6.1      2.048      4.135
REMARK  Name = 
REMARK  15 active torsions:
REMARK  status: ('A' for Active; 'I' for Inactive)
REMARK    1  A    between atoms: C_1  and  C_2
REMARK    2  A    between atoms: C_2  and  N_3
REMARK    3  A    between atoms: C_2  and  C_4
REMARK    4  A    between atoms: N_6  and  C_7
REMARK    5  A    between atoms: C_7  and  C_8
REMARK    6  A    between atoms: C_7  and  C_13
REMARK    7  A    between atoms: C_8  and  C_9
REMARK    8  A    between atoms: C_9  and  C_10
REMARK    9  A    between atoms: N_15  and  C_16
REMARK   10  A    between atoms: C_16  and  C_17
REMARK   11  A    between atoms: C_17  and  C_18
REMARK   12  A    between atoms: C_18  and  C_19
REMARK   13  A    between atoms: C_19  and  C_20
REMARK   14  A    between atoms: C_20  and  C_21
REMARK   15  A    between atoms: C_21  and  O_23
REMARK                            x       y       z     vdW  Elec       q    Type
REMARK                         _______ _______ _______ _____ _____    ______ ____
ROOT
ATOM      1  C   UNL     1       5.489   4.581  16.418  0.00  0.00    +0.000 C 
ENDROOT
BRANCH   1   4
ATOM      2  C   UNL     1       6.583   4.372  14.195  0.00  0.00    +0.000 C 
ATOM      3  O   UNL     1       7.466   5.174  14.483  0.00  0.00    +0.000 OA
ATOM      4  N   UNL     1       5.568   4.044  15.064  0.00  0.00    +0.000 N 
ATOM      5  H   UNL     1       4.979   3.247  14.821  0.00  0.00    +0.000 HD
BRANCH   2   7
ATOM      6  C   UNL     1       5.025   3.567  12.361  0.00  0.00    +0.000 C 
ATOM      7  C   UNL     1       6.474   3.667  12.824  0.00  0.00    +0.000 C 
BRANCH   7   8
ATOM      8  N   UNL     1       7.292   4.391  11.829  0.00  0.00    +0.000 NA
ATOM      9  H   UNL     1       8.233   4.510  12.205  0.00  0.00    +0.000 HD
ATOM     10  H   UNL     1       6.922   5.337  11.725  0.00  0.00    +0.000 HD
ENDBRANCH   7   8
ENDBRANCH   2   7
ENDBRANCH   1   4
BRANCH   1  11
ATOM     11  C   UNL     1       4.713   3.562  17.273  0.00  0.00    +0.000 C 
ATOM     12  O   UNL     1       3.742   2.950  16.830  0.00  0.00    +0.000 OA
ATOM     13  N   UNL     1       5.151   3.454  18.579  0.00  0.00    +0.000 N 
ATOM     14  H   UNL     1       5.958   3.985  18.882  0.00  0.00    +0.000 HD
BRANCH  13  15
ATOM     15  C   UNL     1       4.440   2.664  19.563  0.00  0.00    +0.000 C 
BRANCH  15  16
ATOM     16  C   UNL     1       3.667   3.545  20.542  0.00  0.00    +0.000 C 
BRANCH  16  17
ATOM     17  C   UNL     1       3.403   4.957  20.003  0.00  0.00    +0.000 C 
BRANCH  17  18
ATOM     18  C   UNL     1       1.951   5.156  19.561  0.00  0.00    +0.000 C 
BRANCH  18  19
ATOM     19  C   UNL     1       1.077   3.935  19.838  0.00  0.00    +0.000 C 
BRANCH  19  20
ATOM     20  C   UNL     1       0.782   3.176  18.559  0.00  0.00    +0.000 C 
ATOM     21  O   UNL     1       0.274   2.069  18.495  0.00  0.00    +0.000 OA
BRANCH  20  22
ATOM     22  O   UNL     1       1.147   3.868  17.457  0.00  0.00    +0.000 OA
ATOM     23  H   UNL     1       0.408   4.329  17.017  0.00  0.00    +0.000 HD
ENDBRANCH  20  22
ENDBRANCH  19  20
ENDBRANCH  18  19
ENDBRANCH  17  18
ENDBRANCH  16  17
ENDBRANCH  15  16
ENDBRANCH  13  15
ENDBRANCH   1  11
BRANCH   1  24
ATOM     24  C   UNL     1       4.779   5.946  16.415  0.00  0.00    +0.000 C 
BRANCH  24  25
ATOM     25  C   UNL     1       5.395   6.948  17.392  0.00  0.00    +0.000 C 
BRANCH  25  26
ATOM     26  C   UNL     1       6.847   6.671  17.707  0.00  0.00    +0.000 C 
ATOM     27  N   UNL     1       7.755   7.177  16.828  0.00  0.00    +0.000 N 
ATOM     28  O   UNL     1       7.209   6.091  18.724  0.00  0.00    +0.000 OA
ATOM     29  H   UNL     1       7.506   7.640  15.966  0.00  0.00    +0.000 HD
ATOM     30  H   UNL     1       8.735   7.028  17.031  0.00  0.00    +0.000 HD
ENDBRANCH  25  26
ENDBRANCH  24  25
ENDBRANCH   1  24
TORSDOF 14
ENDMDL
MODEL 5
REMARK VINA RESULT:      -6.1      2.406      3.820
REMARK  Name = 
REMARK  15 active torsions:
REMARK  status: ('A' for Active; 'I' for Inactive)
REMARK    1  A    between atoms: C_1  and  C_2
REMARK    2  A    between atoms: C_2  and  N_3
REMARK    3  A    between atoms: C_2  and  C_4
REMARK    4  A    between atoms: N_6  and  C_7
REMARK    5  A    between atoms: C_7  and  C_8
REMARK    6  A    between atoms: C_7  and  C_13
REMARK    7  A    between atoms: C_8  and  C_9
REMARK    8  A    between atoms: C_9  and  C_10
REMARK    9  A    between atoms: N_15  and  C_16
REMARK   10  A    between atoms: C_16  and  C_17
REMARK   11  A    between atoms: C_17  and  C_18
REMARK   12  A    between atoms: C_18  and  C_19
REMARK   13  A    between atoms: C_19  and  C_20
REMARK   14  A    between atoms: C_20  and  C_21
REMARK   15  A    between atoms: C_21  and  O_23
REMARK                            x       y       z     vdW  Elec       q    Type
REMARK                         _______ _______ _______ _____ _____    ______ ____
ROOT
ATOM      1  C   UNL     1       3.681   6.061  17.760  0.00  0.00    +0.000 C 
ENDROOT
BRANCH   1   4
ATOM      2  C   UNL     1       2.270   7.807  18.828  0.00  0.00    +0.000 C 
ATOM      3  O   UNL     1       1.917   8.273  17.749  0.00  0.00    +0.000 OA
ATOM      4  N   UNL     1       3.144   6.750  18.928  0.00  0.00    +0.000 N 
ATOM      5  H   UNL     1       3.249   6.311  19.843  0.00  0.00    +0.000 HD
BRANCH   2   7
ATOM      6  C   UNL     1       0.670   9.358  20.041  0.00  0.00    +0.000 C 
ATOM      7  C   UNL     1       1.816   8.365  20.195  0.00  0.00    +0.000 C 
BRANCH   7   8
ATOM      8  N   UNL     1       1.424   7.249  21.081  0.00  0.00    +0.000 NA
ATOM      9  H   UNL     1       0.469   7.408  21.403  0.00  0.00    +0.000 HD
ATOM     10  H   UNL     1       2.000   7.280  21.923  0.00  0.00    +0.000 HD
ENDBRANCH   7   8
ENDBRANCH   2   7
ENDBRANCH   1   4
BRANCH   1  11
ATOM     11  C   UNL     1       3.766   4.563  18.106  0.00  0.00    +0.000 C 
ATOM     12  O   UNL     1       4.560   4.135  18.945  0.00  0.00    +0.000 OA
ATOM     13  N   UNL     1       2.939   3.750  17.355  0.00  0.00    +0.000 N 
ATOM     14  H   UNL     1       2.308   4.165  16.681  0.00  0.00    +0.000 HD
BRANCH  13  15
ATOM     15  C   UNL     1       3.004   2.306  17.437  0.00  0.00    +0.000 C 
BRANCH  15  16
ATOM     16  C   UNL     1       2.167   1.767  18.596  0.00  0.00    +0.000 C 
BRANCH  16  17
ATOM     17  C   UNL     1       0.767   2.390  18.667  0.00  0.00    +0.000 C 
BRANCH  17  18
ATOM     18  C   UNL     1       0.664   3.484  19.733  0.00  0.00    +0.000 C 
BRANCH  18  19
ATOM     19  C   UNL     1       0.961   2.970  21.139  0.00  0.00    +0.000 C 
BRANCH  19  20
ATOM     20  C   UNL     1       2.382   3.301  21.551  0.00  0.00    +0.000 C 
ATOM     21  O   UNL     1       3.197   2.503  21.982  0.00  0.00    +0.000 OA
BRANCH  20  22
ATOM     22  O   UNL     1       2.671   4.611  21.386  0.00  0.00    +0.000 OA
ATOM     23  H   UNL     1       2.913   4.850  20.471  0.00  0.00    +0.000 HD
ENDBRANCH  20  22
ENDBRANCH  19  20
ENDBRANCH  18  19
ENDBRANCH  17  18
ENDBRANCH  16  17
ENDBRANCH  15  16
ENDBRANCH  13  15
ENDBRANCH   1  11
BRANCH   1  24
ATOM     24  C   UNL     1       5.069   6.618  17.398  0.00  0.00    +0.000 C 
BRANCH  24  25
ATOM     25  C   UNL     1       5.633   6.035  16.102  0.00  0.00    +0.000 C 
BRANCH  25  26
ATOM     26  C   UNL     1       6.919   5.265  16.294  0.00  0.00    +0.000 C 
ATOM     27  N   UNL     1       7.291   5.038  17.583  0.00  0.00    +0.000 N 
ATOM     28  O   UNL     1       7.565   4.804  15.361  0.00  0.00    +0.000 OA
ATOM     29  H   UNL     1       6.806   5.417  18.385  0.00  0.00    +0.000 HD
ATOM     30  H   UNL     1       8.135   4.501  17.739  0.00  0.00    +0.000 HD
ENDBRANCH  25  26
ENDBRANCH  24  25
ENDBRANCH   1  24
TORSDOF 14
ENDMDL
MODEL 6
REMARK VINA RESULT:      -6.1      2.178      4.282
REMARK  Name = 
REMARK  15 active torsions:
REMARK  status: ('A' for Active; 'I' for Inactive)
REMARK    1  A    between atoms: C_1  and  C_2
REMARK    2  A    between atoms: C_2  and  N_3
REMARK    3  A    between atoms: C_2  and  C_4
REMARK    4  A    between atoms: N_6  and  C_7
REMARK    5  A    between atoms: C_7  and  C_8
REMARK    6  A    between atoms: C_7  and  C_13
REMARK    7  A    between atoms: C_8  and  C_9
REMARK    8  A    between atoms: C_9  and  C_10
REMARK    9  A    between atoms: N_15  and  C_16
REMARK   10  A    between atoms: C_16  and  C_17
REMARK   11  A    between atoms: C_17  and  C_18
REMARK   12  A    between atoms: C_18  and  C_19
REMARK   13  A    between atoms: C_19  and  C_20
REMARK   14  A    between atoms: C_20  and  C_21
REMARK   15  A    between atoms: C_21  and  O_23
REMARK                            x       y       z     vdW  Elec       q    Type
REMARK                         _______ _______ _______ _____ _____    ______ ____
ROOT
ATOM      1  C   UNL     1       6.183   4.886  16.983  0.00  0.00    +0.000 C 
ENDROOT
BRANCH   1   4
ATOM      2  C   UNL     1       4.613   3.275  18.043  0.00  0.00    +0.000 C 
ATOM      3  O   UNL     1       5.070   3.469  19.165  0.00  0.00    +0.000 OA
ATOM      4  N   UNL     1       5.109   3.901  16.923  0.00  0.00    +0.000 N 
ATOM      5  H   UNL     1       4.567   3.823  16.061  0.00  0.00    +0.000 HD
BRANCH   2   7
ATOM      6  C   UNL     1       3.227   1.334  18.905  0.00  0.00    +0.000 C 
ATOM      7  C   UNL     1       3.464   2.287  17.741  0.00  0.00    +0.000 C 
BRANCH   7   8
ATOM      8  N   UNL     1       2.233   3.041  17.423  0.00  0.00    +0.000 NA
ATOM      9  H   UNL     1       2.198   3.873  18.013  0.00  0.00    +0.000 HD
ATOM     10  H   UNL     1       1.425   2.482  17.700  0.00  0.00    +0.000 HD
ENDBRANCH   7   8
ENDBRANCH   2   7
ENDBRANCH   1   4
BRANCH   1  11
ATOM     11  C   UNL     1       5.530   6.280  17.010  0.00  0.00    +0.000 C 
ATOM     12  O   UNL     1       6.200   7.311  16.954  0.00  0.00    +0.000 OA
ATOM     13  N   UNL     1       4.158   6.270  17.174  0.00  0.00    +0.000 N 
ATOM     14  H   UNL     1       3.665   5.387  17.213  0.00  0.00    +0.000 HD
BRANCH  13  15
ATOM     15  C   UNL     1       3.402   7.488  17.379  0.00  0.00    +0.000 C 
BRANCH  15  16
ATOM     16  C   UNL     1       2.594   7.440  18.674  0.00  0.00    +0.000 C 
BRANCH  16  17
ATOM     17  C   UNL     1       3.052   6.330  19.629  0.00  0.00    +0.000 C 
BRANCH  17  18
ATOM     18  C   UNL     1       1.924   5.360  19.987  0.00  0.00    +0.000 C 
BRANCH  18  19
ATOM     19  C   UNL     1       2.263   4.475  21.184  0.00  0.00    +0.000 C 
BRANCH  19  20
ATOM     20  C   UNL     1       1.372   3.249  21.225  0.00  0.00    +0.000 C 
ATOM     21  O   UNL     1       1.394   2.387  22.088  0.00  0.00    +0.000 OA
BRANCH  20  22
ATOM     22  O   UNL     1       0.519   3.201  20.178  0.00  0.00    +0.000 OA
ATOM     23  H   UNL     1       0.769   3.785  19.437  0.00  0.00    +0.000 HD
ENDBRANCH  20  22
ENDBRANCH  19  20
ENDBRANCH  18  19
ENDBRANCH  17  18
ENDBRANCH  16  17
ENDBRANCH  15  16
ENDBRANCH  13  15
ENDBRANCH   1  11
BRANCH   1  24
ATOM     24  C   UNL     1       7.115   4.742  15.768  0.00  0.00    +0.000 C 
BRANCH  24  25
ATOM     25  C   UNL     1       6.365   4.667  14.438  0.00  0.00    +0.000 C 
BRANCH  25  26
ATOM     26  C   UNL     1       7.262   4.796  13.229  0.00  0.00    +0.000 C 
ATOM     27  N   UNL     1       8.287   5.685  13.339  0.00  0.00    +0.000 N 
ATOM     28  O   UNL     1       7.136   4.100  12.228  0.00  0.00    +0.000 OA
ATOM     29  H   UNL     1       8.419   6.297  14.132  0.00  0.00    +0.000 HD
ATOM     30  H   UNL     1       8.919   5.771  12.552  0.00  0.00    +0.000 HD
ENDBRANCH  25  26
ENDBRANCH  24  25
ENDBRANCH   1  24
TORSDOF 14
ENDMDL
MODEL 7
REMARK VINA RESULT:      -6.1      2.756      5.244
REMARK  Name = 
REMARK  15 active torsions:
REMARK  status: ('A' for Active; 'I' for Inactive)
REMARK    1  A    between atoms: C_1  and  C_2
REMARK    2  A    between atoms: C_2  and  N_3
REMARK    3  A    between atoms: C_2  and  C_4
REMARK    4  A    between atoms: N_6  and  C_7
REMARK    5  A    between atoms: C_7  and  C_8
REMARK    6  A    between atoms: C_7  and  C_13
REMARK    7  A    between atoms: C_8  and  C_9
REMARK    8  A    between atoms: C_9  and  C_10
REMARK    9  A    between atoms: N_15  and  C_16
REMARK   10  A    between atoms: C_16  and  C_17
REMARK   11  A    between atoms: C_17  and  C_18
REMARK   12  A    between atoms: C_18  and  C_19
REMARK   13  A    between atoms: C_19  and  C_20
REMARK   14  A    between atoms: C_20  and  C_21
REMARK   15  A    between atoms: C_21  and  O_23
REMARK                            x       y       z     vdW  Elec       q    Type
REMARK                         _______ _______ _______ _____ _____    ______ ____
ROOT
ATOM      1  C   UNL     1       4.362   4.853  17.786  0.00  0.00    +0.000 C 
ENDROOT
BRANCH   1   4
ATOM      2  C   UNL     1       3.367   3.138  19.286  0.00  0.00    +0.000 C 
ATOM      3  O   UNL     1       4.453   2.845  19.778  0.00  0.00    +0.000 OA
ATOM      4  N   UNL     1       3.233   4.083  18.296  0.00  0.00    +0.000 N 
ATOM      5  H   UNL     1       2.288   4.393  18.066  0.00  0.00    +0.000 HD
BRANCH   2   7
ATOM      6  C   UNL     1       1.105   3.440  20.395  0.00  0.00    +0.000 C 
ATOM      7  C   UNL     1       2.034   2.464  19.681  0.00  0.00    +0.000 C 
BRANCH   7   8
ATOM      8  N   UNL     1       1.382   1.910  18.476  0.00  0.00    +0.000 NA
ATOM      9  H   UNL     1       0.371   1.938  18.610  0.00  0.00    +0.000 HD
ATOM     10  H   UNL     1       1.615   0.919  18.404  0.00  0.00    +0.000 HD
ENDBRANCH   7   8
ENDBRANCH   2   7
ENDBRANCH   1   4
BRANCH   1  11
ATOM     11  C   UNL     1       3.891   6.309  17.623  0.00  0.00    +0.000 C 
ATOM     12  O   UNL     1       4.564   7.145  17.018  0.00  0.00    +0.000 OA
ATOM     13  N   UNL     1       2.705   6.607  18.265  0.00  0.00    +0.000 N 
ATOM     14  H   UNL     1       2.198   5.874  18.745  0.00  0.00    +0.000 HD
BRANCH  13  15
ATOM     15  C   UNL     1       2.197   7.961  18.349  0.00  0.00    +0.000 C 
BRANCH  15  16
ATOM     16  C   UNL     1       1.682   8.285  19.750  0.00  0.00    +0.000 C 
BRANCH  16  17
ATOM     17  C   UNL     1       0.994   9.653  19.838  0.00  0.00    +0.000 C 
BRANCH  17  18
ATOM     18  C   UNL     1      -0.366   9.585  20.536  0.00  0.00    +0.000 C 
BRANCH  18  19
ATOM     19  C   UNL     1      -0.314   8.823  21.858  0.00  0.00    +0.000 C 
BRANCH  19  20
ATOM     20  C   UNL     1       0.288   9.678  22.955  0.00  0.00    +0.000 C 
ATOM     21  O   UNL     1       1.409   9.548  23.419  0.00  0.00    +0.000 OA
BRANCH  20  22
ATOM     22  O   UNL     1      -0.565  10.635  23.385  0.00  0.00    +0.000 OA
ATOM     23  H   UNL     1      -0.123  11.411  23.777  0.00  0.00    +0.000 HD
ENDBRANCH  20  22
ENDBRANCH  19  20
ENDBRANCH  18  19
ENDBRANCH  17  18
ENDBRANCH  16  17
ENDBRANCH  15  16
ENDBRANCH  13  15
ENDBRANCH   1  11
BRANCH   1  24
ATOM     24  C   UNL     1       4.842   4.279  16.442  0.00  0.00    +0.000 C 
BRANCH  24  25
ATOM     25  C   UNL     1       6.357   4.086  16.375  0.00  0.00    +0.000 C 
BRANCH  25  26
ATOM     26  C   UNL     1       7.084   5.229  15.704  0.00  0.00    +0.000 C 
ATOM     27  N   UNL     1       7.436   6.267  16.510  0.00  0.00    +0.000 N 
ATOM     28  O   UNL     1       7.408   5.210  14.522  0.00  0.00    +0.000 OA
ATOM     29  H   UNL     1       7.171   6.340  17.483  0.00  0.00    +0.000 HD
ATOM     30  H   UNL     1       7.947   7.033  16.091  0.00  0.00    +0.000 HD
ENDBRANCH  25  26
ENDBRANCH  24  25
ENDBRANCH   1  24
TORSDOF 14
ENDMDL
MODEL 8
REMARK VINA RESULT:      -6.0      2.085      4.465
REMARK  Name = 
REMARK  15 active torsions:
REMARK  status: ('A' for Active; 'I' for Inactive)
REMARK    1  A    between atoms: C_1  and  C_2
REMARK    2  A    between atoms: C_2  and  N_3
REMARK    3  A    between atoms: C_2  and  C_4
REMARK    4  A    between atoms: N_6  and  C_7
REMARK    5  A    between atoms: C_7  and  C_8
REMARK    6  A    between atoms: C_7  and  C_13
REMARK    7  A    between atoms: C_8  and  C_9
REMARK    8  A    between atoms: C_9  and  C_10
REMARK    9  A    between atoms: N_15  and  C_16
REMARK   10  A    between atoms: C_16  and  C_17
REMARK   11  A    between atoms: C_17  and  C_18
REMARK   12  A    between atoms: C_18  and  C_19
REMARK   13  A    between atoms: C_19  and  C_20
REMARK   14  A    between atoms: C_20  and  C_21
REMARK   15  A    between atoms: C_21  and  O_23
REMARK                            x       y       z     vdW  Elec       q    Type
REMARK                         _______ _______ _______ _____ _____    ______ ____
ROOT
ATOM      1  C   UNL     1       5.793   4.632  16.684  0.00  0.00    +0.000 C 
ENDROOT
BRANCH   1   4
ATOM      2  C   UNL     1       6.679   4.359  14.377  0.00  0.00    +0.000 C 
ATOM      3  O   UNL     1       7.626   5.113  14.582  0.00  0.00    +0.000 OA
ATOM      4  N   UNL     1       5.727   4.088  15.331  0.00  0.00    +0.000 N 
ATOM      5  H   UNL     1       5.077   3.324  15.145  0.00  0.00    +0.000 HD
BRANCH   2   7
ATOM      6  C   UNL     1       4.934   3.676  12.667  0.00  0.00    +0.000 C 
ATOM      7  C   UNL     1       6.415   3.659  13.025  0.00  0.00    +0.000 C 
BRANCH   7   8
ATOM      8  N   UNL     1       7.217   4.306  11.966  0.00  0.00    +0.000 NA
ATOM      9  H   UNL     1       7.921   4.900  12.407  0.00  0.00    +0.000 HD
ATOM     10  H   UNL     1       6.616   4.945  11.444  0.00  0.00    +0.000 HD
ENDBRANCH   7   8
ENDBRANCH   2   7
ENDBRANCH   1   4
BRANCH   1  11
ATOM     11  C   UNL     1       4.409   4.435  17.328  0.00  0.00    +0.000 C 
ATOM     12  O   UNL     1       3.871   3.329  17.383  0.00  0.00    +0.000 OA
ATOM     13  N   UNL     1       3.805   5.599  17.764  0.00  0.00    +0.000 N 
ATOM     14  H   UNL     1       4.302   6.477  17.691  0.00  0.00    +0.000 HD
BRANCH  13  15
ATOM     15  C   UNL     1       2.440   5.619  18.249  0.00  0.00    +0.000 C 
BRANCH  15  16
ATOM     16  C   UNL     1       2.355   6.161  19.674  0.00  0.00    +0.000 C 
BRANCH  16  17
ATOM     17  C   UNL     1       1.639   5.209  20.640  0.00  0.00    +0.000 C 
BRANCH  17  18
ATOM     18  C   UNL     1       2.328   3.846  20.741  0.00  0.00    +0.000 C 
BRANCH  18  19
ATOM     19  C   UNL     1       1.348   2.680  20.646  0.00  0.00    +0.000 C 
BRANCH  19  20
ATOM     20  C   UNL     1       1.190   2.216  19.211  0.00  0.00    +0.000 C 
ATOM     21  O   UNL     1       0.216   2.418  18.506  0.00  0.00    +0.000 OA
BRANCH  20  22
ATOM     22  O   UNL     1       2.272   1.537  18.771  0.00  0.00    +0.000 OA
ATOM     23  H   UNL     1       2.094   0.600  18.565  0.00  0.00    +0.000 HD
ENDBRANCH  20  22
ENDBRANCH  19  20
ENDBRANCH  18  19
ENDBRANCH  17  18
ENDBRANCH  16  17
ENDBRANCH  15  16
ENDBRANCH  13  15
ENDBRANCH   1  11
BRANCH   1  24
ATOM     24  C   UNL     1       6.172   6.122  16.647  0.00  0.00    +0.000 C 
BRANCH  24  25
ATOM     25  C   UNL     1       7.019   6.559  17.843  0.00  0.00    +0.000 C 
BRANCH  25  26
ATOM     26  C   UNL     1       7.749   5.419  18.515  0.00  0.00    +0.000 C 
ATOM     27  N   UNL     1       7.860   5.497  19.869  0.00  0.00    +0.000 N 
ATOM     28  O   UNL     1       8.162   4.440  17.904  0.00  0.00    +0.000 OA
ATOM     29  H   UNL     1       7.558   6.293  20.414  0.00  0.00    +0.000 HD
ATOM     30  H   UNL     1       8.321   4.733  20.346  0.00  0.00    +0.000 HD
ENDBRANCH  25  26
ENDBRANCH  24  25
ENDBRANCH   1  24
TORSDOF 14
ENDMDL
MODEL 9
REMARK VINA RESULT:      -6.0      3.306      5.540
REMARK  Name = 
REMARK  15 active torsions:
REMARK  status: ('A' for Active; 'I' for Inactive)
REMARK    1  A    between atoms: C_1  and  C_2
REMARK    2  A    between atoms: C_2  and  N_3
REMARK    3  A    between atoms: C_2  and  C_4
REMARK    4  A    between atoms: N_6  and  C_7
REMARK    5  A    between atoms: C_7  and  C_8
REMARK    6  A    between atoms: C_7  and  C_13
REMARK    7  A    between atoms: C_8  and  C_9
REMARK    8  A    between atoms: C_9  and  C_10
REMARK    9  A    between atoms: N_15  and  C_16
REMARK   10  A    between atoms: C_16  and  C_17
REMARK   11  A    between atoms: C_17  and  C_18
REMARK   12  A    between atoms: C_18  and  C_19
REMARK   13  A    between atoms: C_19  and  C_20
REMARK   14  A    between atoms: C_20  and  C_21
REMARK   15  A    between atoms: C_21  and  O_23
REMARK                            x       y       z     vdW  Elec       q    Type
REMARK                         _______ _______ _______ _____ _____    ______ ____
ROOT
ATOM      1  C   UNL     1       2.647   5.910  18.414  0.00  0.00    +0.000 C 
ENDROOT
BRANCH   1   4
ATOM      2  C   UNL     1       5.022   5.815  17.685  0.00  0.00    +0.000 C 
ATOM      3  O   UNL     1       4.886   6.749  16.901  0.00  0.00    +0.000 OA
ATOM      4  N   UNL     1       3.983   5.325  18.442  0.00  0.00    +0.000 N 
ATOM      5  H   UNL     1       4.213   4.672  19.190  0.00  0.00    +0.000 HD
BRANCH   2   7
ATOM      6  C   UNL     1       7.440   5.967  18.439  0.00  0.00    +0.000 C 
ATOM      7  C   UNL     1       6.350   5.052  17.892  0.00  0.00    +0.000 C 
BRANCH   7   8
ATOM      8  N   UNL     1       6.127   3.906  18.797  0.00  0.00    +0.000 NA
ATOM      9  H   UNL     1       6.039   4.256  19.752  0.00  0.00    +0.000 HD
ATOM     10  H   UNL     1       6.965   3.323  18.801  0.00  0.00    +0.000 HD
ENDBRANCH   7   8
ENDBRANCH   2   7
ENDBRANCH   1   4
BRANCH   1  11
ATOM     11  C   UNL     1       2.261   6.248  19.865  0.00  0.00    +0.000 C 
ATOM     12  O   UNL     1       2.105   5.371  20.716  0.00  0.00    +0.000 OA
ATOM     13  N   UNL     1       2.039   7.590  20.106  0.00  0.00    +0.000 N 
ATOM     14  H   UNL     1       2.185   8.262  19.363  0.00  0.00    +0.000 HD
BRANCH  13  15
ATOM     15  C   UNL     1       1.516   8.066  21.369  0.00  0.00    +0.000 C 
BRANCH  15  16
ATOM     16  C   UNL     1       0.921   9.467  21.242  0.00  0.00    +0.000 C 
BRANCH  16  17
ATOM     17  C   UNL     1      -0.330   9.512  20.357  0.00  0.00    +0.000 C 
BRANCH  17  18
ATOM     18  C   UNL     1      -0.181  10.474  19.175  0.00  0.00    +0.000 C 
BRANCH  18  19
ATOM     19  C   UNL     1       1.203  11.114  19.107  0.00  0.00    +0.000 C 
BRANCH  19  20
ATOM     20  C   UNL     1       1.979  10.607  17.907  0.00  0.00    +0.000 C 
ATOM     21  O   UNL     1       2.069   9.440  17.566  0.00  0.00    +0.000 OA
BRANCH  20  22
ATOM     22  O   UNL     1       2.581  11.607  17.226  0.00  0.00    +0.000 OA
ATOM     23  H   UNL     1       3.520  11.439  17.025  0.00  0.00    +0.000 HD
ENDBRANCH  20  22
ENDBRANCH  19  20
ENDBRANCH  18  19
ENDBRANCH  17  18
ENDBRANCH  16  17
ENDBRANCH  15  16
ENDBRANCH  13  15
ENDBRANCH   1  11
BRANCH   1  24
ATOM     24  C   UNL     1       1.640   4.924  17.796  0.00  0.00    +0.000 C 
BRANCH  24  25
ATOM     25  C   UNL     1       2.143   3.480  17.778  0.00  0.00    +0.000 C 
BRANCH  25  26
ATOM     26  C   UNL     1       1.395   2.568  18.722  0.00  0.00    +0.000 C 
ATOM     27  N   UNL     1       1.966   2.373  19.942  0.00  0.00    +0.000 N 
ATOM     28  O   UNL     1       0.303   2.081  18.452  0.00  0.00    +0.000 OA
ATOM     29  H   UNL     1       2.873   2.732  20.203  0.00  0.00    +0.000 HD
ATOM     30  H   UNL     1       1.470   1.787  20.603  0.00  0.00    +0.000 HD
ENDBRANCH  25  26
ENDBRANCH  24  25
ENDBRANCH   1  24
TORSDOF 14
ENDMDL
