MODEL 1
REMARK VINA RESULT:     -10.3      0.000      0.000
REMARK  Name = 
REMARK  7 active torsions:
REMARK  status: ('A' for Active; 'I' for Inactive)
REMARK    1  A    between atoms: C_1  and  N_2
REMARK    2  A    between atoms: C_9  and  O_10
REMARK    3  A    between atoms: O_10  and  C_11
REMARK    4  A    between atoms: C_11  and  C_12
REMARK    5  A    between atoms: C_16  and  N_17
REMARK    6  A    between atoms: C_19  and  C_20
REMARK    7  A    between atoms: C_23  and  C_24
REMARK                            x       y       z     vdW  Elec       q    Type
REMARK                         _______ _______ _______ _____ _____    ______ ____
ROOT
ATOM      1  C   UNL     1       0.850   9.642  19.494  0.00  0.00    +0.000 A 
ATOM      2  C   UNL     1       0.433   9.633  20.819  0.00  0.00    +0.000 A 
ATOM      3  N   UNL     1       0.737   8.656  21.702  0.00  0.00    +0.000 NA
ATOM      4  C   UNL     1       1.499   7.631  21.245  0.00  0.00    +0.000 A 
ATOM      5  C   UNL     1       2.005   7.564  19.953  0.00  0.00    +0.000 A 
ATOM      6  C   UNL     1       1.692   8.606  19.071  0.00  0.00    +0.000 A 
ENDROOT
BRANCH   5   7
ATOM      7  N   UNL     1       2.797   6.460  19.532  0.00  0.00    +0.000 N 
ATOM      8  C   UNL     1       3.676   6.473  18.464  0.00  0.00    +0.000 A 
ATOM      9  C   UNL     1       4.273   5.233  18.361  0.00  0.00    +0.000 A 
ATOM     10  C   UNL     1       3.718   4.397  19.372  0.00  0.00    +0.000 A 
ATOM     11  C   UNL     1       3.851   3.061  19.793  0.00  0.00    +0.000 A 
ATOM     12  N   UNL     1       4.726   2.146  19.240  0.00  0.00    +0.000 N 
ATOM     13  N   UNL     1       3.072   2.607  20.794  0.00  0.00    +0.000 NA
ATOM     14  C   UNL     1       2.222   3.462  21.382  0.00  0.00    +0.000 A 
ATOM     15  N   UNL     1       2.033   4.755  21.097  0.00  0.00    +0.000 NA
ATOM     16  C   UNL     1       2.812   5.184  20.083  0.00  0.00    +0.000 A 
ATOM     17  H   UNL     1       5.082   2.377  18.318  0.00  0.00    +0.000 HD
ATOM     18  H   UNL     1       4.452   1.188  19.415  0.00  0.00    +0.000 HD
BRANCH   9  19
ATOM     19  C   UNL     1       5.302   4.879  17.342  0.00  0.00    +0.000 A 
ATOM     20  C   UNL     1       6.673   4.839  17.518  0.00  0.00    +0.000 A 
ATOM     21  C   UNL     1       7.237   4.433  16.281  0.00  0.00    +0.000 A 
ATOM     22  C   UNL     1       6.183   4.261  15.416  0.00  0.00    +0.000 A 
ATOM     23  C   UNL     1       6.072   3.856  14.004  0.00  0.00    +0.000 C 
ATOM     24  O   UNL     1       5.013   4.536  16.052  0.00  0.00    +0.000 OA
ENDBRANCH   9  19
ENDBRANCH   5   7
BRANCH   1  25
ATOM     25  C   UNL     1       0.355  10.699  18.546  0.00  0.00    +0.000 C 
BRANCH  25  26
ATOM     26  O   UNL     1      -0.383  10.106  17.481  0.00  0.00    +0.000 OA
BRANCH  26  35
ATOM     27  C   UNL     1      -4.719  13.949  21.657  0.00  0.00    +0.000 C 
ATOM     28  N   UNL     1      -5.719  13.571  20.675  0.00  0.00    +0.000 N 
ATOM     29  C   UNL     1      -5.246  12.764  19.625  0.00  0.00    +0.000 A 
ATOM     30  C   UNL     1      -6.150  12.425  18.626  0.00  0.00    +0.000 A 
ATOM     31  C   UNL     1      -5.714  11.683  17.535  0.00  0.00    +0.000 A 
ATOM     32  C   UNL     1      -4.379  11.283  17.468  0.00  0.00    +0.000 A 
ATOM     33  C   UNL     1      -3.893  10.550  16.375  0.00  0.00    +0.000 A 
ATOM     34  C   UNL     1      -2.558  10.149  16.333  0.00  0.00    +0.000 A 
ATOM     35  C   UNL     1      -1.705  10.462  17.390  0.00  0.00    +0.000 A 
ATOM     36  C   UNL     1      -2.202  11.205  18.469  0.00  0.00    +0.000 A 
ATOM     37  C   UNL     1      -3.525  11.639  18.528  0.00  0.00    +0.000 A 
ATOM     38  N   UNL     1      -3.954  12.374  19.576  0.00  0.00    +0.000 NA
ATOM     39  H   UNL     1      -6.529  13.127  21.098  0.00  0.00    +0.000 HD
ENDBRANCH  26  35
ENDBRANCH  25  26
ENDBRANCH   1  25
TORSDOF 5
ENDMDL
MODEL 2
REMARK VINA RESULT:      -9.8      2.740      3.367
REMARK  Name = 
REMARK  7 active torsions:
REMARK  status: ('A' for Active; 'I' for Inactive)
REMARK    1  A    between atoms: C_1  and  N_2
REMARK    2  A    between atoms: C_9  and  O_10
REMARK    3  A    between atoms: O_10  and  C_11
REMARK    4  A    between atoms: C_11  and  C_12
REMARK    5  A    between atoms: C_16  and  N_17
REMARK    6  A    between atoms: C_19  and  C_20
REMARK    7  A    between atoms: C_23  and  C_24
REMARK                            x       y       z     vdW  Elec       q    Type
REMARK                         _______ _______ _______ _____ _____    ______ ____
ROOT
ATOM      1  C   UNL     1       0.572   9.120  21.025  0.00  0.00    +0.000 A 
ATOM      2  C   UNL     1       0.392  10.036  19.996  0.00  0.00    +0.000 A 
ATOM      3  N   UNL     1       0.940   9.911  18.767  0.00  0.00    +0.000 NA
ATOM      4  C   UNL     1       1.709   8.815  18.547  0.00  0.00    +0.000 A 
ATOM      5  C   UNL     1       1.917   7.817  19.491  0.00  0.00    +0.000 A 
ATOM      6  C   UNL     1       1.314   7.965  20.746  0.00  0.00    +0.000 A 
ENDROOT
BRANCH   5   7
ATOM      7  N   UNL     1       2.737   6.693  19.200  0.00  0.00    +0.000 N 
ATOM      8  C   UNL     1       3.650   6.621  18.163  0.00  0.00    +0.000 A 
ATOM      9  C   UNL     1       4.268   5.387  18.195  0.00  0.00    +0.000 A 
ATOM     10  C   UNL     1       3.692   4.640  19.263  0.00  0.00    +0.000 A 
ATOM     11  C   UNL     1       3.830   3.351  19.811  0.00  0.00    +0.000 A 
ATOM     12  N   UNL     1       4.735   2.403  19.373  0.00  0.00    +0.000 N 
ATOM     13  N   UNL     1       3.025   2.979  20.825  0.00  0.00    +0.000 NA
ATOM     14  C   UNL     1       2.144   3.870  21.303  0.00  0.00    +0.000 A 
ATOM     15  N   UNL     1       1.947   5.128  20.893  0.00  0.00    +0.000 NA
ATOM     16  C   UNL     1       2.752   5.474  19.868  0.00  0.00    +0.000 A 
ATOM     17  H   UNL     1       5.118   2.553  18.445  0.00  0.00    +0.000 HD
ATOM     18  H   UNL     1       4.469   1.461  19.628  0.00  0.00    +0.000 HD
BRANCH   9  19
ATOM     19  C   UNL     1       5.334   4.957  17.247  0.00  0.00    +0.000 A 
ATOM     20  C   UNL     1       6.683   4.814  17.514  0.00  0.00    +0.000 A 
ATOM     21  C   UNL     1       7.298   4.367  16.317  0.00  0.00    +0.000 A 
ATOM     22  C   UNL     1       6.295   4.275  15.382  0.00  0.00    +0.000 A 
ATOM     23  C   UNL     1       6.250   3.880  13.963  0.00  0.00    +0.000 C 
ATOM     24  O   UNL     1       5.108   4.637  15.938  0.00  0.00    +0.000 OA
ENDBRANCH   9  19
ENDBRANCH   5   7
BRANCH   1  25
ATOM     25  C   UNL     1       0.036   9.405  22.401  0.00  0.00    +0.000 C 
BRANCH  25  26
ATOM     26  O   UNL     1       0.269  10.765  22.755  0.00  0.00    +0.000 OA
BRANCH  26  35
ATOM     27  C   UNL     1      -0.941  16.787  19.112  0.00  0.00    +0.000 C 
ATOM     28  N   UNL     1      -2.207  16.761  19.822  0.00  0.00    +0.000 N 
ATOM     29  C   UNL     1      -2.376  15.671  20.695  0.00  0.00    +0.000 A 
ATOM     30  C   UNL     1      -3.595  15.566  21.353  0.00  0.00    +0.000 A 
ATOM     31  C   UNL     1      -3.833  14.472  22.177  0.00  0.00    +0.000 A 
ATOM     32  C   UNL     1      -2.840  13.505  22.335  0.00  0.00    +0.000 A 
ATOM     33  C   UNL     1      -3.047  12.375  23.141  0.00  0.00    +0.000 A 
ATOM     34  C   UNL     1      -2.037  11.427  23.297  0.00  0.00    +0.000 A 
ATOM     35  C   UNL     1      -0.809  11.608  22.663  0.00  0.00    +0.000 A 
ATOM     36  C   UNL     1      -0.622  12.736  21.852  0.00  0.00    +0.000 A 
ATOM     37  C   UNL     1      -1.620  13.689  21.660  0.00  0.00    +0.000 A 
ATOM     38  N   UNL     1      -1.404  14.746  20.848  0.00  0.00    +0.000 NA
ATOM     39  H   UNL     1      -2.386  17.623  20.327  0.00  0.00    +0.000 HD
ENDBRANCH  26  35
ENDBRANCH  25  26
ENDBRANCH   1  25
TORSDOF 5
ENDMDL
MODEL 3
REMARK VINA RESULT:      -9.8      1.700      2.605
REMARK  Name = 
REMARK  7 active torsions:
REMARK  status: ('A' for Active; 'I' for Inactive)
REMARK    1  A    between atoms: C_1  and  N_2
REMARK    2  A    between atoms: C_9  and  O_10
REMARK    3  A    between atoms: O_10  and  C_11
REMARK    4  A    between atoms: C_11  and  C_12
REMARK    5  A    between atoms: C_16  and  N_17
REMARK    6  A    between atoms: C_19  and  C_20
REMARK    7  A    between atoms: C_23  and  C_24
REMARK                            x       y       z     vdW  Elec       q    Type
REMARK                         _______ _______ _______ _____ _____    ______ ____
ROOT
ATOM      1  C   UNL     1       1.455   9.454  19.565  0.00  0.00    +0.000 A 
ATOM      2  C   UNL     1       0.946   9.187  20.830  0.00  0.00    +0.000 A 
ATOM      3  N   UNL     1       1.024   7.983  21.439  0.00  0.00    +0.000 NA
ATOM      4  C   UNL     1       1.645   6.989  20.756  0.00  0.00    +0.000 A 
ATOM      5  C   UNL     1       2.228   7.161  19.506  0.00  0.00    +0.000 A 
ATOM      6  C   UNL     1       2.150   8.428  18.914  0.00  0.00    +0.000 A 
ENDROOT
BRANCH   5   7
ATOM      7  N   UNL     1       2.862   6.077  18.838  0.00  0.00    +0.000 N 
ATOM      8  C   UNL     1       3.813   6.205  17.842  0.00  0.00    +0.000 A 
ATOM      9  C   UNL     1       4.209   4.946  17.438  0.00  0.00    +0.000 A 
ATOM     10  C   UNL     1       3.450   3.993  18.175  0.00  0.00    +0.000 A 
ATOM     11  C   UNL     1       3.332   2.592  18.236  0.00  0.00    +0.000 A 
ATOM     12  N   UNL     1       4.090   1.707  17.492  0.00  0.00    +0.000 N 
ATOM     13  N   UNL     1       2.413   2.045  19.055  0.00  0.00    +0.000 NA
ATOM     14  C   UNL     1       1.668   2.859  19.816  0.00  0.00    +0.000 A 
ATOM     15  N   UNL     1       1.713   4.195  19.874  0.00  0.00    +0.000 NA
ATOM     16  C   UNL     1       2.628   4.721  19.035  0.00  0.00    +0.000 A 
ATOM     17  H   UNL     1       4.550   2.097  16.676  0.00  0.00    +0.000 HD
ATOM     18  H   UNL     1       3.652   0.799  17.400  0.00  0.00    +0.000 HD
BRANCH   9  19
ATOM     19  C   UNL     1       5.245   4.685  16.398  0.00  0.00    +0.000 A 
ATOM     20  C   UNL     1       6.612   4.853  16.519  0.00  0.00    +0.000 A 
ATOM     21  C   UNL     1       7.189   4.461  15.284  0.00  0.00    +0.000 A 
ATOM     22  C   UNL     1       6.143   4.089  14.473  0.00  0.00    +0.000 A 
ATOM     23  C   UNL     1       6.047   3.592  13.090  0.00  0.00    +0.000 C 
ATOM     24  O   UNL     1       4.967   4.230  15.140  0.00  0.00    +0.000 OA
ENDBRANCH   9  19
ENDBRANCH   5   7
BRANCH   1  25
ATOM     25  C   UNL     1       1.206  10.784  18.908  0.00  0.00    +0.000 C 
BRANCH  25  26
ATOM     26  O   UNL     1       0.428  11.621  19.759  0.00  0.00    +0.000 OA
BRANCH  26  35
ATOM     27  C   UNL     1      -3.416   9.964  13.973  0.00  0.00    +0.000 C 
ATOM     28  N   UNL     1      -4.506  10.534  14.744  0.00  0.00    +0.000 N 
ATOM     29  C   UNL     1      -4.148  11.007  16.019  0.00  0.00    +0.000 A 
ATOM     30  C   UNL     1      -5.167  11.506  16.821  0.00  0.00    +0.000 A 
ATOM     31  C   UNL     1      -4.873  11.926  18.113  0.00  0.00    +0.000 A 
ATOM     32  C   UNL     1      -3.560  11.848  18.577  0.00  0.00    +0.000 A 
ATOM     33  C   UNL     1      -3.224  12.242  19.881  0.00  0.00    +0.000 A 
ATOM     34  C   UNL     1      -1.903  12.169  20.321  0.00  0.00    +0.000 A 
ATOM     35  C   UNL     1      -0.907  11.717  19.458  0.00  0.00    +0.000 A 
ATOM     36  C   UNL     1      -1.260  11.316  18.162  0.00  0.00    +0.000 A 
ATOM     37  C   UNL     1      -2.575  11.357  17.702  0.00  0.00    +0.000 A 
ATOM     38  N   UNL     1      -2.872  10.936  16.454  0.00  0.00    +0.000 NA
ATOM     39  H   UNL     1      -4.994  11.269  14.241  0.00  0.00    +0.000 HD
ENDBRANCH  26  35
ENDBRANCH  25  26
ENDBRANCH   1  25
TORSDOF 5
ENDMDL
MODEL 4
REMARK VINA RESULT:      -9.8      1.698      2.243
REMARK  Name = 
REMARK  7 active torsions:
REMARK  status: ('A' for Active; 'I' for Inactive)
REMARK    1  A    between atoms: C_1  and  N_2
REMARK    2  A    between atoms: C_9  and  O_10
REMARK    3  A    between atoms: O_10  and  C_11
REMARK    4  A    between atoms: C_11  and  C_12
REMARK    5  A    between atoms: C_16  and  N_17
REMARK    6  A    between atoms: C_19  and  C_20
REMARK    7  A    between atoms: C_23  and  C_24
REMARK                            x       y       z     vdW  Elec       q    Type
REMARK                         _______ _______ _______ _____ _____    ______ ____
ROOT
ATOM      1  C   UNL     1       1.010   9.672  19.448  0.00  0.00    +0.000 A 
ATOM      2  C   UNL     1       0.797   9.604  20.819  0.00  0.00    +0.000 A 
ATOM      3  N   UNL     1       1.152   8.552  21.590  0.00  0.00    +0.000 NA
ATOM      4  C   UNL     1       1.754   7.510  20.965  0.00  0.00    +0.000 A 
ATOM      5  C   UNL     1       2.054   7.493  19.608  0.00  0.00    +0.000 A 
ATOM      6  C   UNL     1       1.695   8.611  18.843  0.00  0.00    +0.000 A 
ENDROOT
BRANCH   5   7
ATOM      7  N   UNL     1       2.684   6.368  19.010  0.00  0.00    +0.000 N 
ATOM      8  C   UNL     1       3.705   6.430  18.078  0.00  0.00    +0.000 A 
ATOM      9  C   UNL     1       4.072   5.146  17.731  0.00  0.00    +0.000 A 
ATOM     10  C   UNL     1       3.224   4.244  18.436  0.00  0.00    +0.000 A 
ATOM     11  C   UNL     1       3.042   2.851  18.520  0.00  0.00    +0.000 A 
ATOM     12  N   UNL     1       3.809   1.917  17.851  0.00  0.00    +0.000 N 
ATOM     13  N   UNL     1       2.047   2.364  19.288  0.00  0.00    +0.000 NA
ATOM     14  C   UNL     1       1.289   3.228  19.977  0.00  0.00    +0.000 A 
ATOM     15  N   UNL     1       1.387   4.562  20.007  0.00  0.00    +0.000 NA
ATOM     16  C   UNL     1       2.379   5.028  19.221  0.00  0.00    +0.000 A 
ATOM     17  H   UNL     1       4.339   2.266  17.059  0.00  0.00    +0.000 HD
ATOM     18  H   UNL     1       3.339   1.026  17.750  0.00  0.00    +0.000 HD
BRANCH   9  19
ATOM     19  C   UNL     1       5.163   4.815  16.771  0.00  0.00    +0.000 A 
ATOM     20  C   UNL     1       6.524   4.824  17.016  0.00  0.00    +0.000 A 
ATOM     21  C   UNL     1       7.164   4.423  15.815  0.00  0.00    +0.000 A 
ATOM     22  C   UNL     1       6.162   4.204  14.901  0.00  0.00    +0.000 A 
ATOM     23  C   UNL     1       6.137   3.779  13.490  0.00  0.00    +0.000 C 
ATOM     24  O   UNL     1       4.952   4.447  15.472  0.00  0.00    +0.000 OA
ENDBRANCH   9  19
ENDBRANCH   5   7
BRANCH   1  25
ATOM     25  C   UNL     1       0.463  10.822  18.647  0.00  0.00    +0.000 C 
BRANCH  25  26
ATOM     26  O   UNL     1       0.194  11.935  19.495  0.00  0.00    +0.000 OA
BRANCH  26  35
ATOM     27  C   UNL     1      -3.139  14.720  25.163  0.00  0.00    +0.000 C 
ATOM     28  N   UNL     1      -4.334  14.383  24.411  0.00  0.00    +0.000 N 
ATOM     29  C   UNL     1      -4.100  13.779  23.164  0.00  0.00    +0.000 A 
ATOM     30  C   UNL     1      -5.210  13.492  22.378  0.00  0.00    +0.000 A 
ATOM     31  C   UNL     1      -5.027  12.953  21.110  0.00  0.00    +0.000 A 
ATOM     32  C   UNL     1      -3.733  12.700  20.654  0.00  0.00    +0.000 A 
ATOM     33  C   UNL     1      -3.502  12.176  19.373  0.00  0.00    +0.000 A 
ATOM     34  C   UNL     1      -2.202  11.918  18.941  0.00  0.00    +0.000 A 
ATOM     35  C   UNL     1      -1.125  12.167  19.790  0.00  0.00    +0.000 A 
ATOM     36  C   UNL     1      -1.370  12.702  21.061  0.00  0.00    +0.000 A 
ATOM     37  C   UNL     1      -2.657  12.990  21.512  0.00  0.00    +0.000 A 
ATOM     38  N   UNL     1      -2.844  13.530  22.736  0.00  0.00    +0.000 NA
ATOM     39  H   UNL     1      -4.978  13.808  24.946  0.00  0.00    +0.000 HD
ENDBRANCH  26  35
ENDBRANCH  25  26
ENDBRANCH   1  25
TORSDOF 5
ENDMDL
MODEL 5
REMARK VINA RESULT:      -9.8      2.943      3.877
REMARK  Name = 
REMARK  7 active torsions:
REMARK  status: ('A' for Active; 'I' for Inactive)
REMARK    1  A    between atoms: C_1  and  N_2
REMARK    2  A    between atoms: C_9  and  O_10
REMARK    3  A    between atoms: O_10  and  C_11
REMARK    4  A    between atoms: C_11  and  C_12
REMARK    5  A    between atoms: C_16  and  N_17
REMARK    6  A    between atoms: C_19  and  C_20
REMARK    7  A    between atoms: C_23  and  C_24
REMARK                            x       y       z     vdW  Elec       q    Type
REMARK                         _______ _______ _______ _____ _____    ______ ____
ROOT
ATOM      1  C   UNL     1       0.628   9.659  20.628  0.00  0.00    +0.000 A 
ATOM      2  C   UNL     1       0.281  10.424  19.521  0.00  0.00    +0.000 A 
ATOM      3  N   UNL     1       0.685  10.157  18.259  0.00  0.00    +0.000 NA
ATOM      4  C   UNL     1       1.475   9.068  18.085  0.00  0.00    +0.000 A 
ATOM      5  C   UNL     1       1.843   8.211  19.115  0.00  0.00    +0.000 A 
ATOM      6  C   UNL     1       1.387   8.503  20.407  0.00  0.00    +0.000 A 
ENDROOT
BRANCH   5   7
ATOM      7  N   UNL     1       2.678   7.086  18.869  0.00  0.00    +0.000 N 
ATOM      8  C   UNL     1       3.599   6.989  17.842  0.00  0.00    +0.000 A 
ATOM      9  C   UNL     1       4.229   5.764  17.921  0.00  0.00    +0.000 A 
ATOM     10  C   UNL     1       3.654   5.047  19.009  0.00  0.00    +0.000 A 
ATOM     11  C   UNL     1       3.801   3.780  19.603  0.00  0.00    +0.000 A 
ATOM     12  N   UNL     1       4.720   2.827  19.205  0.00  0.00    +0.000 N 
ATOM     13  N   UNL     1       2.992   3.434  20.624  0.00  0.00    +0.000 NA
ATOM     14  C   UNL     1       2.099   4.332  21.064  0.00  0.00    +0.000 A 
ATOM     15  N   UNL     1       1.891   5.572  20.609  0.00  0.00    +0.000 NA
ATOM     16  C   UNL     1       2.701   5.891  19.579  0.00  0.00    +0.000 A 
ATOM     17  H   UNL     1       5.108   2.949  18.275  0.00  0.00    +0.000 HD
ATOM     18  H   UNL     1       4.462   1.892  19.490  0.00  0.00    +0.000 HD
BRANCH   9  19
ATOM     19  C   UNL     1       5.307   5.313  16.995  0.00  0.00    +0.000 A 
ATOM     20  C   UNL     1       6.671   5.349  17.220  0.00  0.00    +0.000 A 
ATOM     21  C   UNL     1       7.294   4.799  16.070  0.00  0.00    +0.000 A 
ATOM     22  C   UNL     1       6.280   4.470  15.203  0.00  0.00    +0.000 A 
ATOM     23  C   UNL     1       6.237   3.872  13.857  0.00  0.00    +0.000 C 
ATOM     24  O   UNL     1       5.078   4.785  15.756  0.00  0.00    +0.000 OA
ENDBRANCH   9  19
ENDBRANCH   5   7
BRANCH   1  25
ATOM     25  C   UNL     1       0.246  10.104  22.012  0.00  0.00    +0.000 C 
BRANCH  25  26
ATOM     26  O   UNL     1       0.280  11.525  22.105  0.00  0.00    +0.000 OA
BRANCH  26  35
ATOM     27  C   UNL     1      -1.660  18.343  22.969  0.00  0.00    +0.000 C 
ATOM     28  N   UNL     1      -2.827  17.753  23.601  0.00  0.00    +0.000 N 
ATOM     29  C   UNL     1      -2.833  16.347  23.640  0.00  0.00    +0.000 A 
ATOM     30  C   UNL     1      -3.956  15.731  24.180  0.00  0.00    +0.000 A 
ATOM     31  C   UNL     1      -4.038  14.344  24.182  0.00  0.00    +0.000 A 
ATOM     32  C   UNL     1      -2.987  13.595  23.652  0.00  0.00    +0.000 A 
ATOM     33  C   UNL     1      -3.038  12.193  23.616  0.00  0.00    +0.000 A 
ATOM     34  C   UNL     1      -1.971  11.463  23.094  0.00  0.00    +0.000 A 
ATOM     35  C   UNL     1      -0.841  12.126  22.619  0.00  0.00    +0.000 A 
ATOM     36  C   UNL     1      -0.810  13.527  22.651  0.00  0.00    +0.000 A 
ATOM     37  C   UNL     1      -1.870  14.284  23.146  0.00  0.00    +0.000 A 
ATOM     38  N   UNL     1      -1.807  15.633  23.133  0.00  0.00    +0.000 NA
ATOM     39  H   UNL     1      -2.984  18.113  24.537  0.00  0.00    +0.000 HD
ENDBRANCH  26  35
ENDBRANCH  25  26
ENDBRANCH   1  25
TORSDOF 5
ENDMDL
MODEL 6
REMARK VINA RESULT:      -9.7      2.713      3.612
REMARK  Name = 
REMARK  7 active torsions:
REMARK  status: ('A' for Active; 'I' for Inactive)
REMARK    1  A    between atoms: C_1  and  N_2
REMARK    2  A    between atoms: C_9  and  O_10
REMARK    3  A    between atoms: O_10  and  C_11
REMARK    4  A    between atoms: C_11  and  C_12
REMARK    5  A    between atoms: C_16  and  N_17
REMARK    6  A    between atoms: C_19  and  C_20
REMARK    7  A    between atoms: C_23  and  C_24
REMARK                            x       y       z     vdW  Elec       q    Type
REMARK                         _______ _______ _______ _____ _____    ______ ____
ROOT
ATOM      1  C   UNL     1       0.707   9.766  20.613  0.00  0.00    +0.000 A 
ATOM      2  C   UNL     1       0.224  10.432  19.494  0.00  0.00    +0.000 A 
ATOM      3  N   UNL     1       0.506  10.078  18.221  0.00  0.00    +0.000 NA
ATOM      4  C   UNL     1       1.312   9.001  18.048  0.00  0.00    +0.000 A 
ATOM      5  C   UNL     1       1.813   8.237  19.095  0.00  0.00    +0.000 A 
ATOM      6  C   UNL     1       1.480   8.617  20.402  0.00  0.00    +0.000 A 
ENDROOT
BRANCH   5   7
ATOM      7  N   UNL     1       2.656   7.119  18.849  0.00  0.00    +0.000 N 
ATOM      8  C   UNL     1       3.571   7.026  17.816  0.00  0.00    +0.000 A 
ATOM      9  C   UNL     1       4.214   5.807  17.897  0.00  0.00    +0.000 A 
ATOM     10  C   UNL     1       3.654   5.091  18.993  0.00  0.00    +0.000 A 
ATOM     11  C   UNL     1       3.818   3.828  19.592  0.00  0.00    +0.000 A 
ATOM     12  N   UNL     1       4.743   2.883  19.192  0.00  0.00    +0.000 N 
ATOM     13  N   UNL     1       3.020   3.480  20.620  0.00  0.00    +0.000 NA
ATOM     14  C   UNL     1       2.121   4.371  21.063  0.00  0.00    +0.000 A 
ATOM     15  N   UNL     1       1.897   5.607  20.603  0.00  0.00    +0.000 NA
ATOM     16  C   UNL     1       2.696   5.928  19.565  0.00  0.00    +0.000 A 
ATOM     17  H   UNL     1       5.123   3.004  18.259  0.00  0.00    +0.000 HD
ATOM     18  H   UNL     1       4.496   1.946  19.484  0.00  0.00    +0.000 HD
BRANCH   9  19
ATOM     19  C   UNL     1       5.290   5.362  16.966  0.00  0.00    +0.000 A 
ATOM     20  C   UNL     1       6.655   5.419  17.178  0.00  0.00    +0.000 A 
ATOM     21  C   UNL     1       7.276   4.867  16.028  0.00  0.00    +0.000 A 
ATOM     22  C   UNL     1       6.258   4.516  15.173  0.00  0.00    +0.000 A 
ATOM     23  C   UNL     1       6.211   3.904  13.833  0.00  0.00    +0.000 C 
ATOM     24  O   UNL     1       5.057   4.820  15.733  0.00  0.00    +0.000 OA
ENDBRANCH   9  19
ENDBRANCH   5   7
BRANCH   1  25
ATOM     25  C   UNL     1       0.453  10.307  21.993  0.00  0.00    +0.000 C 
BRANCH  25  26
ATOM     26  O   UNL     1      -0.944  10.489  22.205  0.00  0.00    +0.000 OA
BRANCH  26  35
ATOM     27  C   UNL     1      -7.212  13.280  24.186  0.00  0.00    +0.000 C 
ATOM     28  N   UNL     1      -6.471  14.528  24.159  0.00  0.00    +0.000 N 
ATOM     29  C   UNL     1      -5.119  14.408  23.793  0.00  0.00    +0.000 A 
ATOM     30  C   UNL     1      -4.350  15.566  23.810  0.00  0.00    +0.000 A 
ATOM     31  C   UNL     1      -2.994  15.487  23.518  0.00  0.00    +0.000 A 
ATOM     32  C   UNL     1      -2.431  14.250  23.204  0.00  0.00    +0.000 A 
ATOM     33  C   UNL     1      -1.062  14.124  22.923  0.00  0.00    +0.000 A 
ATOM     34  C   UNL     1      -0.521  12.880  22.598  0.00  0.00    +0.000 A 
ATOM     35  C   UNL     1      -1.346  11.759  22.536  0.00  0.00    +0.000 A 
ATOM     36  C   UNL     1      -2.709  11.899  22.830  0.00  0.00    +0.000 A 
ATOM     37  C   UNL     1      -3.273  13.124  23.180  0.00  0.00    +0.000 A 
ATOM     38  N   UNL     1      -4.587  13.207  23.481  0.00  0.00    +0.000 NA
ATOM     39  H   UNL     1      -6.915  15.229  23.572  0.00  0.00    +0.000 HD
ENDBRANCH  26  35
ENDBRANCH  25  26
ENDBRANCH   1  25
TORSDOF 5
ENDMDL
MODEL 7
REMARK VINA RESULT:      -9.6      1.430      1.961
REMARK  Name = 
REMARK  7 active torsions:
REMARK  status: ('A' for Active; 'I' for Inactive)
REMARK    1  A    between atoms: C_1  and  N_2
REMARK    2  A    between atoms: C_9  and  O_10
REMARK    3  A    between atoms: O_10  and  C_11
REMARK    4  A    between atoms: C_11  and  C_12
REMARK    5  A    between atoms: C_16  and  N_17
REMARK    6  A    between atoms: C_19  and  C_20
REMARK    7  A    between atoms: C_23  and  C_24
REMARK                            x       y       z     vdW  Elec       q    Type
REMARK                         _______ _______ _______ _____ _____    ______ ____
ROOT
ATOM      1  C   UNL     1      -0.436  10.237  18.353  0.00  0.00    +0.000 A 
ATOM      2  C   UNL     1      -0.280  10.926  19.549  0.00  0.00    +0.000 A 
ATOM      3  N   UNL     1       0.647  10.621  20.484  0.00  0.00    +0.000 NA
ATOM      4  C   UNL     1       1.467   9.575  20.216  0.00  0.00    +0.000 A 
ATOM      5  C   UNL     1       1.426   8.847  19.033  0.00  0.00    +0.000 A 
ATOM      6  C   UNL     1       0.470   9.206  18.074  0.00  0.00    +0.000 A 
ENDROOT
BRANCH   5   7
ATOM      7  N   UNL     1       2.312   7.757  18.812  0.00  0.00    +0.000 N 
ATOM      8  C   UNL     1       3.253   7.690  17.800  0.00  0.00    +0.000 A 
ATOM      9  C   UNL     1       3.934   6.494  17.902  0.00  0.00    +0.000 A 
ATOM     10  C   UNL     1       3.373   5.763  18.988  0.00  0.00    +0.000 A 
ATOM     11  C   UNL     1       3.565   4.509  19.597  0.00  0.00    +0.000 A 
ATOM     12  N   UNL     1       4.530   3.594  19.223  0.00  0.00    +0.000 N 
ATOM     13  N   UNL     1       2.755   4.139  20.608  0.00  0.00    +0.000 NA
ATOM     14  C   UNL     1       1.817   5.001  21.026  0.00  0.00    +0.000 A 
ATOM     15  N   UNL     1       1.563   6.227  20.554  0.00  0.00    +0.000 NA
ATOM     16  C   UNL     1       2.375   6.571  19.534  0.00  0.00    +0.000 A 
ATOM     17  H   UNL     1       4.928   3.724  18.298  0.00  0.00    +0.000 HD
ATOM     18  H   UNL     1       4.308   2.650  19.514  0.00  0.00    +0.000 HD
BRANCH   9  19
ATOM     19  C   UNL     1       5.046   6.081  16.998  0.00  0.00    +0.000 A 
ATOM     20  C   UNL     1       6.369   6.476  17.066  0.00  0.00    +0.000 A 
ATOM     21  C   UNL     1       7.054   5.813  16.016  0.00  0.00    +0.000 A 
ATOM     22  C   UNL     1       6.111   5.061  15.357  0.00  0.00    +0.000 A 
ATOM     23  C   UNL     1       6.152   4.154  14.196  0.00  0.00    +0.000 C 
ATOM     24  O   UNL     1       4.895   5.226  15.944  0.00  0.00    +0.000 OA
ENDBRANCH   9  19
ENDBRANCH   5   7
BRANCH   1  25
ATOM     25  C   UNL     1      -1.580  10.559  17.431  0.00  0.00    +0.000 C 
BRANCH  25  26
ATOM     26  O   UNL     1      -2.208  11.775  17.823  0.00  0.00    +0.000 OA
BRANCH  26  35
ATOM     27  C   UNL     1      -5.762  13.994  23.607  0.00  0.00    +0.000 C 
ATOM     28  N   UNL     1      -6.877  13.311  22.974  0.00  0.00    +0.000 N 
ATOM     29  C   UNL     1      -6.577  12.702  21.742  0.00  0.00    +0.000 A 
ATOM     30  C   UNL     1      -7.624  12.087  21.066  0.00  0.00    +0.000 A 
ATOM     31  C   UNL     1      -7.392  11.527  19.815  0.00  0.00    +0.000 A 
ATOM     32  C   UNL     1      -6.111  11.585  19.266  0.00  0.00    +0.000 A 
ATOM     33  C   UNL     1      -5.839  11.050  17.997  0.00  0.00    +0.000 A 
ATOM     34  C   UNL     1      -4.549  11.106  17.472  0.00  0.00    +0.000 A 
ATOM     35  C   UNL     1      -3.520  11.680  18.215  0.00  0.00    +0.000 A 
ATOM     36  C   UNL     1      -3.809  12.221  19.476  0.00  0.00    +0.000 A 
ATOM     37  C   UNL     1      -5.093  12.199  20.017  0.00  0.00    +0.000 A 
ATOM     38  N   UNL     1      -5.332  12.755  21.224  0.00  0.00    +0.000 NA
ATOM     39  H   UNL     1      -7.310  12.627  23.587  0.00  0.00    +0.000 HD
ENDBRANCH  26  35
ENDBRANCH  25  26
ENDBRANCH   1  25
TORSDOF 5
ENDMDL
MODEL 8
REMARK VINA RESULT:      -9.6      1.519      2.376
REMARK  Name = 
REMARK  7 active torsions:
REMARK  status: ('A' for Active; 'I' for Inactive)
REMARK    1  A    between atoms: C_1  and  N_2
REMARK    2  A    between atoms: C_9  and  O_10
REMARK    3  A    between atoms: O_10  and  C_11
REMARK    4  A    between atoms: C_11  and  C_12
REMARK    5  A    between atoms: C_16  and  N_17
REMARK    6  A    between atoms: C_19  and  C_20
REMARK    7  A    between atoms: C_23  and  C_24
REMARK                            x       y       z     vdW  Elec       q    Type
REMARK                         _______ _______ _______ _____ _____    ______ ____
ROOT
ATOM      1  C   UNL     1       0.822   9.610  19.363  0.00  0.00    +0.000 A 
ATOM      2  C   UNL     1       0.701   9.531  20.745  0.00  0.00    +0.000 A 
ATOM      3  N   UNL     1       1.179   8.509  21.490  0.00  0.00    +0.000 NA
ATOM      4  C   UNL     1       1.815   7.512  20.826  0.00  0.00    +0.000 A 
ATOM      5  C   UNL     1       2.031   7.514  19.454  0.00  0.00    +0.000 A 
ATOM      6  C   UNL     1       1.544   8.600  18.715  0.00  0.00    +0.000 A 
ENDROOT
BRANCH   5   7
ATOM      7  N   UNL     1       2.703   6.436  18.815  0.00  0.00    +0.000 N 
ATOM      8  C   UNL     1       3.656   6.570  17.822  0.00  0.00    +0.000 A 
ATOM      9  C   UNL     1       4.094   5.315  17.450  0.00  0.00    +0.000 A 
ATOM     10  C   UNL     1       3.360   4.356  18.205  0.00  0.00    +0.000 A 
ATOM     11  C   UNL     1       3.287   2.954  18.299  0.00  0.00    +0.000 A 
ATOM     12  N   UNL     1       4.077   2.076  17.581  0.00  0.00    +0.000 N 
ATOM     13  N   UNL     1       2.381   2.397  19.126  0.00  0.00    +0.000 NA
ATOM     14  C   UNL     1       1.605   3.205  19.863  0.00  0.00    +0.000 A 
ATOM     15  N   UNL     1       1.608   4.543  19.889  0.00  0.00    +0.000 NA
ATOM     16  C   UNL     1       2.511   5.078  19.043  0.00  0.00    +0.000 A 
ATOM     17  H   UNL     1       4.529   2.461  16.758  0.00  0.00    +0.000 HD
ATOM     18  H   UNL     1       3.668   1.153  17.508  0.00  0.00    +0.000 HD
BRANCH   9  19
ATOM     19  C   UNL     1       5.144   5.063  16.423  0.00  0.00    +0.000 A 
ATOM     20  C   UNL     1       6.471   5.448  16.471  0.00  0.00    +0.000 A 
ATOM     21  C   UNL     1       7.085   4.971  15.285  0.00  0.00    +0.000 A 
ATOM     22  C   UNL     1       6.098   4.333  14.572  0.00  0.00    +0.000 A 
ATOM     23  C   UNL     1       6.060   3.630  13.277  0.00  0.00    +0.000 C 
ATOM     24  O   UNL     1       4.922   4.392  15.253  0.00  0.00    +0.000 OA
ENDBRANCH   9  19
ENDBRANCH   5   7
BRANCH   1  25
ATOM     25  C   UNL     1       0.143  10.714  18.600  0.00  0.00    +0.000 C 
BRANCH  25  26
ATOM     26  O   UNL     1       0.232  11.942  19.318  0.00  0.00    +0.000 OA
BRANCH  26  35
ATOM     27  C   UNL     1      -6.792  11.295  18.200  0.00  0.00    +0.000 C 
ATOM     28  N   UNL     1      -6.885  12.019  19.456  0.00  0.00    +0.000 N 
ATOM     29  C   UNL     1      -5.652  12.358  20.039  0.00  0.00    +0.000 A 
ATOM     30  C   UNL     1      -5.685  12.998  21.272  0.00  0.00    +0.000 A 
ATOM     31  C   UNL     1      -4.492  13.296  21.918  0.00  0.00    +0.000 A 
ATOM     32  C   UNL     1      -3.281  12.955  21.313  0.00  0.00    +0.000 A 
ATOM     33  C   UNL     1      -2.055  13.219  21.941  0.00  0.00    +0.000 A 
ATOM     34  C   UNL     1      -0.856  12.883  21.313  0.00  0.00    +0.000 A 
ATOM     35  C   UNL     1      -0.874  12.296  20.049  0.00  0.00    +0.000 A 
ATOM     36  C   UNL     1      -2.107  12.028  19.440  0.00  0.00    +0.000 A 
ATOM     37  C   UNL     1      -3.321  12.332  20.053  0.00  0.00    +0.000 A 
ATOM     38  N   UNL     1      -4.486  12.032  19.440  0.00  0.00    +0.000 NA
ATOM     39  H   UNL     1      -7.459  12.854  19.379  0.00  0.00    +0.000 HD
ENDBRANCH  26  35
ENDBRANCH  25  26
ENDBRANCH   1  25
TORSDOF 5
ENDMDL
MODEL 9
REMARK VINA RESULT:      -9.6      2.179      3.360
REMARK  Name = 
REMARK  7 active torsions:
REMARK  status: ('A' for Active; 'I' for Inactive)
REMARK    1  A    between atoms: C_1  and  N_2
REMARK    2  A    between atoms: C_9  and  O_10
REMARK    3  A    between atoms: O_10  and  C_11
REMARK    4  A    between atoms: C_11  and  C_12
REMARK    5  A    between atoms: C_16  and  N_17
REMARK    6  A    between atoms: C_19  and  C_20
REMARK    7  A    between atoms: C_23  and  C_24
REMARK                            x       y       z     vdW  Elec       q    Type
REMARK                         _______ _______ _______ _____ _____    ______ ____
ROOT
ATOM      1  C   UNL     1       0.397   9.933  20.490  0.00  0.00    +0.000 A 
ATOM      2  C   UNL     1       0.142  10.750  19.395  0.00  0.00    +0.000 A 
ATOM      3  N   UNL     1       0.639  10.535  18.157  0.00  0.00    +0.000 NA
ATOM      4  C   UNL     1       1.431   9.446  17.995  0.00  0.00    +0.000 A 
ATOM      5  C   UNL     1       1.713   8.540  19.010  0.00  0.00    +0.000 A 
ATOM      6  C   UNL     1       1.161   8.779  20.275  0.00  0.00    +0.000 A 
ENDROOT
BRANCH   5   7
ATOM      7  N   UNL     1       2.555   7.418  18.778  0.00  0.00    +0.000 N 
ATOM      8  C   UNL     1       3.485   7.319  17.759  0.00  0.00    +0.000 A 
ATOM      9  C   UNL     1       4.121   6.097  17.851  0.00  0.00    +0.000 A 
ATOM     10  C   UNL     1       3.541   5.385  18.940  0.00  0.00    +0.000 A 
ATOM     11  C   UNL     1       3.690   4.122  19.543  0.00  0.00    +0.000 A 
ATOM     12  N   UNL     1       4.617   3.172  19.158  0.00  0.00    +0.000 N 
ATOM     13  N   UNL     1       2.875   3.780  20.560  0.00  0.00    +0.000 NA
ATOM     14  C   UNL     1       1.974   4.675  20.988  0.00  0.00    +0.000 A 
ATOM     15  N   UNL     1       1.763   5.912  20.522  0.00  0.00    +0.000 NA
ATOM     16  C   UNL     1       2.579   6.228  19.496  0.00  0.00    +0.000 A 
ATOM     17  H   UNL     1       5.011   3.290  18.230  0.00  0.00    +0.000 HD
ATOM     18  H   UNL     1       4.361   2.237  19.448  0.00  0.00    +0.000 HD
BRANCH   9  19
ATOM     19  C   UNL     1       5.208   5.646  16.937  0.00  0.00    +0.000 A 
ATOM     20  C   UNL     1       6.566   5.862  17.082  0.00  0.00    +0.000 A 
ATOM     21  C   UNL     1       7.205   5.233  15.983  0.00  0.00    +0.000 A 
ATOM     22  C   UNL     1       6.204   4.680  15.222  0.00  0.00    +0.000 A 
ATOM     23  C   UNL     1       6.180   3.903  13.970  0.00  0.00    +0.000 C 
ATOM     24  O   UNL     1       4.996   4.933  15.791  0.00  0.00    +0.000 OA
ENDBRANCH   9  19
ENDBRANCH   5   7
BRANCH   1  25
ATOM     25  C   UNL     1      -0.087  10.321  21.860  0.00  0.00    +0.000 C 
BRANCH  25  26
ATOM     26  O   UNL     1       0.130  11.710  22.090  0.00  0.00    +0.000 OA
BRANCH  26  35
ATOM     27  C   UNL     1      -6.821  11.292  20.507  0.00  0.00    +0.000 C 
ATOM     28  N   UNL     1      -6.906  12.484  21.332  0.00  0.00    +0.000 N 
ATOM     29  C   UNL     1      -5.682  12.924  21.866  0.00  0.00    +0.000 A 
ATOM     30  C   UNL     1      -5.717  14.026  22.713  0.00  0.00    +0.000 A 
ATOM     31  C   UNL     1      -4.543  14.459  23.317  0.00  0.00    +0.000 A 
ATOM     32  C   UNL     1      -3.349  13.786  23.055  0.00  0.00    +0.000 A 
ATOM     33  C   UNL     1      -2.145  14.178  23.660  0.00  0.00    +0.000 A 
ATOM     34  C   UNL     1      -0.960  13.501  23.375  0.00  0.00    +0.000 A 
ATOM     35  C   UNL     1      -0.967  12.439  22.472  0.00  0.00    +0.000 A 
ATOM     36  C   UNL     1      -2.179  12.052  21.885  0.00  0.00    +0.000 A 
ATOM     37  C   UNL     1      -3.383  12.695  22.168  0.00  0.00    +0.000 A 
ATOM     38  N   UNL     1      -4.531  12.271  21.599  0.00  0.00    +0.000 NA
ATOM     39  H   UNL     1      -7.356  13.256  20.850  0.00  0.00    +0.000 HD
ENDBRANCH  26  35
ENDBRANCH  25  26
ENDBRANCH   1  25
TORSDOF 5
ENDMDL
