MODEL 1
REMARK VINA RESULT:      -7.2      0.000      0.000
REMARK  Name = 
REMARK  12 active torsions:
REMARK  status: ('A' for Active; 'I' for Inactive)
REMARK    1  A    between atoms: C_1  and  C_2
REMARK    2  A    between atoms: C_2  and  C_3
REMARK    3  A    between atoms: C_3  and  C_4
REMARK    4  A    between atoms: C_4  and  N_5
REMARK    5  A    between atoms: N_5  and  C_6
REMARK    6  A    between atoms: N_5  and  S_10
REMARK    7  A    between atoms: C_6  and  C_7
REMARK    8  A    between atoms: C_7  and  C_8
REMARK    9  A    between atoms: C_8  and  C_9
REMARK   10  A    between atoms: S_10  and  C_13
REMARK   11  A    between atoms: C_16  and  N_17
REMARK   12  A    between atoms: C_18  and  C_20
REMARK                            x       y       z     vdW  Elec       q    Type
REMARK                         _______ _______ _______ _____ _____    ______ ____
ROOT
ATOM      1  C   UNL     1       3.858   5.614  18.685  0.00  0.00    +0.000 A 
ATOM      2  C   UNL     1       3.098   5.489  19.843  0.00  0.00    +0.000 A 
ATOM      3  C   UNL     1       2.209   6.504  20.193  0.00  0.00    +0.000 A 
ATOM      4  C   UNL     1       2.083   7.646  19.397  0.00  0.00    +0.000 A 
ATOM      5  C   UNL     1       2.839   7.746  18.219  0.00  0.00    +0.000 A 
ATOM      6  C   UNL     1       3.739   6.736  17.864  0.00  0.00    +0.000 A 
ENDROOT
BRANCH   4   7
ATOM      7  N   UNL     1       1.225   8.713  19.716  0.00  0.00    +0.000 N 
ATOM      8  C   UNL     1       0.905   9.184  20.983  0.00  0.00    +0.000 C 
ATOM      9  O   UNL     1       1.384   8.741  22.023  0.00  0.00    +0.000 OA
ATOM     10  H   UNL     1       0.850   9.252  18.944  0.00  0.00    +0.000 HD
BRANCH   8  11
ATOM     11  C   UNL     1      -0.036  10.300  21.010  0.00  0.00    +0.000 A 
ATOM     12  C   UNL     1      -0.553  10.954  19.905  0.00  0.00    +0.000 A 
ATOM     13  C   UNL     1      -1.466  11.988  20.257  0.00  0.00    +0.000 A 
ATOM     14  C   UNL     1      -1.609  12.101  21.621  0.00  0.00    +0.000 A 
ATOM     15  S   UNL     1      -0.642  10.971  22.465  0.00  0.00    +0.000 S 
ENDBRANCH   8  11
ENDBRANCH   4   7
BRANCH   1  16
ATOM     16  S   UNL     1       5.067   4.362  18.341  0.00  0.00    +0.000 S 
ATOM     17  O   UNL     1       4.306   3.148  18.180  0.00  0.00    +0.000 OA
ATOM     18  O   UNL     1       6.124   4.466  19.328  0.00  0.00    +0.000 OA
BRANCH  16  19
ATOM     19  N   UNL     1       5.746   4.873  16.804  0.00  0.00    +0.000 NA
BRANCH  19  20
ATOM     20  C   UNL     1       7.162   5.385  17.011  0.00  0.00    +0.000 C 
BRANCH  20  21
ATOM     21  C   UNL     1       7.370   6.898  16.925  0.00  0.00    +0.000 C 
BRANCH  21  23
ATOM     22  C   UNL     1       8.127   9.056  17.947  0.00  0.00    +0.000 C 
ATOM     23  C   UNL     1       7.948   7.559  18.174  0.00  0.00    +0.000 C 
ENDBRANCH  21  23
ENDBRANCH  20  21
ENDBRANCH  19  20
BRANCH  19  24
ATOM     24  C   UNL     1       5.679   3.811  15.743  0.00  0.00    +0.000 C 
BRANCH  24  25
ATOM     25  C   UNL     1       6.446   4.107  14.449  0.00  0.00    +0.000 C 
BRANCH  25  26
ATOM     26  C   UNL     1       5.705   3.745  13.160  0.00  0.00    +0.000 C 
ATOM     27  C   UNL     1       6.695   3.468  12.033  0.00  0.00    +0.000 C 
ENDBRANCH  25  26
ENDBRANCH  24  25
ENDBRANCH  19  24
ENDBRANCH  16  19
ENDBRANCH   1  16
TORSDOF 10
ENDMDL
MODEL 2
REMARK VINA RESULT:      -7.1      1.601      1.983
REMARK  Name = 
REMARK  12 active torsions:
REMARK  status: ('A' for Active; 'I' for Inactive)
REMARK    1  A    between atoms: C_1  and  C_2
REMARK    2  A    between atoms: C_2  and  C_3
REMARK    3  A    between atoms: C_3  and  C_4
REMARK    4  A    between atoms: C_4  and  N_5
REMARK    5  A    between atoms: N_5  and  C_6
REMARK    6  A    between atoms: N_5  and  S_10
REMARK    7  A    between atoms: C_6  and  C_7
REMARK    8  A    between atoms: C_7  and  C_8
REMARK    9  A    between atoms: C_8  and  C_9
REMARK   10  A    between atoms: S_10  and  C_13
REMARK   11  A    between atoms: C_16  and  N_17
REMARK   12  A    between atoms: C_18  and  C_20
REMARK                            x       y       z     vdW  Elec       q    Type
REMARK                         _______ _______ _______ _____ _____    ______ ____
ROOT
ATOM      1  C   UNL     1       3.422   6.153  18.680  0.00  0.00    +0.000 A 
ATOM      2  C   UNL     1       3.403   7.216  17.783  0.00  0.00    +0.000 A 
ATOM      3  C   UNL     1       2.656   8.354  18.084  0.00  0.00    +0.000 A 
ATOM      4  C   UNL     1       1.923   8.430  19.272  0.00  0.00    +0.000 A 
ATOM      5  C   UNL     1       1.972   7.359  20.177  0.00  0.00    +0.000 A 
ATOM      6  C   UNL     1       2.712   6.210  19.879  0.00  0.00    +0.000 A 
ENDROOT
BRANCH   4   7
ATOM      7  N   UNL     1       1.129   9.540  19.614  0.00  0.00    +0.000 N 
ATOM      8  C   UNL     1       0.101  10.099  18.866  0.00  0.00    +0.000 C 
ATOM      9  O   UNL     1      -0.292   9.652  17.792  0.00  0.00    +0.000 OA
ATOM     10  H   UNL     1       1.264   9.938  20.535  0.00  0.00    +0.000 HD
BRANCH   8  11
ATOM     11  C   UNL     1      -0.537  11.267  19.466  0.00  0.00    +0.000 A 
ATOM     12  C   UNL     1      -0.022  12.035  20.496  0.00  0.00    +0.000 A 
ATOM     13  C   UNL     1      -0.870  13.123  20.847  0.00  0.00    +0.000 A 
ATOM     14  C   UNL     1      -2.014  13.146  20.083  0.00  0.00    +0.000 A 
ATOM     15  S   UNL     1      -2.062  11.859  18.958  0.00  0.00    +0.000 S 
ENDBRANCH   8  11
ENDBRANCH   4   7
BRANCH   1  16
ATOM     16  S   UNL     1       4.280   4.676  18.203  0.00  0.00    +0.000 S 
ATOM     17  O   UNL     1       3.525   4.151  17.093  0.00  0.00    +0.000 OA
ATOM     18  O   UNL     1       4.523   3.885  19.394  0.00  0.00    +0.000 OA
BRANCH  16  19
ATOM     19  N   UNL     1       5.839   5.277  17.659  0.00  0.00    +0.000 NA
BRANCH  19  20
ATOM     20  C   UNL     1       6.681   5.684  18.857  0.00  0.00    +0.000 C 
BRANCH  20  21
ATOM     21  C   UNL     1       7.889   6.581  18.580  0.00  0.00    +0.000 C 
BRANCH  21  23
ATOM     22  C   UNL     1       8.198   9.007  18.040  0.00  0.00    +0.000 C 
ATOM     23  C   UNL     1       7.681   7.666  17.528  0.00  0.00    +0.000 C 
ENDBRANCH  21  23
ENDBRANCH  20  21
ENDBRANCH  19  20
BRANCH  19  24
ATOM     24  C   UNL     1       6.565   4.316  16.759  0.00  0.00    +0.000 C 
BRANCH  24  25
ATOM     25  C   UNL     1       6.721   4.753  15.298  0.00  0.00    +0.000 C 
BRANCH  25  26
ATOM     26  C   UNL     1       5.585   4.322  14.368  0.00  0.00    +0.000 C 
ATOM     27  C   UNL     1       6.144   3.686  13.100  0.00  0.00    +0.000 C 
ENDBRANCH  25  26
ENDBRANCH  24  25
ENDBRANCH  19  24
ENDBRANCH  16  19
ENDBRANCH   1  16
TORSDOF 10
ENDMDL
MODEL 3
REMARK VINA RESULT:      -7.1      1.518      1.587
REMARK  Name = 
REMARK  12 active torsions:
REMARK  status: ('A' for Active; 'I' for Inactive)
REMARK    1  A    between atoms: C_1  and  C_2
REMARK    2  A    between atoms: C_2  and  C_3
REMARK    3  A    between atoms: C_3  and  C_4
REMARK    4  A    between atoms: C_4  and  N_5
REMARK    5  A    between atoms: N_5  and  C_6
REMARK    6  A    between atoms: N_5  and  S_10
REMARK    7  A    between atoms: C_6  and  C_7
REMARK    8  A    between atoms: C_7  and  C_8
REMARK    9  A    between atoms: C_8  and  C_9
REMARK   10  A    between atoms: S_10  and  C_13
REMARK   11  A    between atoms: C_16  and  N_17
REMARK   12  A    between atoms: C_18  and  C_20
REMARK                            x       y       z     vdW  Elec       q    Type
REMARK                         _______ _______ _______ _____ _____    ______ ____
ROOT
ATOM      1  C   UNL     1       3.956   5.553  18.398  0.00  0.00    +0.000 A 
ATOM      2  C   UNL     1       3.154   5.496  19.532  0.00  0.00    +0.000 A 
ATOM      3  C   UNL     1       2.311   6.566  19.831  0.00  0.00    +0.000 A 
ATOM      4  C   UNL     1       2.274   7.695  19.007  0.00  0.00    +0.000 A 
ATOM      5  C   UNL     1       3.072   7.726  17.853  0.00  0.00    +0.000 A 
ATOM      6  C   UNL     1       3.926   6.660  17.550  0.00  0.00    +0.000 A 
ENDROOT
BRANCH   4   7
ATOM      7  N   UNL     1       1.467   8.815  19.274  0.00  0.00    +0.000 N 
ATOM      8  C   UNL     1       1.375   9.981  18.526  0.00  0.00    +0.000 C 
ATOM      9  O   UNL     1       1.973  10.173  17.472  0.00  0.00    +0.000 OA
ATOM     10  H   UNL     1       0.826   8.746  20.055  0.00  0.00    +0.000 HD
BRANCH   8  11
ATOM     11  C   UNL     1       0.464  10.989  19.062  0.00  0.00    +0.000 A 
ATOM     12  C   UNL     1      -0.712  11.419  18.471  0.00  0.00    +0.000 A 
ATOM     13  C   UNL     1      -1.392  12.396  19.250  0.00  0.00    +0.000 A 
ATOM     14  C   UNL     1      -0.709  12.694  20.407  0.00  0.00    +0.000 A 
ATOM     15  S   UNL     1       0.744  11.804  20.542  0.00  0.00    +0.000 S 
ENDBRANCH   8  11
ENDBRANCH   4   7
BRANCH   1  16
ATOM     16  S   UNL     1       5.103   4.229  18.121  0.00  0.00    +0.000 S 
ATOM     17  O   UNL     1       4.453   3.369  17.164  0.00  0.00    +0.000 OA
ATOM     18  O   UNL     1       5.543   3.730  19.410  0.00  0.00    +0.000 OA
BRANCH  16  19
ATOM     19  N   UNL     1       6.479   5.039  17.387  0.00  0.00    +0.000 NA
BRANCH  19  20
ATOM     20  C   UNL     1       7.564   5.257  18.429  0.00  0.00    +0.000 C 
BRANCH  20  21
ATOM     21  C   UNL     1       8.054   6.692  18.629  0.00  0.00    +0.000 C 
BRANCH  21  23
ATOM     22  C   UNL     1       8.138   9.087  17.902  0.00  0.00    +0.000 C 
ATOM     23  C   UNL     1       7.615   7.695  17.565  0.00  0.00    +0.000 C 
ENDBRANCH  21  23
ENDBRANCH  20  21
ENDBRANCH  19  20
BRANCH  19  24
ATOM     24  C   UNL     1       7.001   4.335  16.167  0.00  0.00    +0.000 C 
BRANCH  24  25
ATOM     25  C   UNL     1       6.768   5.049  14.830  0.00  0.00    +0.000 C 
BRANCH  25  26
ATOM     26  C   UNL     1       6.721   4.132  13.606  0.00  0.00    +0.000 C 
ATOM     27  C   UNL     1       5.277   3.804  13.238  0.00  0.00    +0.000 C 
ENDBRANCH  25  26
ENDBRANCH  24  25
ENDBRANCH  19  24
ENDBRANCH  16  19
ENDBRANCH   1  16
TORSDOF 10
ENDMDL
MODEL 4
REMARK VINA RESULT:      -7.0      1.552      1.653
REMARK  Name = 
REMARK  12 active torsions:
REMARK  status: ('A' for Active; 'I' for Inactive)
REMARK    1  A    between atoms: C_1  and  C_2
REMARK    2  A    between atoms: C_2  and  C_3
REMARK    3  A    between atoms: C_3  and  C_4
REMARK    4  A    between atoms: C_4  and  N_5
REMARK    5  A    between atoms: N_5  and  C_6
REMARK    6  A    between atoms: N_5  and  S_10
REMARK    7  A    between atoms: C_6  and  C_7
REMARK    8  A    between atoms: C_7  and  C_8
REMARK    9  A    between atoms: C_8  and  C_9
REMARK   10  A    between atoms: S_10  and  C_13
REMARK   11  A    between atoms: C_16  and  N_17
REMARK   12  A    between atoms: C_18  and  C_20
REMARK                            x       y       z     vdW  Elec       q    Type
REMARK                         _______ _______ _______ _____ _____    ______ ____
ROOT
ATOM      1  C   UNL     1       3.704   5.420  18.293  0.00  0.00    +0.000 A 
ATOM      2  C   UNL     1       2.916   5.387  19.438  0.00  0.00    +0.000 A 
ATOM      3  C   UNL     1       2.232   6.536  19.835  0.00  0.00    +0.000 A 
ATOM      4  C   UNL     1       2.342   7.718  19.097  0.00  0.00    +0.000 A 
ATOM      5  C   UNL     1       3.122   7.728  17.931  0.00  0.00    +0.000 A 
ATOM      6  C   UNL     1       3.817   6.582  17.531  0.00  0.00    +0.000 A 
ENDROOT
BRANCH   4   7
ATOM      7  N   UNL     1       1.700   8.914  19.465  0.00  0.00    +0.000 N 
ATOM      8  C   UNL     1       0.817   9.664  18.699  0.00  0.00    +0.000 C 
ATOM      9  O   UNL     1       0.432   9.342  17.578  0.00  0.00    +0.000 OA
ATOM     10  H   UNL     1       1.833   9.236  20.417  0.00  0.00    +0.000 HD
BRANCH   8  11
ATOM     11  C   UNL     1       0.321  10.880  19.338  0.00  0.00    +0.000 A 
ATOM     12  C   UNL     1       0.916  11.542  20.398  0.00  0.00    +0.000 A 
ATOM     13  C   UNL     1       0.205  12.713  20.782  0.00  0.00    +0.000 A 
ATOM     14  C   UNL     1      -0.920  12.903  20.013  0.00  0.00    +0.000 A 
ATOM     15  S   UNL     1      -1.115  11.672  18.843  0.00  0.00    +0.000 S 
ENDBRANCH   8  11
ENDBRANCH   4   7
BRANCH   1  16
ATOM     16  S   UNL     1       4.655   3.977  17.894  0.00  0.00    +0.000 S 
ATOM     17  O   UNL     1       3.794   3.189  17.047  0.00  0.00    +0.000 OA
ATOM     18  O   UNL     1       5.205   3.438  19.123  0.00  0.00    +0.000 OA
BRANCH  16  19
ATOM     19  N   UNL     1       6.000   4.627  16.970  0.00  0.00    +0.000 NA
BRANCH  19  20
ATOM     20  C   UNL     1       7.221   4.762  17.864  0.00  0.00    +0.000 C 
BRANCH  20  21
ATOM     21  C   UNL     1       7.220   5.916  18.868  0.00  0.00    +0.000 C 
BRANCH  21  23
ATOM     22  C   UNL     1       7.602   7.936  17.438  0.00  0.00    +0.000 C 
ATOM     23  C   UNL     1       8.172   7.067  18.555  0.00  0.00    +0.000 C 
ENDBRANCH  21  23
ENDBRANCH  20  21
ENDBRANCH  19  20
BRANCH  19  24
ATOM     24  C   UNL     1       6.297   3.845  15.722  0.00  0.00    +0.000 C 
BRANCH  24  25
ATOM     25  C   UNL     1       5.673   4.382  14.429  0.00  0.00    +0.000 C 
BRANCH  25  26
ATOM     26  C   UNL     1       6.257   3.803  13.138  0.00  0.00    +0.000 C 
ATOM     27  C   UNL     1       5.142   3.406  12.177  0.00  0.00    +0.000 C 
ENDBRANCH  25  26
ENDBRANCH  24  25
ENDBRANCH  19  24
ENDBRANCH  16  19
ENDBRANCH   1  16
TORSDOF 10
ENDMDL
MODEL 5
REMARK VINA RESULT:      -7.0      0.718      1.311
REMARK  Name = 
REMARK  12 active torsions:
REMARK  status: ('A' for Active; 'I' for Inactive)
REMARK    1  A    between atoms: C_1  and  C_2
REMARK    2  A    between atoms: C_2  and  C_3
REMARK    3  A    between atoms: C_3  and  C_4
REMARK    4  A    between atoms: C_4  and  N_5
REMARK    5  A    between atoms: N_5  and  C_6
REMARK    6  A    between atoms: N_5  and  S_10
REMARK    7  A    between atoms: C_6  and  C_7
REMARK    8  A    between atoms: C_7  and  C_8
REMARK    9  A    between atoms: C_8  and  C_9
REMARK   10  A    between atoms: S_10  and  C_13
REMARK   11  A    between atoms: C_16  and  N_17
REMARK   12  A    between atoms: C_18  and  C_20
REMARK                            x       y       z     vdW  Elec       q    Type
REMARK                         _______ _______ _______ _____ _____    ______ ____
ROOT
ATOM      1  C   UNL     1       3.504   5.543  18.797  0.00  0.00    +0.000 A 
ATOM      2  C   UNL     1       3.489   6.685  18.003  0.00  0.00    +0.000 A 
ATOM      3  C   UNL     1       2.702   7.772  18.379  0.00  0.00    +0.000 A 
ATOM      4  C   UNL     1       1.924   7.720  19.539  0.00  0.00    +0.000 A 
ATOM      5  C   UNL     1       1.968   6.569  20.342  0.00  0.00    +0.000 A 
ATOM      6  C   UNL     1       2.749   5.471  19.968  0.00  0.00    +0.000 A 
ENDROOT
BRANCH   4   7
ATOM      7  N   UNL     1       1.089   8.773  19.952  0.00  0.00    +0.000 N 
ATOM      8  C   UNL     1       0.982   9.310  21.228  0.00  0.00    +0.000 C 
ATOM      9  O   UNL     1       1.661   8.951  22.186  0.00  0.00    +0.000 OA
ATOM     10  H   UNL     1       0.555   9.249  19.233  0.00  0.00    +0.000 HD
BRANCH   8  11
ATOM     11  C   UNL     1       0.010  10.391  21.366  0.00  0.00    +0.000 A 
ATOM     12  C   UNL     1      -0.369  11.276  20.372  0.00  0.00    +0.000 A 
ATOM     13  C   UNL     1      -1.356  12.203  20.809  0.00  0.00    +0.000 A 
ATOM     14  C   UNL     1      -1.692  12.007  22.129  0.00  0.00    +0.000 A 
ATOM     15  S   UNL     1      -0.816  10.718  22.831  0.00  0.00    +0.000 S 
ENDBRANCH   8  11
ENDBRANCH   4   7
BRANCH   1  16
ATOM     16  S   UNL     1       4.418   4.137  18.219  0.00  0.00    +0.000 S 
ATOM     17  O   UNL     1       3.415   3.193  17.795  0.00  0.00    +0.000 OA
ATOM     18  O   UNL     1       5.406   3.792  19.222  0.00  0.00    +0.000 OA
BRANCH  16  19
ATOM     19  N   UNL     1       5.292   4.771  16.833  0.00  0.00    +0.000 NA
BRANCH  19  20
ATOM     20  C   UNL     1       6.725   5.087  17.229  0.00  0.00    +0.000 C 
BRANCH  20  21
ATOM     21  C   UNL     1       7.124   6.564  17.258  0.00  0.00    +0.000 C 
BRANCH  21  23
ATOM     22  C   UNL     1       8.031   5.894  19.495  0.00  0.00    +0.000 C 
ATOM     23  C   UNL     1       8.004   6.988  18.432  0.00  0.00    +0.000 C 
ENDBRANCH  21  23
ENDBRANCH  20  21
ENDBRANCH  19  20
BRANCH  19  24
ATOM     24  C   UNL     1       5.224   3.876  15.628  0.00  0.00    +0.000 C 
BRANCH  24  25
ATOM     25  C   UNL     1       5.471   4.553  14.274  0.00  0.00    +0.000 C 
BRANCH  25  26
ATOM     26  C   UNL     1       6.443   3.815  13.350  0.00  0.00    +0.000 C 
ATOM     27  C   UNL     1       5.703   3.237  12.148  0.00  0.00    +0.000 C 
ENDBRANCH  25  26
ENDBRANCH  24  25
ENDBRANCH  19  24
ENDBRANCH  16  19
ENDBRANCH   1  16
TORSDOF 10
ENDMDL
MODEL 6
REMARK VINA RESULT:      -6.9      3.852      7.562
REMARK  Name = 
REMARK  12 active torsions:
REMARK  status: ('A' for Active; 'I' for Inactive)
REMARK    1  A    between atoms: C_1  and  C_2
REMARK    2  A    between atoms: C_2  and  C_3
REMARK    3  A    between atoms: C_3  and  C_4
REMARK    4  A    between atoms: C_4  and  N_5
REMARK    5  A    between atoms: N_5  and  C_6
REMARK    6  A    between atoms: N_5  and  S_10
REMARK    7  A    between atoms: C_6  and  C_7
REMARK    8  A    between atoms: C_7  and  C_8
REMARK    9  A    between atoms: C_8  and  C_9
REMARK   10  A    between atoms: S_10  and  C_13
REMARK   11  A    between atoms: C_16  and  N_17
REMARK   12  A    between atoms: C_18  and  C_20
REMARK                            x       y       z     vdW  Elec       q    Type
REMARK                         _______ _______ _______ _____ _____    ______ ____
ROOT
ATOM      1  C   UNL     1       6.359   5.351  17.945  0.00  0.00    +0.000 A 
ATOM      2  C   UNL     1       6.348   6.442  17.083  0.00  0.00    +0.000 A 
ATOM      3  C   UNL     1       7.186   7.527  17.338  0.00  0.00    +0.000 A 
ATOM      4  C   UNL     1       8.027   7.529  18.455  0.00  0.00    +0.000 A 
ATOM      5  C   UNL     1       8.044   6.411  19.302  0.00  0.00    +0.000 A 
ATOM      6  C   UNL     1       7.201   5.322  19.058  0.00  0.00    +0.000 A 
ENDROOT
BRANCH   4   7
ATOM      7  N   UNL     1       8.871   8.607  18.778  0.00  0.00    +0.000 N 
ATOM      8  C   UNL     1       8.722   9.934  18.396  0.00  0.00    +0.000 C 
ATOM      9  O   UNL     1       7.775  10.361  17.742  0.00  0.00    +0.000 OA
ATOM     10  H   UNL     1       9.634   8.421  19.418  0.00  0.00    +0.000 HD
BRANCH   8  11
ATOM     11  C   UNL     1       9.771  10.835  18.865  0.00  0.00    +0.000 A 
ATOM     12  C   UNL     1      10.077  11.109  20.187  0.00  0.00    +0.000 A 
ATOM     13  C   UNL     1      11.169  12.011  20.322  0.00  0.00    +0.000 A 
ATOM     14  C   UNL     1      11.657  12.410  19.098  0.00  0.00    +0.000 A 
ATOM     15  S   UNL     1      10.796  11.703  17.802  0.00  0.00    +0.000 S 
ENDBRANCH   8  11
ENDBRANCH   4   7
BRANCH   1  16
ATOM     16  S   UNL     1       5.190   4.049  17.657  0.00  0.00    +0.000 S 
ATOM     17  O   UNL     1       5.327   3.171  18.792  0.00  0.00    +0.000 OA
ATOM     18  O   UNL     1       5.369   3.567  16.301  0.00  0.00    +0.000 OA
BRANCH  16  19
ATOM     19  N   UNL     1       3.643   4.882  17.707  0.00  0.00    +0.000 NA
BRANCH  19  20
ATOM     20  C   UNL     1       2.539   3.945  17.246  0.00  0.00    +0.000 C 
BRANCH  20  21
ATOM     21  C   UNL     1       1.258   3.922  18.082  0.00  0.00    +0.000 C 
BRANCH  21  23
ATOM     22  C   UNL     1       1.156   2.876  20.356  0.00  0.00    +0.000 C 
ATOM     23  C   UNL     1       0.998   2.633  18.858  0.00  0.00    +0.000 C 
ENDBRANCH  21  23
ENDBRANCH  20  21
ENDBRANCH  19  20
BRANCH  19  24
ATOM     24  C   UNL     1       3.342   5.496  19.045  0.00  0.00    +0.000 C 
BRANCH  24  25
ATOM     25  C   UNL     1       3.221   7.024  19.071  0.00  0.00    +0.000 C 
BRANCH  25  26
ATOM     26  C   UNL     1       2.805   7.662  17.743  0.00  0.00    +0.000 C 
ATOM     27  C   UNL     1       1.821   8.802  17.983  0.00  0.00    +0.000 C 
ENDBRANCH  25  26
ENDBRANCH  24  25
ENDBRANCH  19  24
ENDBRANCH  16  19
ENDBRANCH   1  16
TORSDOF 10
ENDMDL
MODEL 7
REMARK VINA RESULT:      -6.9      1.391      1.618
REMARK  Name = 
REMARK  12 active torsions:
REMARK  status: ('A' for Active; 'I' for Inactive)
REMARK    1  A    between atoms: C_1  and  C_2
REMARK    2  A    between atoms: C_2  and  C_3
REMARK    3  A    between atoms: C_3  and  C_4
REMARK    4  A    between atoms: C_4  and  N_5
REMARK    5  A    between atoms: N_5  and  C_6
REMARK    6  A    between atoms: N_5  and  S_10
REMARK    7  A    between atoms: C_6  and  C_7
REMARK    8  A    between atoms: C_7  and  C_8
REMARK    9  A    between atoms: C_8  and  C_9
REMARK   10  A    between atoms: S_10  and  C_13
REMARK   11  A    between atoms: C_16  and  N_17
REMARK   12  A    between atoms: C_18  and  C_20
REMARK                            x       y       z     vdW  Elec       q    Type
REMARK                         _______ _______ _______ _____ _____    ______ ____
ROOT
ATOM      1  C   UNL     1       2.787   5.541  19.000  0.00  0.00    +0.000 A 
ATOM      2  C   UNL     1       2.222   5.450  20.267  0.00  0.00    +0.000 A 
ATOM      3  C   UNL     1       1.655   6.583  20.849  0.00  0.00    +0.000 A 
ATOM      4  C   UNL     1       1.659   7.807  20.174  0.00  0.00    +0.000 A 
ATOM      5  C   UNL     1       2.213   7.877  18.886  0.00  0.00    +0.000 A 
ATOM      6  C   UNL     1       2.790   6.746  18.299  0.00  0.00    +0.000 A 
ENDROOT
BRANCH   4   7
ATOM      7  N   UNL     1       1.130   8.988  20.723  0.00  0.00    +0.000 N 
ATOM      8  C   UNL     1      -0.077   9.134  21.396  0.00  0.00    +0.000 C 
ATOM      9  O   UNL     1      -0.842   8.208  21.647  0.00  0.00    +0.000 OA
ATOM     10  H   UNL     1       1.715   9.814  20.695  0.00  0.00    +0.000 HD
BRANCH   8  11
ATOM     11  C   UNL     1      -0.378  10.492  21.839  0.00  0.00    +0.000 A 
ATOM     12  C   UNL     1      -1.131  10.838  22.948  0.00  0.00    +0.000 A 
ATOM     13  C   UNL     1      -1.226  12.246  23.130  0.00  0.00    +0.000 A 
ATOM     14  C   UNL     1      -0.554  12.935  22.146  0.00  0.00    +0.000 A 
ATOM     15  S   UNL     1       0.178  11.886  21.012  0.00  0.00    +0.000 S 
ENDBRANCH   8  11
ENDBRANCH   4   7
BRANCH   1  16
ATOM     16  S   UNL     1       3.608   4.110  18.349  0.00  0.00    +0.000 S 
ATOM     17  O   UNL     1       2.635   3.485  17.488  0.00  0.00    +0.000 OA
ATOM     18  O   UNL     1       4.215   3.390  19.452  0.00  0.00    +0.000 OA
BRANCH  16  19
ATOM     19  N   UNL     1       4.918   4.797  17.400  0.00  0.00    +0.000 NA
BRANCH  19  20
ATOM     20  C   UNL     1       6.249   4.499  18.069  0.00  0.00    +0.000 C 
BRANCH  20  21
ATOM     21  C   UNL     1       6.946   5.665  18.774  0.00  0.00    +0.000 C 
BRANCH  21  23
ATOM     22  C   UNL     1       6.936   7.788  17.445  0.00  0.00    +0.000 C 
ATOM     23  C   UNL     1       7.769   6.584  17.875  0.00  0.00    +0.000 C 
ENDBRANCH  21  23
ENDBRANCH  20  21
ENDBRANCH  19  20
BRANCH  19  24
ATOM     24  C   UNL     1       4.899   4.365  15.961  0.00  0.00    +0.000 C 
BRANCH  24  25
ATOM     25  C   UNL     1       5.923   5.044  15.044  0.00  0.00    +0.000 C 
BRANCH  25  26
ATOM     26  C   UNL     1       6.508   4.147  13.951  0.00  0.00    +0.000 C 
ATOM     27  C   UNL     1       5.408   3.653  13.018  0.00  0.00    +0.000 C 
ENDBRANCH  25  26
ENDBRANCH  24  25
ENDBRANCH  19  24
ENDBRANCH  16  19
ENDBRANCH   1  16
TORSDOF 10
ENDMDL
MODEL 8
REMARK VINA RESULT:      -6.9      1.731      3.740
REMARK  Name = 
REMARK  12 active torsions:
REMARK  status: ('A' for Active; 'I' for Inactive)
REMARK    1  A    between atoms: C_1  and  C_2
REMARK    2  A    between atoms: C_2  and  C_3
REMARK    3  A    between atoms: C_3  and  C_4
REMARK    4  A    between atoms: C_4  and  N_5
REMARK    5  A    between atoms: N_5  and  C_6
REMARK    6  A    between atoms: N_5  and  S_10
REMARK    7  A    between atoms: C_6  and  C_7
REMARK    8  A    between atoms: C_7  and  C_8
REMARK    9  A    between atoms: C_8  and  C_9
REMARK   10  A    between atoms: S_10  and  C_13
REMARK   11  A    between atoms: C_16  and  N_17
REMARK   12  A    between atoms: C_18  and  C_20
REMARK                            x       y       z     vdW  Elec       q    Type
REMARK                         _______ _______ _______ _____ _____    ______ ____
ROOT
ATOM      1  C   UNL     1       4.082   6.112  18.448  0.00  0.00    +0.000 A 
ATOM      2  C   UNL     1       4.036   7.152  17.527  0.00  0.00    +0.000 A 
ATOM      3  C   UNL     1       3.058   8.138  17.651  0.00  0.00    +0.000 A 
ATOM      4  C   UNL     1       2.121   8.083  18.687  0.00  0.00    +0.000 A 
ATOM      5  C   UNL     1       2.195   7.040  19.622  0.00  0.00    +0.000 A 
ATOM      6  C   UNL     1       3.168   6.043  19.500  0.00  0.00    +0.000 A 
ENDROOT
BRANCH   4   7
ATOM      7  N   UNL     1       1.095   9.032  18.844  0.00  0.00    +0.000 N 
ATOM      8  C   UNL     1       0.706   9.661  20.020  0.00  0.00    +0.000 C 
ATOM      9  O   UNL     1       1.258   9.497  21.104  0.00  0.00    +0.000 OA
ATOM     10  H   UNL     1       0.630   9.354  18.004  0.00  0.00    +0.000 HD
BRANCH   8  11
ATOM     11  C   UNL     1      -0.412  10.590  19.884  0.00  0.00    +0.000 A 
ATOM     12  C   UNL     1      -1.191  10.766  18.754  0.00  0.00    +0.000 A 
ATOM     13  C   UNL     1      -2.220  11.731  18.941  0.00  0.00    +0.000 A 
ATOM     14  C   UNL     1      -2.189  12.273  20.205  0.00  0.00    +0.000 A 
ATOM     15  S   UNL     1      -0.921  11.625  21.152  0.00  0.00    +0.000 S 
ENDBRANCH   8  11
ENDBRANCH   4   7
BRANCH   1  16
ATOM     16  S   UNL     1       5.259   4.813  18.182  0.00  0.00    +0.000 S 
ATOM     17  O   UNL     1       5.227   4.031  19.393  0.00  0.00    +0.000 OA
ATOM     18  O   UNL     1       6.491   5.406  17.697  0.00  0.00    +0.000 OA
BRANCH  16  19
ATOM     19  N   UNL     1       4.563   3.909  16.846  0.00  0.00    +0.000 NA
BRANCH  19  20
ATOM     20  C   UNL     1       5.629   3.635  15.799  0.00  0.00    +0.000 C 
BRANCH  20  21
ATOM     21  C   UNL     1       5.527   4.416  14.487  0.00  0.00    +0.000 C 
BRANCH  21  23
ATOM     22  C   UNL     1       5.317   3.296  12.257  0.00  0.00    +0.000 C 
ATOM     23  C   UNL     1       6.291   3.826  13.305  0.00  0.00    +0.000 C 
ENDBRANCH  21  23
ENDBRANCH  20  21
ENDBRANCH  19  20
BRANCH  19  24
ATOM     24  C   UNL     1       3.861   2.653  17.281  0.00  0.00    +0.000 C 
BRANCH  24  25
ATOM     25  C   UNL     1       2.387   2.809  17.670  0.00  0.00    +0.000 C 
BRANCH  25  26
ATOM     26  C   UNL     1       1.992   2.141  18.989  0.00  0.00    +0.000 C 
ATOM     27  C   UNL     1       0.993   3.008  19.749  0.00  0.00    +0.000 C 
ENDBRANCH  25  26
ENDBRANCH  24  25
ENDBRANCH  19  24
ENDBRANCH  16  19
ENDBRANCH   1  16
TORSDOF 10
ENDMDL
MODEL 9
REMARK VINA RESULT:      -6.8      2.175      3.843
REMARK  Name = 
REMARK  12 active torsions:
REMARK  status: ('A' for Active; 'I' for Inactive)
REMARK    1  A    between atoms: C_1  and  C_2
REMARK    2  A    between atoms: C_2  and  C_3
REMARK    3  A    between atoms: C_3  and  C_4
REMARK    4  A    between atoms: C_4  and  N_5
REMARK    5  A    between atoms: N_5  and  C_6
REMARK    6  A    between atoms: N_5  and  S_10
REMARK    7  A    between atoms: C_6  and  C_7
REMARK    8  A    between atoms: C_7  and  C_8
REMARK    9  A    between atoms: C_8  and  C_9
REMARK   10  A    between atoms: S_10  and  C_13
REMARK   11  A    between atoms: C_16  and  N_17
REMARK   12  A    between atoms: C_18  and  C_20
REMARK                            x       y       z     vdW  Elec       q    Type
REMARK                         _______ _______ _______ _____ _____    ______ ____
ROOT
ATOM      1  C   UNL     1       3.587   6.578  18.528  0.00  0.00    +0.000 A 
ATOM      2  C   UNL     1       2.889   6.457  19.724  0.00  0.00    +0.000 A 
ATOM      3  C   UNL     1       1.947   7.425  20.072  0.00  0.00    +0.000 A 
ATOM      4  C   UNL     1       1.708   8.517  19.233  0.00  0.00    +0.000 A 
ATOM      5  C   UNL     1       2.404   8.613  18.018  0.00  0.00    +0.000 A 
ATOM      6  C   UNL     1       3.355   7.650  17.666  0.00  0.00    +0.000 A 
ENDROOT
BRANCH   4   7
ATOM      7  N   UNL     1       0.793   9.539  19.545  0.00  0.00    +0.000 N 
ATOM      8  C   UNL     1      -0.204  10.053  18.726  0.00  0.00    +0.000 C 
ATOM      9  O   UNL     1      -0.453   9.634  17.599  0.00  0.00    +0.000 OA
ATOM     10  H   UNL     1       0.806   9.897  20.493  0.00  0.00    +0.000 HD
BRANCH   8  11
ATOM     11  C   UNL     1      -0.994  11.131  19.313  0.00  0.00    +0.000 A 
ATOM     12  C   UNL     1      -2.240  11.553  18.885  0.00  0.00    +0.000 A 
ATOM     13  C   UNL     1      -2.764  12.612  19.678  0.00  0.00    +0.000 A 
ATOM     14  C   UNL     1      -1.896  12.977  20.681  0.00  0.00    +0.000 A 
ATOM     15  S   UNL     1      -0.459  12.050  20.657  0.00  0.00    +0.000 S 
ENDBRANCH   8  11
ENDBRANCH   4   7
BRANCH   1  16
ATOM     16  S   UNL     1       4.863   5.396  18.183  0.00  0.00    +0.000 S 
ATOM     17  O   UNL     1       4.971   4.607  19.385  0.00  0.00    +0.000 OA
ATOM     18  O   UNL     1       6.006   6.104  17.639  0.00  0.00    +0.000 OA
BRANCH  16  19
ATOM     19  N   UNL     1       4.180   4.440  16.877  0.00  0.00    +0.000 NA
BRANCH  19  20
ATOM     20  C   UNL     1       5.292   3.944  15.967  0.00  0.00    +0.000 C 
BRANCH  20  21
ATOM     21  C   UNL     1       5.324   4.506  14.544  0.00  0.00    +0.000 C 
BRANCH  21  23
ATOM     22  C   UNL     1       5.824   3.372  12.368  0.00  0.00    +0.000 C 
ATOM     23  C   UNL     1       6.426   3.958  13.642  0.00  0.00    +0.000 C 
ENDBRANCH  21  23
ENDBRANCH  20  21
ENDBRANCH  19  20
BRANCH  19  24
ATOM     24  C   UNL     1       3.301   3.320  17.358  0.00  0.00    +0.000 C 
BRANCH  24  25
ATOM     25  C   UNL     1       1.855   3.700  17.695  0.00  0.00    +0.000 C 
BRANCH  25  26
ATOM     26  C   UNL     1       1.130   2.726  18.626  0.00  0.00    +0.000 C 
ATOM     27  C   UNL     1       0.923   3.353  20.001  0.00  0.00    +0.000 C 
ENDBRANCH  25  26
ENDBRANCH  24  25
ENDBRANCH  19  24
ENDBRANCH  16  19
ENDBRANCH   1  16
TORSDOF 10
ENDMDL
