MODEL 1
REMARK VINA RESULT:      -8.1      0.000      0.000
REMARK  Name = 
REMARK  12 active torsions:
REMARK  status: ('A' for Active; 'I' for Inactive)
REMARK    1  A    between atoms: C_1  and  O_2
REMARK    2  A    between atoms: O_2  and  C_3
REMARK    3  A    between atoms: C_4  and  C_5
REMARK    4  A    between atoms: C_5  and  O_6
REMARK    5  A    between atoms: O_6  and  C_7
REMARK    6  A    between atoms: C_14  and  C_15
REMARK    7  A    between atoms: C_16  and  N_17
REMARK    8  A    between atoms: N_17  and  C_18
REMARK    9  A    between atoms: C_18  and  C_19
REMARK   10  A    between atoms: C_19  and  C_20
REMARK   11  A    between atoms: C_23  and  O_24
REMARK   12  A    between atoms: C_25  and  O_26
REMARK                            x       y       z     vdW  Elec       q    Type
REMARK                         _______ _______ _______ _____ _____    ______ ____
ROOT
ATOM      1  C   UNL     1       2.552   5.203  18.813  0.00  0.00    +0.000 C 
ATOM      2  C   UNL     1       3.608   4.159  18.426  0.00  0.00    +0.000 C 
ATOM      3  C   UNL     1       4.678   5.077  17.979  0.00  0.00    +0.000 C 
ATOM      4  C   UNL     1       4.099   6.056  17.283  0.00  0.00    +0.000 C 
ATOM      5  C   UNL     1       5.036   6.673  16.279  0.00  0.00    +0.000 C 
ATOM      6  O   UNL     1       4.688   7.436  15.413  0.00  0.00    +0.000 OA
ATOM      7  C   UNL     1       6.503   6.226  16.476  0.00  0.00    +0.000 C 
ATOM      8  C   UNL     1       6.917   4.794  16.095  0.00  0.00    +0.000 C 
ATOM      9  C   UNL     1       6.817   6.511  17.750  0.00  0.00    +0.000 C 
ATOM     10  C   UNL     1       5.916   5.597  18.638  0.00  0.00    +0.000 C 
ATOM     11  O   UNL     1       6.187   5.336  19.804  0.00  0.00    +0.000 OA
ATOM     12  N   UNL     1       2.694   6.155  17.599  0.00  0.00    +0.000 N 
ATOM     13  C   UNL     1       2.122   7.451  18.044  0.00  0.00    +0.000 C 
ATOM     14  C   UNL     1       2.519   7.543  19.494  0.00  0.00    +0.000 C 
ATOM     15  N   UNL     1       1.748   6.961  20.589  0.00  0.00    +0.000 NA
ATOM     16  C   UNL     1       2.814   6.152  19.983  0.00  0.00    +0.000 C 
ATOM     17  H   UNL     1       0.842   6.604  20.269  0.00  0.00    +0.000 HD
ENDROOT
BRANCH   1  19
ATOM     18  C   UNL     1       1.053   4.231  20.357  0.00  0.00    +0.000 C 
ATOM     19  O   UNL     1       1.254   4.632  18.986  0.00  0.00    +0.000 OA
ENDBRANCH   1  19
BRANCH   9  20
ATOM     20  N   UNL     1       8.085   6.825  18.230  0.00  0.00    +0.000 N 
ATOM     21  H   UNL     1       8.813   6.281  17.758  0.00  0.00    +0.000 HD
BRANCH  20  22
ATOM     22  C   UNL     1       8.555   8.099  18.790  0.00  0.00    +0.000 C 
BRANCH  22  23
ATOM     23  C   UNL     1       8.421   9.353  17.881  0.00  0.00    +0.000 C 
BRANCH  23  24
ATOM     24  C   UNL     1       9.019  10.685  18.309  0.00  0.00    +0.000 A 
ATOM     25  C   UNL     1       8.540  11.908  17.823  0.00  0.00    +0.000 A 
ATOM     26  C   UNL     1       9.174  13.121  18.130  0.00  0.00    +0.000 A 
ATOM     27  C   UNL     1      10.304  13.113  18.933  0.00  0.00    +0.000 A 
ATOM     28  C   UNL     1      10.786  11.915  19.441  0.00  0.00    +0.000 A 
ATOM     29  C   UNL     1      10.162  10.710  19.129  0.00  0.00    +0.000 A 
BRANCH  27  30
ATOM     30  O   UNL     1      10.974  14.265  19.237  0.00  0.00    +0.000 OA
ATOM     31  H   UNL     1      10.435  14.764  19.877  0.00  0.00    +0.000 HD
ENDBRANCH  27  30
BRANCH  28  32
ATOM     32  O   UNL     1      11.901  11.922  20.229  0.00  0.00    +0.000 OA
ATOM     33  H   UNL     1      12.545  11.366  19.744  0.00  0.00    +0.000 HD
ENDBRANCH  28  32
ENDBRANCH  23  24
ENDBRANCH  22  23
ENDBRANCH  20  22
ENDBRANCH   9  20
BRANCH   2  34
ATOM     34  C   UNL     1       2.966   3.405  17.180  0.00  0.00    +0.000 C 
BRANCH  34  35
ATOM     35  O   UNL     1       2.202   2.225  17.491  0.00  0.00    +0.000 OA
BRANCH  35  36
ATOM     36  C   UNL     1       2.710   1.475  18.467  0.00  0.00    +0.000 C 
ATOM     37  N   UNL     1       1.845   1.388  19.500  0.00  0.00    +0.000 N 
ATOM     38  O   UNL     1       3.834   0.956  18.468  0.00  0.00    +0.000 OA
ATOM     39  H   UNL     1       1.096   2.063  19.538  0.00  0.00    +0.000 HD
ATOM     40  H   UNL     1       2.171   0.973  20.355  0.00  0.00    +0.000 HD
ENDBRANCH  35  36
ENDBRANCH  34  35
ENDBRANCH   2  34
TORSDOF 10
ENDMDL
MODEL 2
REMARK VINA RESULT:      -7.9      5.424      9.500
REMARK  Name = 
REMARK  12 active torsions:
REMARK  status: ('A' for Active; 'I' for Inactive)
REMARK    1  A    between atoms: C_1  and  O_2
REMARK    2  A    between atoms: O_2  and  C_3
REMARK    3  A    between atoms: C_4  and  C_5
REMARK    4  A    between atoms: C_5  and  O_6
REMARK    5  A    between atoms: O_6  and  C_7
REMARK    6  A    between atoms: C_14  and  C_15
REMARK    7  A    between atoms: C_16  and  N_17
REMARK    8  A    between atoms: N_17  and  C_18
REMARK    9  A    between atoms: C_18  and  C_19
REMARK   10  A    between atoms: C_19  and  C_20
REMARK   11  A    between atoms: C_23  and  O_24
REMARK   12  A    between atoms: C_25  and  O_26
REMARK                            x       y       z     vdW  Elec       q    Type
REMARK                         _______ _______ _______ _____ _____    ______ ____
ROOT
ATOM      1  C   UNL     1      -2.053  12.564  20.459  0.00  0.00    +0.000 C 
ATOM      2  C   UNL     1      -2.245  11.332  19.564  0.00  0.00    +0.000 C 
ATOM      3  C   UNL     1      -0.879  10.772  19.656  0.00  0.00    +0.000 C 
ATOM      4  C   UNL     1      -0.025  11.794  19.591  0.00  0.00    +0.000 C 
ATOM      5  C   UNL     1       1.320  11.380  19.053  0.00  0.00    +0.000 C 
ATOM      6  O   UNL     1       2.183  12.155  18.727  0.00  0.00    +0.000 OA
ATOM      7  C   UNL     1       1.481   9.845  18.963  0.00  0.00    +0.000 C 
ATOM      8  C   UNL     1       0.720   9.064  17.877  0.00  0.00    +0.000 C 
ATOM      9  C   UNL     1       1.223   9.366  20.192  0.00  0.00    +0.000 C 
ATOM     10  C   UNL     1      -0.281   9.671  20.473  0.00  0.00    +0.000 C 
ATOM     11  O   UNL     1      -0.929   9.069  21.321  0.00  0.00    +0.000 OA
ATOM     12  N   UNL     1      -0.675  13.036  19.931  0.00  0.00    +0.000 N 
ATOM     13  C   UNL     1      -0.117  13.900  21.001  0.00  0.00    +0.000 C 
ATOM     14  C   UNL     1      -0.574  13.239  22.276  0.00  0.00    +0.000 C 
ATOM     15  N   UNL     1      -1.867  13.493  22.907  0.00  0.00    +0.000 NA
ATOM     16  C   UNL     1      -1.767  12.382  21.950  0.00  0.00    +0.000 C 
ATOM     17  H   UNL     1      -2.363  14.271  22.459  0.00  0.00    +0.000 HD
ENDROOT
BRANCH   1  19
ATOM     18  C   UNL     1      -4.363  12.946  20.766  0.00  0.00    +0.000 C 
ATOM     19  O   UNL     1      -3.112  13.512  20.322  0.00  0.00    +0.000 OA
ENDBRANCH   1  19
BRANCH   9  20
ATOM     20  N   UNL     1       1.758   8.207  20.747  0.00  0.00    +0.000 N 
ATOM     21  H   UNL     1       1.327   7.986  21.649  0.00  0.00    +0.000 HD
BRANCH  20  22
ATOM     22  C   UNL     1       2.327   7.046  20.052  0.00  0.00    +0.000 C 
BRANCH  22  23
ATOM     23  C   UNL     1       1.586   5.691  20.235  0.00  0.00    +0.000 C 
BRANCH  23  24
ATOM     24  C   UNL     1       2.165   4.409  19.655  0.00  0.00    +0.000 A 
ATOM     25  C   UNL     1       1.353   3.360  19.205  0.00  0.00    +0.000 A 
ATOM     26  C   UNL     1       1.897   2.137  18.784  0.00  0.00    +0.000 A 
ATOM     27  C   UNL     1       3.271   1.958  18.814  0.00  0.00    +0.000 A 
ATOM     28  C   UNL     1       4.097   2.990  19.239  0.00  0.00    +0.000 A 
ATOM     29  C   UNL     1       3.557   4.200  19.664  0.00  0.00    +0.000 A 
BRANCH  27  30
ATOM     30  O   UNL     1       3.846   0.776  18.441  0.00  0.00    +0.000 OA
ATOM     31  H   UNL     1       4.391   0.944  17.652  0.00  0.00    +0.000 HD
ENDBRANCH  27  30
BRANCH  28  32
ATOM     32  O   UNL     1       5.449   2.798  19.264  0.00  0.00    +0.000 OA
ATOM     33  H   UNL     1       5.781   3.493  19.869  0.00  0.00    +0.000 HD
ENDBRANCH  28  32
ENDBRANCH  23  24
ENDBRANCH  22  23
ENDBRANCH  20  22
ENDBRANCH   9  20
BRANCH   2  34
ATOM     34  C   UNL     1      -2.500  11.944  18.116  0.00  0.00    +0.000 C 
BRANCH  34  35
ATOM     35  O   UNL     1      -2.173  11.082  17.009  0.00  0.00    +0.000 OA
BRANCH  35  36
ATOM     36  C   UNL     1      -3.061  11.090  16.018  0.00  0.00    +0.000 C 
ATOM     37  N   UNL     1      -4.207  11.688  16.409  0.00  0.00    +0.000 N 
ATOM     38  O   UNL     1      -2.898  10.585  14.899  0.00  0.00    +0.000 OA
ATOM     39  H   UNL     1      -4.355  11.805  17.400  0.00  0.00    +0.000 HD
ATOM     40  H   UNL     1      -5.003  11.626  15.800  0.00  0.00    +0.000 HD
ENDBRANCH  35  36
ENDBRANCH  34  35
ENDBRANCH   2  34
TORSDOF 10
ENDMDL
MODEL 3
REMARK VINA RESULT:      -7.7      0.972      1.377
REMARK  Name = 
REMARK  12 active torsions:
REMARK  status: ('A' for Active; 'I' for Inactive)
REMARK    1  A    between atoms: C_1  and  O_2
REMARK    2  A    between atoms: O_2  and  C_3
REMARK    3  A    between atoms: C_4  and  C_5
REMARK    4  A    between atoms: C_5  and  O_6
REMARK    5  A    between atoms: O_6  and  C_7
REMARK    6  A    between atoms: C_14  and  C_15
REMARK    7  A    between atoms: C_16  and  N_17
REMARK    8  A    between atoms: N_17  and  C_18
REMARK    9  A    between atoms: C_18  and  C_19
REMARK   10  A    between atoms: C_19  and  C_20
REMARK   11  A    between atoms: C_23  and  O_24
REMARK   12  A    between atoms: C_25  and  O_26
REMARK                            x       y       z     vdW  Elec       q    Type
REMARK                         _______ _______ _______ _____ _____    ______ ____
ROOT
ATOM      1  C   UNL     1       2.924   4.936  18.843  0.00  0.00    +0.000 C 
ATOM      2  C   UNL     1       4.067   3.959  18.534  0.00  0.00    +0.000 C 
ATOM      3  C   UNL     1       5.071   4.934  18.053  0.00  0.00    +0.000 C 
ATOM      4  C   UNL     1       4.431   5.822  17.293  0.00  0.00    +0.000 C 
ATOM      5  C   UNL     1       5.338   6.456  16.271  0.00  0.00    +0.000 C 
ATOM      6  O   UNL     1       4.949   7.139  15.357  0.00  0.00    +0.000 OA
ATOM      7  C   UNL     1       6.830   6.139  16.518  0.00  0.00    +0.000 C 
ATOM      8  C   UNL     1       7.364   4.725  16.227  0.00  0.00    +0.000 C 
ATOM      9  C   UNL     1       7.093   6.519  17.779  0.00  0.00    +0.000 C 
ATOM     10  C   UNL     1       6.250   5.587  18.702  0.00  0.00    +0.000 C 
ATOM     11  O   UNL     1       6.515   5.414  19.886  0.00  0.00    +0.000 OA
ATOM     12  N   UNL     1       3.016   5.827  17.579  0.00  0.00    +0.000 N 
ATOM     13  C   UNL     1       2.334   7.095  17.939  0.00  0.00    +0.000 C 
ATOM     14  C   UNL     1       2.692   7.300  19.388  0.00  0.00    +0.000 C 
ATOM     15  N   UNL     1       1.946   6.720  20.502  0.00  0.00    +0.000 NA
ATOM     16  C   UNL     1       3.086   5.966  19.961  0.00  0.00    +0.000 C 
ATOM     17  H   UNL     1       1.077   6.274  20.187  0.00  0.00    +0.000 HD
ENDROOT
BRANCH   1  19
ATOM     18  C   UNL     1       0.931   4.230  17.790  0.00  0.00    +0.000 C 
ATOM     19  O   UNL     1       1.672   4.273  19.027  0.00  0.00    +0.000 OA
ENDBRANCH   1  19
BRANCH   9  20
ATOM     20  N   UNL     1       8.323   6.960  18.261  0.00  0.00    +0.000 N 
ATOM     21  H   UNL     1       9.099   6.609  17.693  0.00  0.00    +0.000 HD
BRANCH  20  22
ATOM     22  C   UNL     1       8.622   8.200  18.987  0.00  0.00    +0.000 C 
BRANCH  22  23
ATOM     23  C   UNL     1       8.476   9.528  18.191  0.00  0.00    +0.000 C 
BRANCH  23  24
ATOM     24  C   UNL     1       9.250  10.769  18.609  0.00  0.00    +0.000 A 
ATOM     25  C   UNL     1       9.875  10.873  19.859  0.00  0.00    +0.000 A 
ATOM     26  C   UNL     1      10.484  12.064  20.281  0.00  0.00    +0.000 A 
ATOM     27  C   UNL     1      10.468  13.169  19.444  0.00  0.00    +0.000 A 
ATOM     28  C   UNL     1       9.871  13.084  18.193  0.00  0.00    +0.000 A 
ATOM     29  C   UNL     1       9.260  11.904  17.778  0.00  0.00    +0.000 A 
BRANCH  27  30
ATOM     30  O   UNL     1      11.022  14.360  19.820  0.00  0.00    +0.000 OA
ATOM     31  H   UNL     1      11.958  14.353  19.551  0.00  0.00    +0.000 HD
ENDBRANCH  27  30
BRANCH  28  32
ATOM     32  O   UNL     1       9.862  14.181  17.380  0.00  0.00    +0.000 OA
ATOM     33  H   UNL     1      10.732  14.604  17.532  0.00  0.00    +0.000 HD
ENDBRANCH  28  32
ENDBRANCH  23  24
ENDBRANCH  22  23
ENDBRANCH  20  22
ENDBRANCH   9  20
BRANCH   2  34
ATOM     34  C   UNL     1       3.513   3.088  17.323  0.00  0.00    +0.000 C 
BRANCH  34  35
ATOM     35  O   UNL     1       3.132   1.738  17.649  0.00  0.00    +0.000 OA
BRANCH  35  36
ATOM     36  C   UNL     1       3.491   1.337  18.866  0.00  0.00    +0.000 C 
ATOM     37  N   UNL     1       4.538   0.487  18.798  0.00  0.00    +0.000 N 
ATOM     38  O   UNL     1       2.930   1.651  19.924  0.00  0.00    +0.000 OA
ATOM     39  H   UNL     1       4.738   0.068  17.903  0.00  0.00    +0.000 HD
ATOM     40  H   UNL     1       4.806   0.001  19.636  0.00  0.00    +0.000 HD
ENDBRANCH  35  36
ENDBRANCH  34  35
ENDBRANCH   2  34
TORSDOF 10
ENDMDL
MODEL 4
REMARK VINA RESULT:      -7.7      5.247      8.738
REMARK  Name = 
REMARK  12 active torsions:
REMARK  status: ('A' for Active; 'I' for Inactive)
REMARK    1  A    between atoms: C_1  and  O_2
REMARK    2  A    between atoms: O_2  and  C_3
REMARK    3  A    between atoms: C_4  and  C_5
REMARK    4  A    between atoms: C_5  and  O_6
REMARK    5  A    between atoms: O_6  and  C_7
REMARK    6  A    between atoms: C_14  and  C_15
REMARK    7  A    between atoms: C_16  and  N_17
REMARK    8  A    between atoms: N_17  and  C_18
REMARK    9  A    between atoms: C_18  and  C_19
REMARK   10  A    between atoms: C_19  and  C_20
REMARK   11  A    between atoms: C_23  and  O_24
REMARK   12  A    between atoms: C_25  and  O_26
REMARK                            x       y       z     vdW  Elec       q    Type
REMARK                         _______ _______ _______ _____ _____    ______ ____
ROOT
ATOM      1  C   UNL     1      -1.858  12.426  20.371  0.00  0.00    +0.000 C 
ATOM      2  C   UNL     1      -2.046  11.182  19.491  0.00  0.00    +0.000 C 
ATOM      3  C   UNL     1      -0.671  10.641  19.572  0.00  0.00    +0.000 C 
ATOM      4  C   UNL     1       0.169  11.672  19.485  0.00  0.00    +0.000 C 
ATOM      5  C   UNL     1       1.512  11.269  18.934  0.00  0.00    +0.000 C 
ATOM      6  O   UNL     1       2.360  12.052  18.589  0.00  0.00    +0.000 OA
ATOM      7  C   UNL     1       1.692   9.736  18.860  0.00  0.00    +0.000 C 
ATOM      8  C   UNL     1       0.927   8.934  17.792  0.00  0.00    +0.000 C 
ATOM      9  C   UNL     1       1.455   9.267  20.096  0.00  0.00    +0.000 C 
ATOM     10  C   UNL     1      -0.049   9.556  20.394  0.00  0.00    +0.000 C 
ATOM     11  O   UNL     1      -0.679   8.955  21.256  0.00  0.00    +0.000 OA
ATOM     12  N   UNL     1      -0.494  12.910  19.820  0.00  0.00    +0.000 N 
ATOM     13  C   UNL     1       0.067  13.792  20.874  0.00  0.00    +0.000 C 
ATOM     14  C   UNL     1      -0.366  13.139  22.161  0.00  0.00    +0.000 C 
ATOM     15  N   UNL     1      -1.653  13.384  22.806  0.00  0.00    +0.000 NA
ATOM     16  C   UNL     1      -1.551  12.264  21.860  0.00  0.00    +0.000 C 
ATOM     17  H   UNL     1      -2.165  14.150  22.356  0.00  0.00    +0.000 HD
ENDROOT
BRANCH   1  19
ATOM     18  C   UNL     1      -4.177  12.766  20.659  0.00  0.00    +0.000 C 
ATOM     19  O   UNL     1      -2.931  13.358  20.237  0.00  0.00    +0.000 OA
ENDBRANCH   1  19
BRANCH   9  20
ATOM     20  N   UNL     1       2.012   8.121  20.657  0.00  0.00    +0.000 N 
ATOM     21  H   UNL     1       2.644   8.348  21.431  0.00  0.00    +0.000 HD
BRANCH  20  22
ATOM     22  C   UNL     1       1.437   6.772  20.727  0.00  0.00    +0.000 C 
BRANCH  22  23
ATOM     23  C   UNL     1       1.709   5.834  19.518  0.00  0.00    +0.000 C 
BRANCH  23  24
ATOM     24  C   UNL     1       3.128   5.409  19.173  0.00  0.00    +0.000 A 
ATOM     25  C   UNL     1       3.958   6.178  18.347  0.00  0.00    +0.000 A 
ATOM     26  C   UNL     1       5.220   5.720  17.940  0.00  0.00    +0.000 A 
ATOM     27  C   UNL     1       5.660   4.475  18.361  0.00  0.00    +0.000 A 
ATOM     28  C   UNL     1       4.863   3.703  19.195  0.00  0.00    +0.000 A 
ATOM     29  C   UNL     1       3.608   4.154  19.593  0.00  0.00    +0.000 A 
BRANCH  27  30
ATOM     30  O   UNL     1       6.869   3.973  17.968  0.00  0.00    +0.000 OA
ATOM     31  H   UNL     1       7.564   4.455  18.450  0.00  0.00    +0.000 HD
ENDBRANCH  27  30
BRANCH  28  32
ATOM     32  O   UNL     1       5.309   2.478  19.601  0.00  0.00    +0.000 OA
ATOM     33  H   UNL     1       5.968   2.222  18.923  0.00  0.00    +0.000 HD
ENDBRANCH  28  32
ENDBRANCH  23  24
ENDBRANCH  22  23
ENDBRANCH  20  22
ENDBRANCH   9  20
BRANCH   2  34
ATOM     34  C   UNL     1      -2.326  11.774  18.041  0.00  0.00    +0.000 C 
BRANCH  34  35
ATOM     35  O   UNL     1      -2.193  10.843  16.951  0.00  0.00    +0.000 OA
BRANCH  35  36
ATOM     36  C   UNL     1      -3.054  11.028  15.953  0.00  0.00    +0.000 C 
ATOM     37  N   UNL     1      -4.090  11.797  16.354  0.00  0.00    +0.000 N 
ATOM     38  O   UNL     1      -2.963  10.537  14.820  0.00  0.00    +0.000 OA
ATOM     39  H   UNL     1      -4.229  11.907  17.346  0.00  0.00    +0.000 HD
ATOM     40  H   UNL     1      -4.877  11.886  15.736  0.00  0.00    +0.000 HD
ENDBRANCH  35  36
ENDBRANCH  34  35
ENDBRANCH   2  34
TORSDOF 10
ENDMDL
MODEL 5
REMARK VINA RESULT:      -7.7      3.921      6.866
REMARK  Name = 
REMARK  12 active torsions:
REMARK  status: ('A' for Active; 'I' for Inactive)
REMARK    1  A    between atoms: C_1  and  O_2
REMARK    2  A    between atoms: O_2  and  C_3
REMARK    3  A    between atoms: C_4  and  C_5
REMARK    4  A    between atoms: C_5  and  O_6
REMARK    5  A    between atoms: O_6  and  C_7
REMARK    6  A    between atoms: C_14  and  C_15
REMARK    7  A    between atoms: C_16  and  N_17
REMARK    8  A    between atoms: N_17  and  C_18
REMARK    9  A    between atoms: C_18  and  C_19
REMARK   10  A    between atoms: C_19  and  C_20
REMARK   11  A    between atoms: C_23  and  O_24
REMARK   12  A    between atoms: C_25  and  O_26
REMARK                            x       y       z     vdW  Elec       q    Type
REMARK                         _______ _______ _______ _____ _____    ______ ____
ROOT
ATOM      1  C   UNL     1       5.693   5.064  16.772  0.00  0.00    +0.000 C 
ATOM      2  C   UNL     1       4.198   4.911  16.460  0.00  0.00    +0.000 C 
ATOM      3  C   UNL     1       3.649   5.466  17.717  0.00  0.00    +0.000 C 
ATOM      4  C   UNL     1       4.400   5.005  18.717  0.00  0.00    +0.000 C 
ATOM      5  C   UNL     1       3.643   4.949  20.019  0.00  0.00    +0.000 C 
ATOM      6  O   UNL     1       4.048   4.395  21.009  0.00  0.00    +0.000 OA
ATOM      7  C   UNL     1       2.285   5.683  19.953  0.00  0.00    +0.000 C 
ATOM      8  C   UNL     1       1.122   5.058  19.162  0.00  0.00    +0.000 C 
ATOM      9  C   UNL     1       2.550   6.933  19.539  0.00  0.00    +0.000 C 
ATOM     10  C   UNL     1       3.094   6.806  18.083  0.00  0.00    +0.000 C 
ATOM     11  O   UNL     1       3.092   7.743  17.293  0.00  0.00    +0.000 OA
ATOM     12  N   UNL     1       5.688   4.565  18.239  0.00  0.00    +0.000 N 
ATOM     13  C   UNL     1       6.931   5.106  18.844  0.00  0.00    +0.000 C 
ATOM     14  C   UNL     1       7.085   6.461  18.204  0.00  0.00    +0.000 C 
ATOM     15  N   UNL     1       7.751   6.686  16.923  0.00  0.00    +0.000 NA
ATOM     16  C   UNL     1       6.299   6.460  16.922  0.00  0.00    +0.000 C 
ATOM     17  H   UNL     1       8.217   5.839  16.583  0.00  0.00    +0.000 HD
ENDROOT
BRANCH   1  19
ATOM     18  C   UNL     1       6.402   4.818  14.533  0.00  0.00    +0.000 C 
ATOM     19  O   UNL     1       6.518   4.314  15.880  0.00  0.00    +0.000 OA
ENDBRANCH   1  19
BRANCH   9  20
ATOM     20  N   UNL     1       1.815   8.073  19.854  0.00  0.00    +0.000 N 
ATOM     21  H   UNL     1       1.375   8.480  19.024  0.00  0.00    +0.000 HD
BRANCH  20  22
ATOM     22  C   UNL     1       1.134   8.395  21.115  0.00  0.00    +0.000 C 
BRANCH  22  23
ATOM     23  C   UNL     1      -0.182   9.216  21.007  0.00  0.00    +0.000 C 
BRANCH  23  24
ATOM     24  C   UNL     1      -0.198  10.559  20.295  0.00  0.00    +0.000 A 
ATOM     25  C   UNL     1       0.306  11.724  20.887  0.00  0.00    +0.000 A 
ATOM     26  C   UNL     1       0.179  12.978  20.271  0.00  0.00    +0.000 A 
ATOM     27  C   UNL     1      -0.464  13.072  19.046  0.00  0.00    +0.000 A 
ATOM     28  C   UNL     1      -0.956  11.928  18.431  0.00  0.00    +0.000 A 
ATOM     29  C   UNL     1      -0.836  10.685  19.047  0.00  0.00    +0.000 A 
BRANCH  27  30
ATOM     30  O   UNL     1      -0.639  14.273  18.420  0.00  0.00    +0.000 OA
ATOM     31  H   UNL     1       0.196  14.770  18.487  0.00  0.00    +0.000 HD
ENDBRANCH  27  30
BRANCH  28  32
ATOM     32  O   UNL     1      -1.588  12.035  17.226  0.00  0.00    +0.000 OA
ATOM     33  H   UNL     1      -1.163  11.352  16.667  0.00  0.00    +0.000 HD
ENDBRANCH  28  32
ENDBRANCH  23  24
ENDBRANCH  22  23
ENDBRANCH  20  22
ENDBRANCH   9  20
BRANCH   2  34
ATOM     34  C   UNL     1       3.975   3.336  16.403  0.00  0.00    +0.000 C 
BRANCH  34  35
ATOM     35  O   UNL     1       2.684   2.872  16.842  0.00  0.00    +0.000 OA
BRANCH  35  36
ATOM     36  C   UNL     1       2.716   2.036  17.877  0.00  0.00    +0.000 C 
ATOM     37  N   UNL     1       3.934   1.463  17.989  0.00  0.00    +0.000 N 
ATOM     38  O   UNL     1       1.761   1.769  18.619  0.00  0.00    +0.000 OA
ATOM     39  H   UNL     1       4.546   1.513  17.190  0.00  0.00    +0.000 HD
ATOM     40  H   UNL     1       4.040   0.705  18.640  0.00  0.00    +0.000 HD
ENDBRANCH  35  36
ENDBRANCH  34  35
ENDBRANCH   2  34
TORSDOF 10
ENDMDL
MODEL 6
REMARK VINA RESULT:      -7.6      3.935      6.788
REMARK  Name = 
REMARK  12 active torsions:
REMARK  status: ('A' for Active; 'I' for Inactive)
REMARK    1  A    between atoms: C_1  and  O_2
REMARK    2  A    between atoms: O_2  and  C_3
REMARK    3  A    between atoms: C_4  and  C_5
REMARK    4  A    between atoms: C_5  and  O_6
REMARK    5  A    between atoms: O_6  and  C_7
REMARK    6  A    between atoms: C_14  and  C_15
REMARK    7  A    between atoms: C_16  and  N_17
REMARK    8  A    between atoms: N_17  and  C_18
REMARK    9  A    between atoms: C_18  and  C_19
REMARK   10  A    between atoms: C_19  and  C_20
REMARK   11  A    between atoms: C_23  and  O_24
REMARK   12  A    between atoms: C_25  and  O_26
REMARK                            x       y       z     vdW  Elec       q    Type
REMARK                         _______ _______ _______ _____ _____    ______ ____
ROOT
ATOM      1  C   UNL     1       5.571   5.005  16.771  0.00  0.00    +0.000 C 
ATOM      2  C   UNL     1       4.066   4.866  16.504  0.00  0.00    +0.000 C 
ATOM      3  C   UNL     1       3.560   5.402  17.787  0.00  0.00    +0.000 C 
ATOM      4  C   UNL     1       4.341   4.920  18.755  0.00  0.00    +0.000 C 
ATOM      5  C   UNL     1       3.625   4.845  20.079  0.00  0.00    +0.000 C 
ATOM      6  O   UNL     1       4.058   4.271  21.046  0.00  0.00    +0.000 OA
ATOM      7  C   UNL     1       2.270   5.588  20.069  0.00  0.00    +0.000 C 
ATOM      8  C   UNL     1       1.079   4.983  19.305  0.00  0.00    +0.000 C 
ATOM      9  C   UNL     1       2.530   6.843  19.669  0.00  0.00    +0.000 C 
ATOM     10  C   UNL     1       3.027   6.739  18.194  0.00  0.00    +0.000 C 
ATOM     11  O   UNL     1       3.004   7.690  17.421  0.00  0.00    +0.000 OA
ATOM     12  N   UNL     1       5.610   4.481  18.228  0.00  0.00    +0.000 N 
ATOM     13  C   UNL     1       6.875   5.004  18.802  0.00  0.00    +0.000 C 
ATOM     14  C   UNL     1       7.017   6.370  18.181  0.00  0.00    +0.000 C 
ATOM     15  N   UNL     1       7.643   6.613  16.883  0.00  0.00    +0.000 NA
ATOM     16  C   UNL     1       6.190   6.395  16.924  0.00  0.00    +0.000 C 
ATOM     17  H   UNL     1       8.093   5.769  16.513  0.00  0.00    +0.000 HD
ENDROOT
BRANCH   1  19
ATOM     18  C   UNL     1       6.202   4.791  14.505  0.00  0.00    +0.000 C 
ATOM     19  O   UNL     1       6.363   4.267  15.840  0.00  0.00    +0.000 OA
ENDBRANCH   1  19
BRANCH   9  20
ATOM     20  N   UNL     1       1.813   7.981  20.027  0.00  0.00    +0.000 N 
ATOM     21  H   UNL     1       1.246   8.331  19.249  0.00  0.00    +0.000 HD
BRANCH  20  22
ATOM     22  C   UNL     1       1.308   8.357  21.354  0.00  0.00    +0.000 C 
BRANCH  22  23
ATOM     23  C   UNL     1      -0.063   9.089  21.398  0.00  0.00    +0.000 C 
BRANCH  23  24
ATOM     24  C   UNL     1      -0.382  10.193  20.402  0.00  0.00    +0.000 A 
ATOM     25  C   UNL     1      -1.026   9.936  19.185  0.00  0.00    +0.000 A 
ATOM     26  C   UNL     1      -1.209  10.941  18.222  0.00  0.00    +0.000 A 
ATOM     27  C   UNL     1      -0.739  12.220  18.477  0.00  0.00    +0.000 A 
ATOM     28  C   UNL     1      -0.112  12.502  19.683  0.00  0.00    +0.000 A 
ATOM     29  C   UNL     1       0.075  11.504  20.635  0.00  0.00    +0.000 A 
BRANCH  27  30
ATOM     30  O   UNL     1      -0.866  13.225  17.559  0.00  0.00    +0.000 OA
ATOM     31  H   UNL     1      -0.024  13.295  17.075  0.00  0.00    +0.000 HD
ENDBRANCH  27  30
BRANCH  28  32
ATOM     32  O   UNL     1       0.347  13.766  19.920  0.00  0.00    +0.000 OA
ATOM     33  H   UNL     1       1.246  13.774  19.531  0.00  0.00    +0.000 HD
ENDBRANCH  28  32
ENDBRANCH  23  24
ENDBRANCH  22  23
ENDBRANCH  20  22
ENDBRANCH   9  20
BRANCH   2  34
ATOM     34  C   UNL     1       3.832   3.294  16.427  0.00  0.00    +0.000 C 
BRANCH  34  35
ATOM     35  O   UNL     1       2.574   2.824  16.949  0.00  0.00    +0.000 OA
BRANCH  35  36
ATOM     36  C   UNL     1       2.677   1.904  17.905  0.00  0.00    +0.000 C 
ATOM     37  N   UNL     1       1.474   1.670  18.472  0.00  0.00    +0.000 N 
ATOM     38  O   UNL     1       3.726   1.358  18.272  0.00  0.00    +0.000 OA
ATOM     39  H   UNL     1       0.747   2.351  18.317  0.00  0.00    +0.000 HD
ATOM     40  H   UNL     1       1.446   1.105  19.302  0.00  0.00    +0.000 HD
ENDBRANCH  35  36
ENDBRANCH  34  35
ENDBRANCH   2  34
TORSDOF 10
ENDMDL
MODEL 7
REMARK VINA RESULT:      -7.6      5.168      8.303
REMARK  Name = 
REMARK  12 active torsions:
REMARK  status: ('A' for Active; 'I' for Inactive)
REMARK    1  A    between atoms: C_1  and  O_2
REMARK    2  A    between atoms: O_2  and  C_3
REMARK    3  A    between atoms: C_4  and  C_5
REMARK    4  A    between atoms: C_5  and  O_6
REMARK    5  A    between atoms: O_6  and  C_7
REMARK    6  A    between atoms: C_14  and  C_15
REMARK    7  A    between atoms: C_16  and  N_17
REMARK    8  A    between atoms: N_17  and  C_18
REMARK    9  A    between atoms: C_18  and  C_19
REMARK   10  A    between atoms: C_19  and  C_20
REMARK   11  A    between atoms: C_23  and  O_24
REMARK   12  A    between atoms: C_25  and  O_26
REMARK                            x       y       z     vdW  Elec       q    Type
REMARK                         _______ _______ _______ _____ _____    ______ ____
ROOT
ATOM      1  C   UNL     1      -1.493  12.318  20.382  0.00  0.00    +0.000 C 
ATOM      2  C   UNL     1      -1.846  11.038  19.613  0.00  0.00    +0.000 C 
ATOM      3  C   UNL     1      -0.489  10.459  19.505  0.00  0.00    +0.000 C 
ATOM      4  C   UNL     1       0.350  11.459  19.230  0.00  0.00    +0.000 C 
ATOM      5  C   UNL     1       1.578  10.987  18.497  0.00  0.00    +0.000 C 
ATOM      6  O   UNL     1       2.379  11.725  17.980  0.00  0.00    +0.000 OA
ATOM      7  C   UNL     1       1.710   9.448  18.479  0.00  0.00    +0.000 C 
ATOM      8  C   UNL     1       0.767   8.616  17.590  0.00  0.00    +0.000 C 
ATOM      9  C   UNL     1       1.662   9.049  19.761  0.00  0.00    +0.000 C 
ATOM     10  C   UNL     1       0.232   9.399  20.276  0.00  0.00    +0.000 C 
ATOM     11  O   UNL     1      -0.265   8.862  21.259  0.00  0.00    +0.000 OA
ATOM     12  N   UNL     1      -0.223  12.732  19.597  0.00  0.00    +0.000 N 
ATOM     13  C   UNL     1       0.518  13.649  20.499  0.00  0.00    +0.000 C 
ATOM     14  C   UNL     1       0.281  13.075  21.872  0.00  0.00    +0.000 C 
ATOM     15  N   UNL     1      -0.881  13.391  22.698  0.00  0.00    +0.000 NA
ATOM     16  C   UNL     1      -0.956  12.223  21.811  0.00  0.00    +0.000 C 
ATOM     17  H   UNL     1      -1.441  14.149  22.293  0.00  0.00    +0.000 HD
ENDROOT
BRANCH   1  19
ATOM     18  C   UNL     1      -3.706  12.769  21.071  0.00  0.00    +0.000 C 
ATOM     19  O   UNL     1      -2.552  13.276  20.368  0.00  0.00    +0.000 OA
ENDBRANCH   1  19
BRANCH   9  20
ATOM     20  N   UNL     1       2.277   7.917  20.289  0.00  0.00    +0.000 N 
ATOM     21  H   UNL     1       2.787   8.130  21.150  0.00  0.00    +0.000 HD
BRANCH  20  22
ATOM     22  C   UNL     1       1.851   6.516  20.175  0.00  0.00    +0.000 C 
BRANCH  22  23
ATOM     23  C   UNL     1       2.298   5.752  18.897  0.00  0.00    +0.000 C 
BRANCH  23  24
ATOM     24  C   UNL     1       3.703   5.932  18.342  0.00  0.00    +0.000 A 
ATOM     25  C   UNL     1       4.005   6.899  17.375  0.00  0.00    +0.000 A 
ATOM     26  C   UNL     1       5.275   6.978  16.784  0.00  0.00    +0.000 A 
ATOM     27  C   UNL     1       6.258   6.076  17.161  0.00  0.00    +0.000 A 
ATOM     28  C   UNL     1       5.987   5.120  18.130  0.00  0.00    +0.000 A 
ATOM     29  C   UNL     1       4.725   5.037  18.711  0.00  0.00    +0.000 A 
BRANCH  27  30
ATOM     30  O   UNL     1       7.500   6.093  16.593  0.00  0.00    +0.000 OA
ATOM     31  H   UNL     1       7.565   6.890  16.037  0.00  0.00    +0.000 HD
ENDBRANCH  27  30
BRANCH  28  32
ATOM     32  O   UNL     1       6.964   4.236  18.491  0.00  0.00    +0.000 OA
ATOM     33  H   UNL     1       7.469   4.083  17.666  0.00  0.00    +0.000 HD
ENDBRANCH  28  32
ENDBRANCH  23  24
ENDBRANCH  22  23
ENDBRANCH  20  22
ENDBRANCH   9  20
BRANCH   2  34
ATOM     34  C   UNL     1      -2.340  11.565  18.194  0.00  0.00    +0.000 C 
BRANCH  34  35
ATOM     35  O   UNL     1      -3.295  10.727  17.516  0.00  0.00    +0.000 OA
BRANCH  35  36
ATOM     36  C   UNL     1      -3.965  11.327  16.535  0.00  0.00    +0.000 C 
ATOM     37  N   UNL     1      -3.248  11.310  15.390  0.00  0.00    +0.000 N 
ATOM     38  O   UNL     1      -5.071  11.872  16.644  0.00  0.00    +0.000 OA
ATOM     39  H   UNL     1      -2.262  11.112  15.462  0.00  0.00    +0.000 HD
ATOM     40  H   UNL     1      -3.581  11.860  14.618  0.00  0.00    +0.000 HD
ENDBRANCH  35  36
ENDBRANCH  34  35
ENDBRANCH   2  34
TORSDOF 10
ENDMDL
MODEL 8
REMARK VINA RESULT:      -7.6      4.699      7.971
REMARK  Name = 
REMARK  12 active torsions:
REMARK  status: ('A' for Active; 'I' for Inactive)
REMARK    1  A    between atoms: C_1  and  O_2
REMARK    2  A    between atoms: O_2  and  C_3
REMARK    3  A    between atoms: C_4  and  C_5
REMARK    4  A    between atoms: C_5  and  O_6
REMARK    5  A    between atoms: O_6  and  C_7
REMARK    6  A    between atoms: C_14  and  C_15
REMARK    7  A    between atoms: C_16  and  N_17
REMARK    8  A    between atoms: N_17  and  C_18
REMARK    9  A    between atoms: C_18  and  C_19
REMARK   10  A    between atoms: C_19  and  C_20
REMARK   11  A    between atoms: C_23  and  O_24
REMARK   12  A    between atoms: C_25  and  O_26
REMARK                            x       y       z     vdW  Elec       q    Type
REMARK                         _______ _______ _______ _____ _____    ______ ____
ROOT
ATOM      1  C   UNL     1      -0.845  12.194  19.852  0.00  0.00    +0.000 C 
ATOM      2  C   UNL     1      -1.349  10.891  19.216  0.00  0.00    +0.000 C 
ATOM      3  C   UNL     1      -0.068  10.153  19.174  0.00  0.00    +0.000 C 
ATOM      4  C   UNL     1       0.877  11.016  18.802  0.00  0.00    +0.000 C 
ATOM      5  C   UNL     1       2.038  10.334  18.126  0.00  0.00    +0.000 C 
ATOM      6  O   UNL     1       2.914  10.918  17.539  0.00  0.00    +0.000 OA
ATOM      7  C   UNL     1       1.992   8.795  18.266  0.00  0.00    +0.000 C 
ATOM      8  C   UNL     1       0.953   7.992  17.463  0.00  0.00    +0.000 C 
ATOM      9  C   UNL     1       1.909   8.538  19.582  0.00  0.00    +0.000 C 
ATOM     10  C   UNL     1       0.532   9.101  20.053  0.00  0.00    +0.000 C 
ATOM     11  O   UNL     1      -0.016   8.728  21.083  0.00  0.00    +0.000 OA
ATOM     12  N   UNL     1       0.458  12.377  19.034  0.00  0.00    +0.000 N 
ATOM     13  C   UNL     1       1.306  13.290  19.840  0.00  0.00    +0.000 C 
ATOM     14  C   UNL     1       1.015  12.891  21.264  0.00  0.00    +0.000 C 
ATOM     15  N   UNL     1      -0.097  13.421  22.049  0.00  0.00    +0.000 NA
ATOM     16  C   UNL     1      -0.312  12.184  21.285  0.00  0.00    +0.000 C 
ATOM     17  H   UNL     1      -0.569  14.193  21.566  0.00  0.00    +0.000 HD
ENDROOT
BRANCH   1  19
ATOM     18  C   UNL     1      -2.987  12.965  20.482  0.00  0.00    +0.000 C 
ATOM     19  O   UNL     1      -1.788  13.261  19.736  0.00  0.00    +0.000 OA
ENDBRANCH   1  19
BRANCH   9  20
ATOM     20  N   UNL     1       2.393   7.403  20.226  0.00  0.00    +0.000 N 
ATOM     21  H   UNL     1       2.530   7.565  21.227  0.00  0.00    +0.000 HD
BRANCH  20  22
ATOM     22  C   UNL     1       2.175   5.995  19.870  0.00  0.00    +0.000 C 
BRANCH  22  23
ATOM     23  C   UNL     1       3.444   5.143  19.584  0.00  0.00    +0.000 C 
BRANCH  23  24
ATOM     24  C   UNL     1       4.182   5.276  18.261  0.00  0.00    +0.000 A 
ATOM     25  C   UNL     1       4.074   4.317  17.245  0.00  0.00    +0.000 A 
ATOM     26  C   UNL     1       4.850   4.389  16.079  0.00  0.00    +0.000 A 
ATOM     27  C   UNL     1       5.749   5.433  15.924  0.00  0.00    +0.000 A 
ATOM     28  C   UNL     1       5.861   6.405  16.908  0.00  0.00    +0.000 A 
ATOM     29  C   UNL     1       5.097   6.329  18.069  0.00  0.00    +0.000 A 
BRANCH  27  30
ATOM     30  O   UNL     1       6.548   5.531  14.820  0.00  0.00    +0.000 OA
ATOM     31  H   UNL     1       7.473   5.450  15.112  0.00  0.00    +0.000 HD
ENDBRANCH  27  30
BRANCH  28  32
ATOM     32  O   UNL     1       6.752   7.427  16.743  0.00  0.00    +0.000 OA
ATOM     33  H   UNL     1       6.293   8.211  17.108  0.00  0.00    +0.000 HD
ENDBRANCH  28  32
ENDBRANCH  23  24
ENDBRANCH  22  23
ENDBRANCH  20  22
ENDBRANCH   9  20
BRANCH   2  34
ATOM     34  C   UNL     1      -1.791  11.324  17.750  0.00  0.00    +0.000 C 
BRANCH  34  35
ATOM     35  O   UNL     1      -2.028  10.245  16.826  0.00  0.00    +0.000 OA
BRANCH  35  36
ATOM     36  C   UNL     1      -2.747  10.576  15.756  0.00  0.00    +0.000 C 
ATOM     37  N   UNL     1      -3.548  11.629  16.028  0.00  0.00    +0.000 N 
ATOM     38  O   UNL     1      -2.733   9.988  14.666  0.00  0.00    +0.000 OA
ATOM     39  H   UNL     1      -3.707  11.854  16.997  0.00  0.00    +0.000 HD
ATOM     40  H   UNL     1      -4.244  11.879  15.347  0.00  0.00    +0.000 HD
ENDBRANCH  35  36
ENDBRANCH  34  35
ENDBRANCH   2  34
TORSDOF 10
ENDMDL
MODEL 9
REMARK VINA RESULT:      -7.6      6.841     10.837
REMARK  Name = 
REMARK  12 active torsions:
REMARK  status: ('A' for Active; 'I' for Inactive)
REMARK    1  A    between atoms: C_1  and  O_2
REMARK    2  A    between atoms: O_2  and  C_3
REMARK    3  A    between atoms: C_4  and  C_5
REMARK    4  A    between atoms: C_5  and  O_6
REMARK    5  A    between atoms: O_6  and  C_7
REMARK    6  A    between atoms: C_14  and  C_15
REMARK    7  A    between atoms: C_16  and  N_17
REMARK    8  A    between atoms: N_17  and  C_18
REMARK    9  A    between atoms: C_18  and  C_19
REMARK   10  A    between atoms: C_19  and  C_20
REMARK   11  A    between atoms: C_23  and  O_24
REMARK   12  A    between atoms: C_25  and  O_26
REMARK                            x       y       z     vdW  Elec       q    Type
REMARK                         _______ _______ _______ _____ _____    ______ ____
ROOT
ATOM      1  C   UNL     1      -1.949  13.806  22.224  0.00  0.00    +0.000 C 
ATOM      2  C   UNL     1      -2.490  12.400  21.933  0.00  0.00    +0.000 C 
ATOM      3  C   UNL     1      -1.478  11.970  20.944  0.00  0.00    +0.000 C 
ATOM      4  C   UNL     1      -1.233  13.011  20.147  0.00  0.00    +0.000 C 
ATOM      5  C   UNL     1      -0.750  12.585  18.785  0.00  0.00    +0.000 C 
ATOM      6  O   UNL     1      -0.648  13.330  17.844  0.00  0.00    +0.000 OA
ATOM      7  C   UNL     1      -0.393  11.083  18.720  0.00  0.00    +0.000 C 
ATOM      8  C   UNL     1      -1.520  10.034  18.733  0.00  0.00    +0.000 C 
ATOM      9  C   UNL     1       0.499  10.863  19.700  0.00  0.00    +0.000 C 
ATOM     10  C   UNL     1      -0.253  11.117  21.043  0.00  0.00    +0.000 C 
ATOM     11  O   UNL     1       0.138  10.668  22.114  0.00  0.00    +0.000 OA
ATOM     12  N   UNL     1      -1.628  14.249  20.775  0.00  0.00    +0.000 N 
ATOM     13  C   UNL     1      -0.654  15.360  20.907  0.00  0.00    +0.000 C 
ATOM     14  C   UNL     1       0.194  14.960  22.087  0.00  0.00    +0.000 C 
ATOM     15  N   UNL     1      -0.151  15.254  23.475  0.00  0.00    +0.000 NA
ATOM     16  C   UNL     1      -0.590  13.972  22.906  0.00  0.00    +0.000 C 
ATOM     17  H   UNL     1      -0.961  15.879  23.542  0.00  0.00    +0.000 HD
ENDROOT
BRANCH   1  19
ATOM     18  C   UNL     1      -3.108  14.141  24.254  0.00  0.00    +0.000 C 
ATOM     19  O   UNL     1      -2.895  14.626  22.913  0.00  0.00    +0.000 OA
ENDBRANCH   1  19
BRANCH   9  20
ATOM     20  N   UNL     1       1.497   9.893  19.695  0.00  0.00    +0.000 N 
ATOM     21  H   UNL     1       2.107   9.974  20.513  0.00  0.00    +0.000 HD
BRANCH  20  22
ATOM     22  C   UNL     1       1.452   8.546  19.111  0.00  0.00    +0.000 C 
BRANCH  22  23
ATOM     23  C   UNL     1       2.210   7.426  19.878  0.00  0.00    +0.000 C 
BRANCH  23  24
ATOM     24  C   UNL     1       2.014   5.965  19.503  0.00  0.00    +0.000 A 
ATOM     25  C   UNL     1       2.220   5.495  18.200  0.00  0.00    +0.000 A 
ATOM     26  C   UNL     1       1.923   4.172  17.838  0.00  0.00    +0.000 A 
ATOM     27  C   UNL     1       1.410   3.306  18.792  0.00  0.00    +0.000 A 
ATOM     28  C   UNL     1       1.215   3.744  20.095  0.00  0.00    +0.000 A 
ATOM     29  C   UNL     1       1.503   5.059  20.451  0.00  0.00    +0.000 A 
BRANCH  27  30
ATOM     30  O   UNL     1       1.078   2.017  18.482  0.00  0.00    +0.000 OA
ATOM     31  H   UNL     1       1.013   1.950  17.513  0.00  0.00    +0.000 HD
ENDBRANCH  27  30
BRANCH  28  32
ATOM     32  O   UNL     1       0.709   2.880  21.023  0.00  0.00    +0.000 OA
ATOM     33  H   UNL     1       0.868   1.993  20.641  0.00  0.00    +0.000 HD
ENDBRANCH  28  32
ENDBRANCH  23  24
ENDBRANCH  22  23
ENDBRANCH  20  22
ENDBRANCH   9  20
BRANCH   2  34
ATOM     34  C   UNL     1      -3.888  12.665  21.220  0.00  0.00    +0.000 C 
BRANCH  34  35
ATOM     35  O   UNL     1      -5.053  12.256  21.961  0.00  0.00    +0.000 OA
BRANCH  35  36
ATOM     36  C   UNL     1      -6.051  13.137  21.959  0.00  0.00    +0.000 C 
ATOM     37  N   UNL     1      -5.619  14.345  21.537  0.00  0.00    +0.000 N 
ATOM     38  O   UNL     1      -7.211  12.915  22.331  0.00  0.00    +0.000 OA
ATOM     39  H   UNL     1      -4.624  14.507  21.534  0.00  0.00    +0.000 HD
ATOM     40  H   UNL     1      -6.242  15.128  21.631  0.00  0.00    +0.000 HD
ENDBRANCH  35  36
ENDBRANCH  34  35
ENDBRANCH   2  34
TORSDOF 10
ENDMDL
