MODEL 1
REMARK VINA RESULT:      -7.6      0.000      0.000
REMARK  Name = 
REMARK  5 active torsions:
REMARK  status: ('A' for Active; 'I' for Inactive)
REMARK    1  A    between atoms: C_1  and  O_2
REMARK    2  A    between atoms: O_2  and  C_3
REMARK    3  A    between atoms: C_6  and  C_7
REMARK    4  A    between atoms: C_19  and  C_20
REMARK    5  A    between atoms: C_25  and  N_26
REMARK                            x       y       z     vdW  Elec       q    Type
REMARK                         _______ _______ _______ _____ _____    ______ ____
ROOT
ATOM      1  C   UNL     1       2.328   7.731  18.213  0.00  0.00    +0.000 C 
ATOM      2  O   UNL     1       2.916   7.892  17.147  0.00  0.00    +0.000 OA
ATOM      3  N   UNL     1       1.746   8.781  18.917  0.00  0.00    +0.000 N 
ATOM      4  C   UNL     1       1.623  10.102  18.292  0.00  0.00    +0.000 C 
ATOM      5  C   UNL     1       0.296  10.805  18.676  0.00  0.00    +0.000 C 
ATOM      6  N   UNL     1       0.045  10.746  20.137  0.00  0.00    +0.000 N 
ATOM      7  C   UNL     1      -0.696  11.676  20.853  0.00  0.00    +0.000 A 
ATOM      8  N   UNL     1      -1.262  11.323  21.961  0.00  0.00    +0.000 NA
ATOM      9  C   UNL     1      -2.036  12.129  22.735  0.00  0.00    +0.000 A 
ATOM     10  O   UNL     1      -2.883  11.668  23.495  0.00  0.00    +0.000 OA
ATOM     11  C   UNL     1      -1.833  13.593  22.751  0.00  0.00    +0.000 A 
ATOM     12  C   UNL     1      -2.329  14.318  23.857  0.00  0.00    +0.000 A 
ATOM     13  C   UNL     1      -2.244  15.714  23.911  0.00  0.00    +0.000 A 
ATOM     14  C   UNL     1      -1.605  16.374  22.858  0.00  0.00    +0.000 A 
ATOM     15  C   UNL     1      -1.105  15.637  21.767  0.00  0.00    +0.000 A 
ATOM     16  C   UNL     1      -1.227  14.240  21.676  0.00  0.00    +0.000 A 
ATOM     17  S   UNL     1      -0.794  13.312  20.228  0.00  0.00    +0.000 S 
ATOM     18  C   UNL     1       0.136   9.364  20.667  0.00  0.00    +0.000 C 
ATOM     19  C   UNL     1       1.525   8.799  20.366  0.00  0.00    +0.000 C 
ENDROOT
BRANCH   1  23
ATOM     20  C   UNL     1       1.906   3.718  19.707  0.00  0.00    +0.000 A 
ATOM     21  C   UNL     1       2.216   4.771  20.575  0.00  0.00    +0.000 A 
ATOM     22  C   UNL     1       2.338   6.081  20.096  0.00  0.00    +0.000 A 
ATOM     23  C   UNL     1       2.171   6.341  18.732  0.00  0.00    +0.000 A 
ATOM     24  C   UNL     1       1.945   5.271  17.858  0.00  0.00    +0.000 A 
ATOM     25  C   UNL     1       1.777   3.973  18.344  0.00  0.00    +0.000 A 
BRANCH  20  27
ATOM     26  C   UNL     1       1.655   2.470  21.702  0.00  0.00    +0.000 C 
ATOM     27  O   UNL     1       1.804   2.483  20.286  0.00  0.00    +0.000 OA
ENDBRANCH  20  27
ENDBRANCH   1  23
BRANCH  13  28
ATOM     28  C   UNL     1      -2.861  16.490  25.052  0.00  0.00    +0.000 C 
ATOM     29  F   UNL     1      -2.952  17.825  24.813  0.00  0.00    +0.000 F 
ATOM     30  F   UNL     1      -4.120  16.068  25.343  0.00  0.00    +0.000 F 
ATOM     31  F   UNL     1      -2.142  16.362  26.199  0.00  0.00    +0.000 F 
ENDBRANCH  13  28
BRANCH  15  32
ATOM     32  N   UNL     1      -0.467  16.396  20.710  0.00  0.00    +0.000 N 
ATOM     33  O   UNL     1       0.760  16.525  20.773  0.00  0.00    +0.000 OA
ATOM     34  O   UNL     1      -1.196  16.801  19.790  0.00  0.00    +0.000 OA
ENDBRANCH  15  32
TORSDOF 4
ENDMDL
MODEL 2
REMARK VINA RESULT:      -7.5      0.976      1.298
REMARK  Name = 
REMARK  5 active torsions:
REMARK  status: ('A' for Active; 'I' for Inactive)
REMARK    1  A    between atoms: C_1  and  O_2
REMARK    2  A    between atoms: O_2  and  C_3
REMARK    3  A    between atoms: C_6  and  C_7
REMARK    4  A    between atoms: C_19  and  C_20
REMARK    5  A    between atoms: C_25  and  N_26
REMARK                            x       y       z     vdW  Elec       q    Type
REMARK                         _______ _______ _______ _____ _____    ______ ____
ROOT
ATOM      1  C   UNL     1       2.800   7.580  17.771  0.00  0.00    +0.000 C 
ATOM      2  O   UNL     1       3.319   7.808  16.681  0.00  0.00    +0.000 OA
ATOM      3  N   UNL     1       2.224   8.578  18.553  0.00  0.00    +0.000 N 
ATOM      4  C   UNL     1       2.020   9.919  17.994  0.00  0.00    +0.000 C 
ATOM      5  C   UNL     1       0.694  10.555  18.484  0.00  0.00    +0.000 C 
ATOM      6  N   UNL     1       0.531  10.426  19.953  0.00  0.00    +0.000 N 
ATOM      7  C   UNL     1      -0.198  11.298  20.750  0.00  0.00    +0.000 A 
ATOM      8  N   UNL     1      -0.686  10.878  21.872  0.00  0.00    +0.000 NA
ATOM      9  C   UNL     1      -1.440  11.622  22.724  0.00  0.00    +0.000 A 
ATOM     10  O   UNL     1      -2.225  11.099  23.509  0.00  0.00    +0.000 OA
ATOM     11  C   UNL     1      -1.287  13.091  22.793  0.00  0.00    +0.000 A 
ATOM     12  C   UNL     1      -1.742  13.750  23.955  0.00  0.00    +0.000 A 
ATOM     13  C   UNL     1      -1.702  15.144  24.065  0.00  0.00    +0.000 A 
ATOM     14  C   UNL     1      -1.149  15.871  23.008  0.00  0.00    +0.000 A 
ATOM     15  C   UNL     1      -0.689  15.199  21.858  0.00  0.00    +0.000 A 
ATOM     16  C   UNL     1      -0.768  13.804  21.714  0.00  0.00    +0.000 A 
ATOM     17  S   UNL     1      -0.389  12.953  20.204  0.00  0.00    +0.000 S 
ATOM     18  C   UNL     1       0.701   9.028  20.416  0.00  0.00    +0.000 C 
ATOM     19  C   UNL     1       2.088   8.528  20.012  0.00  0.00    +0.000 C 
ENDROOT
BRANCH   1  23
ATOM     20  C   UNL     1       2.589   3.490  19.089  0.00  0.00    +0.000 A 
ATOM     21  C   UNL     1       3.708   4.275  19.385  0.00  0.00    +0.000 A 
ATOM     22  C   UNL     1       3.774   5.612  18.973  0.00  0.00    +0.000 A 
ATOM     23  C   UNL     1       2.722   6.165  18.237  0.00  0.00    +0.000 A 
ATOM     24  C   UNL     1       1.644   5.349  17.872  0.00  0.00    +0.000 A 
ATOM     25  C   UNL     1       1.559   4.031  18.324  0.00  0.00    +0.000 A 
BRANCH  20  27
ATOM     26  C   UNL     1       3.538   1.332  18.880  0.00  0.00    +0.000 C 
ATOM     27  O   UNL     1       2.629   2.202  19.548  0.00  0.00    +0.000 OA
ENDBRANCH  20  27
ENDBRANCH   1  23
BRANCH  13  28
ATOM     28  C   UNL     1      -2.277  15.849  25.273  0.00  0.00    +0.000 C 
ATOM     29  F   UNL     1      -3.625  15.717  25.388  0.00  0.00    +0.000 F 
ATOM     30  F   UNL     1      -1.749  15.390  26.438  0.00  0.00    +0.000 F 
ATOM     31  F   UNL     1      -2.031  17.186  25.244  0.00  0.00    +0.000 F 
ENDBRANCH  13  28
BRANCH  15  32
ATOM     32  N   UNL     1      -0.141  16.024  20.801  0.00  0.00    +0.000 N 
ATOM     33  O   UNL     1      -0.943  16.524  20.005  0.00  0.00    +0.000 OA
ATOM     34  O   UNL     1       1.086  16.216  20.815  0.00  0.00    +0.000 OA
ENDBRANCH  15  32
TORSDOF 4
ENDMDL
MODEL 3
REMARK VINA RESULT:      -7.5      0.246      1.012
REMARK  Name = 
REMARK  5 active torsions:
REMARK  status: ('A' for Active; 'I' for Inactive)
REMARK    1  A    between atoms: C_1  and  O_2
REMARK    2  A    between atoms: O_2  and  C_3
REMARK    3  A    between atoms: C_6  and  C_7
REMARK    4  A    between atoms: C_19  and  C_20
REMARK    5  A    between atoms: C_25  and  N_26
REMARK                            x       y       z     vdW  Elec       q    Type
REMARK                         _______ _______ _______ _____ _____    ______ ____
ROOT
ATOM      1  C   UNL     1       2.281   7.882  18.256  0.00  0.00    +0.000 C 
ATOM      2  O   UNL     1       2.833   8.041  17.170  0.00  0.00    +0.000 OA
ATOM      3  N   UNL     1       1.672   8.925  18.950  0.00  0.00    +0.000 N 
ATOM      4  C   UNL     1       1.476  10.223  18.296  0.00  0.00    +0.000 C 
ATOM      5  C   UNL     1       0.131  10.879  18.698  0.00  0.00    +0.000 C 
ATOM      6  N   UNL     1      -0.079  10.847  20.167  0.00  0.00    +0.000 N 
ATOM      7  C   UNL     1      -0.840  11.763  20.880  0.00  0.00    +0.000 A 
ATOM      8  N   UNL     1      -1.362  11.415  22.011  0.00  0.00    +0.000 NA
ATOM      9  C   UNL     1      -2.148  12.207  22.786  0.00  0.00    +0.000 A 
ATOM     10  O   UNL     1      -2.955  11.731  23.579  0.00  0.00    +0.000 OA
ATOM     11  C   UNL     1      -2.008  13.679  22.761  0.00  0.00    +0.000 A 
ATOM     12  C   UNL     1      -2.506  14.410  23.862  0.00  0.00    +0.000 A 
ATOM     13  C   UNL     1      -2.480  15.809  23.878  0.00  0.00    +0.000 A 
ATOM     14  C   UNL     1      -1.897  16.469  22.793  0.00  0.00    +0.000 A 
ATOM     15  C   UNL     1      -1.395  15.725  21.707  0.00  0.00    +0.000 A 
ATOM     16  C   UNL     1      -1.459  14.322  21.654  0.00  0.00    +0.000 A 
ATOM     17  S   UNL     1      -1.024  13.376  20.218  0.00  0.00    +0.000 S 
ATOM     18  C   UNL     1       0.085   9.484  20.728  0.00  0.00    +0.000 C 
ATOM     19  C   UNL     1       1.489   8.971  20.403  0.00  0.00    +0.000 C 
ENDROOT
BRANCH   1  23
ATOM     20  C   UNL     1       2.006   3.901  19.864  0.00  0.00    +0.000 A 
ATOM     21  C   UNL     1       1.958   4.114  18.482  0.00  0.00    +0.000 A 
ATOM     22  C   UNL     1       2.064   5.406  17.953  0.00  0.00    +0.000 A 
ATOM     23  C   UNL     1       2.197   6.501  18.813  0.00  0.00    +0.000 A 
ATOM     24  C   UNL     1       2.158   6.288  20.196  0.00  0.00    +0.000 A 
ATOM     25  C   UNL     1       2.100   4.995  20.720  0.00  0.00    +0.000 A 
BRANCH  20  27
ATOM     26  C   UNL     1       1.680   2.394  21.659  0.00  0.00    +0.000 C 
ATOM     27  O   UNL     1       1.901   2.598  20.267  0.00  0.00    +0.000 OA
ENDBRANCH  20  27
ENDBRANCH   1  23
BRANCH  13  28
ATOM     28  C   UNL     1      -3.099  16.588  25.017  0.00  0.00    +0.000 C 
ATOM     29  F   UNL     1      -3.012  17.935  24.862  0.00  0.00    +0.000 F 
ATOM     30  F   UNL     1      -4.419  16.307  25.176  0.00  0.00    +0.000 F 
ATOM     31  F   UNL     1      -2.504  16.306  26.207  0.00  0.00    +0.000 F 
ENDBRANCH  13  28
BRANCH  15  32
ATOM     32  N   UNL     1      -0.818  16.483  20.614  0.00  0.00    +0.000 N 
ATOM     33  O   UNL     1      -1.598  16.923  19.763  0.00  0.00    +0.000 OA
ATOM     34  O   UNL     1       0.406  16.684  20.654  0.00  0.00    +0.000 OA
ENDBRANCH  15  32
TORSDOF 4
ENDMDL
MODEL 4
REMARK VINA RESULT:      -7.4      3.155      4.490
REMARK  Name = 
REMARK  5 active torsions:
REMARK  status: ('A' for Active; 'I' for Inactive)
REMARK    1  A    between atoms: C_1  and  O_2
REMARK    2  A    between atoms: O_2  and  C_3
REMARK    3  A    between atoms: C_6  and  C_7
REMARK    4  A    between atoms: C_19  and  C_20
REMARK    5  A    between atoms: C_25  and  N_26
REMARK                            x       y       z     vdW  Elec       q    Type
REMARK                         _______ _______ _______ _____ _____    ______ ____
ROOT
ATOM      1  C   UNL     1       2.133   5.893  19.971  0.00  0.00    +0.000 C 
ATOM      2  O   UNL     1       1.800   5.126  20.870  0.00  0.00    +0.000 OA
ATOM      3  N   UNL     1       1.713   7.219  19.918  0.00  0.00    +0.000 N 
ATOM      4  C   UNL     1       1.024   7.814  21.068  0.00  0.00    +0.000 C 
ATOM      5  C   UNL     1       1.429   9.295  21.285  0.00  0.00    +0.000 C 
ATOM      6  N   UNL     1       1.380  10.069  20.020  0.00  0.00    +0.000 N 
ATOM      7  C   UNL     1       1.151  11.435  19.934  0.00  0.00    +0.000 A 
ATOM      8  N   UNL     1       1.592  12.092  18.910  0.00  0.00    +0.000 NA
ATOM      9  C   UNL     1       1.459  13.432  18.725  0.00  0.00    +0.000 A 
ATOM     10  O   UNL     1       2.237  14.061  18.013  0.00  0.00    +0.000 OA
ATOM     11  C   UNL     1       0.323  14.174  19.312  0.00  0.00    +0.000 A 
ATOM     12  C   UNL     1      -0.013  15.424  18.748  0.00  0.00    +0.000 A 
ATOM     13  C   UNL     1      -1.025  16.221  19.295  0.00  0.00    +0.000 A 
ATOM     14  C   UNL     1      -1.735  15.722  20.390  0.00  0.00    +0.000 A 
ATOM     15  C   UNL     1      -1.395  14.469  20.936  0.00  0.00    +0.000 A 
ATOM     16  C   UNL     1      -0.348  13.680  20.428  0.00  0.00    +0.000 A 
ATOM     17  S   UNL     1       0.233  12.201  21.216  0.00  0.00    +0.000 S 
ATOM     18  C   UNL     1       2.150   9.417  18.933  0.00  0.00    +0.000 C 
ATOM     19  C   UNL     1       1.593   8.013  18.692  0.00  0.00    +0.000 C 
ENDROOT
BRANCH   1  23
ATOM     20  C   UNL     1       4.894   4.444  17.006  0.00  0.00    +0.000 A 
ATOM     21  C   UNL     1       3.577   3.974  17.040  0.00  0.00    +0.000 A 
ATOM     22  C   UNL     1       2.671   4.455  17.992  0.00  0.00    +0.000 A 
ATOM     23  C   UNL     1       3.088   5.399  18.936  0.00  0.00    +0.000 A 
ATOM     24  C   UNL     1       4.429   5.800  18.949  0.00  0.00    +0.000 A 
ATOM     25  C   UNL     1       5.319   5.356  17.969  0.00  0.00    +0.000 A 
BRANCH  20  27
ATOM     26  C   UNL     1       6.979   4.497  15.887  0.00  0.00    +0.000 C 
ATOM     27  O   UNL     1       5.689   3.911  16.029  0.00  0.00    +0.000 OA
ENDBRANCH  20  27
ENDBRANCH   1  23
BRANCH  13  28
ATOM     28  C   UNL     1      -1.317  17.598  18.744  0.00  0.00    +0.000 C 
ATOM     29  F   UNL     1      -0.907  17.767  17.459  0.00  0.00    +0.000 F 
ATOM     30  F   UNL     1      -2.644  17.890  18.761  0.00  0.00    +0.000 F 
ATOM     31  F   UNL     1      -0.704  18.574  19.466  0.00  0.00    +0.000 F 
ENDBRANCH  13  28
BRANCH  15  32
ATOM     32  N   UNL     1      -2.169  14.028  22.079  0.00  0.00    +0.000 N 
ATOM     33  O   UNL     1      -1.831  14.460  23.186  0.00  0.00    +0.000 OA
ATOM     34  O   UNL     1      -3.149  13.302  21.848  0.00  0.00    +0.000 OA
ENDBRANCH  15  32
TORSDOF 4
ENDMDL
MODEL 5
REMARK VINA RESULT:      -7.4      3.149      4.523
REMARK  Name = 
REMARK  5 active torsions:
REMARK  status: ('A' for Active; 'I' for Inactive)
REMARK    1  A    between atoms: C_1  and  O_2
REMARK    2  A    between atoms: O_2  and  C_3
REMARK    3  A    between atoms: C_6  and  C_7
REMARK    4  A    between atoms: C_19  and  C_20
REMARK    5  A    between atoms: C_25  and  N_26
REMARK                            x       y       z     vdW  Elec       q    Type
REMARK                         _______ _______ _______ _____ _____    ______ ____
ROOT
ATOM      1  C   UNL     1       2.101   5.540  20.067  0.00  0.00    +0.000 C 
ATOM      2  O   UNL     1       1.759   4.783  20.971  0.00  0.00    +0.000 OA
ATOM      3  N   UNL     1       1.696   6.871  20.005  0.00  0.00    +0.000 N 
ATOM      4  C   UNL     1       1.014   7.482  21.150  0.00  0.00    +0.000 C 
ATOM      5  C   UNL     1       1.436   8.959  21.357  0.00  0.00    +0.000 C 
ATOM      6  N   UNL     1       1.395   9.724  20.086  0.00  0.00    +0.000 N 
ATOM      7  C   UNL     1       1.182  11.093  19.991  0.00  0.00    +0.000 A 
ATOM      8  N   UNL     1       1.630  11.737  18.963  0.00  0.00    +0.000 NA
ATOM      9  C   UNL     1       1.513  13.077  18.768  0.00  0.00    +0.000 A 
ATOM     10  O   UNL     1       2.298  13.693  18.052  0.00  0.00    +0.000 OA
ATOM     11  C   UNL     1       0.385  13.836  19.350  0.00  0.00    +0.000 A 
ATOM     12  C   UNL     1       0.063  15.086  18.777  0.00  0.00    +0.000 A 
ATOM     13  C   UNL     1      -0.939  15.898  19.318  0.00  0.00    +0.000 A 
ATOM     14  C   UNL     1      -1.655  15.416  20.417  0.00  0.00    +0.000 A 
ATOM     15  C   UNL     1      -1.330  14.162  20.971  0.00  0.00    +0.000 A 
ATOM     16  C   UNL     1      -0.292  13.358  20.469  0.00  0.00    +0.000 A 
ATOM     17  S   UNL     1       0.272  11.878  21.268  0.00  0.00    +0.000 S 
ATOM     18  C   UNL     1       2.158   9.057  19.004  0.00  0.00    +0.000 C 
ATOM     19  C   UNL     1       1.585   7.658  18.773  0.00  0.00    +0.000 C 
ENDROOT
BRANCH   1  23
ATOM     20  C   UNL     1       4.831   4.090  17.074  0.00  0.00    +0.000 A 
ATOM     21  C   UNL     1       5.255   5.016  18.033  0.00  0.00    +0.000 A 
ATOM     22  C   UNL     1       4.375   5.477  19.020  0.00  0.00    +0.000 A 
ATOM     23  C   UNL     1       3.051   5.028  19.035  0.00  0.00    +0.000 A 
ATOM     24  C   UNL     1       2.612   4.169  18.022  0.00  0.00    +0.000 A 
ATOM     25  C   UNL     1       3.503   3.673  17.068  0.00  0.00    +0.000 A 
BRANCH  20  27
ATOM     26  C   UNL     1       6.926   4.539  16.069  0.00  0.00    +0.000 C 
ATOM     27  O   UNL     1       5.777   3.703  16.165  0.00  0.00    +0.000 OA
ENDBRANCH  20  27
ENDBRANCH   1  23
BRANCH  13  28
ATOM     28  C   UNL     1      -1.216  17.275  18.758  0.00  0.00    +0.000 C 
ATOM     29  F   UNL     1      -2.521  17.644  18.845  0.00  0.00    +0.000 F 
ATOM     30  F   UNL     1      -0.504  18.243  19.393  0.00  0.00    +0.000 F 
ATOM     31  F   UNL     1      -0.887  17.363  17.441  0.00  0.00    +0.000 F 
ENDBRANCH  13  28
BRANCH  15  32
ATOM     32  N   UNL     1      -2.109  13.738  22.117  0.00  0.00    +0.000 N 
ATOM     33  O   UNL     1      -3.122  13.068  21.890  0.00  0.00    +0.000 OA
ATOM     34  O   UNL     1      -1.662  14.026  23.239  0.00  0.00    +0.000 OA
ENDBRANCH  15  32
TORSDOF 4
ENDMDL
MODEL 6
REMARK VINA RESULT:      -7.3      0.914      1.364
REMARK  Name = 
REMARK  5 active torsions:
REMARK  status: ('A' for Active; 'I' for Inactive)
REMARK    1  A    between atoms: C_1  and  O_2
REMARK    2  A    between atoms: O_2  and  C_3
REMARK    3  A    between atoms: C_6  and  C_7
REMARK    4  A    between atoms: C_19  and  C_20
REMARK    5  A    between atoms: C_25  and  N_26
REMARK                            x       y       z     vdW  Elec       q    Type
REMARK                         _______ _______ _______ _____ _____    ______ ____
ROOT
ATOM      1  C   UNL     1       2.804   7.634  17.771  0.00  0.00    +0.000 C 
ATOM      2  O   UNL     1       3.302   7.859  16.672  0.00  0.00    +0.000 OA
ATOM      3  N   UNL     1       2.214   8.628  18.548  0.00  0.00    +0.000 N 
ATOM      4  C   UNL     1       1.969   9.956  17.974  0.00  0.00    +0.000 C 
ATOM      5  C   UNL     1       0.635  10.566  18.473  0.00  0.00    +0.000 C 
ATOM      6  N   UNL     1       0.496  10.454  19.946  0.00  0.00    +0.000 N 
ATOM      7  C   UNL     1      -0.244  11.319  20.742  0.00  0.00    +0.000 A 
ATOM      8  N   UNL     1      -0.706  10.903  21.876  0.00  0.00    +0.000 NA
ATOM      9  C   UNL     1      -1.466  11.640  22.728  0.00  0.00    +0.000 A 
ATOM     10  O   UNL     1      -2.228  11.108  23.531  0.00  0.00    +0.000 OA
ATOM     11  C   UNL     1      -1.348  13.112  22.774  0.00  0.00    +0.000 A 
ATOM     12  C   UNL     1      -1.804  13.776  23.935  0.00  0.00    +0.000 A 
ATOM     13  C   UNL     1      -1.797  15.172  24.025  0.00  0.00    +0.000 A 
ATOM     14  C   UNL     1      -1.276  15.898  22.950  0.00  0.00    +0.000 A 
ATOM     15  C   UNL     1      -0.816  15.222  21.803  0.00  0.00    +0.000 A 
ATOM     16  C   UNL     1      -0.863  13.823  21.679  0.00  0.00    +0.000 A 
ATOM     17  S   UNL     1      -0.483  12.961  20.176  0.00  0.00    +0.000 S 
ATOM     18  C   UNL     1       0.706   9.067  20.426  0.00  0.00    +0.000 C 
ATOM     19  C   UNL     1       2.100   8.595  20.009  0.00  0.00    +0.000 C 
ENDROOT
BRANCH   1  23
ATOM     20  C   UNL     1       2.678   3.578  19.200  0.00  0.00    +0.000 A 
ATOM     21  C   UNL     1       1.669   4.068  18.363  0.00  0.00    +0.000 A 
ATOM     22  C   UNL     1       1.715   5.382  17.882  0.00  0.00    +0.000 A 
ATOM     23  C   UNL     1       2.767   6.224  18.258  0.00  0.00    +0.000 A 
ATOM     24  C   UNL     1       3.725   5.753  19.163  0.00  0.00    +0.000 A 
ATOM     25  C   UNL     1       3.704   4.428  19.604  0.00  0.00    +0.000 A 
BRANCH  20  27
ATOM     26  C   UNL     1       3.331   1.322  18.910  0.00  0.00    +0.000 C 
ATOM     27  O   UNL     1       2.535   2.278  19.602  0.00  0.00    +0.000 OA
ENDBRANCH  20  27
ENDBRANCH   1  23
BRANCH  13  28
ATOM     28  C   UNL     1      -2.373  15.880  25.231  0.00  0.00    +0.000 C 
ATOM     29  F   UNL     1      -1.808  15.496  26.406  0.00  0.00    +0.000 F 
ATOM     30  F   UNL     1      -2.222  17.229  25.158  0.00  0.00    +0.000 F 
ATOM     31  F   UNL     1      -3.707  15.653  25.363  0.00  0.00    +0.000 F 
ENDBRANCH  13  28
BRANCH  15  32
ATOM     32  N   UNL     1      -0.302  16.045  20.727  0.00  0.00    +0.000 N 
ATOM     33  O   UNL     1       0.920  16.219  20.687  0.00  0.00    +0.000 OA
ATOM     34  O   UNL     1      -1.125  16.458  19.894  0.00  0.00    +0.000 OA
ENDBRANCH  15  32
TORSDOF 4
ENDMDL
MODEL 7
REMARK VINA RESULT:      -7.2      3.049      4.634
REMARK  Name = 
REMARK  5 active torsions:
REMARK  status: ('A' for Active; 'I' for Inactive)
REMARK    1  A    between atoms: C_1  and  O_2
REMARK    2  A    between atoms: O_2  and  C_3
REMARK    3  A    between atoms: C_6  and  C_7
REMARK    4  A    between atoms: C_19  and  C_20
REMARK    5  A    between atoms: C_25  and  N_26
REMARK                            x       y       z     vdW  Elec       q    Type
REMARK                         _______ _______ _______ _____ _____    ______ ____
ROOT
ATOM      1  C   UNL     1       2.665   5.935  18.872  0.00  0.00    +0.000 C 
ATOM      2  O   UNL     1       2.395   5.014  19.637  0.00  0.00    +0.000 OA
ATOM      3  N   UNL     1       2.129   7.212  19.013  0.00  0.00    +0.000 N 
ATOM      4  C   UNL     1       1.382   7.562  20.226  0.00  0.00    +0.000 C 
ATOM      5  C   UNL     1       1.653   9.022  20.674  0.00  0.00    +0.000 C 
ATOM      6  N   UNL     1       1.544   9.973  19.541  0.00  0.00    +0.000 N 
ATOM      7  C   UNL     1       1.195  11.312  19.659  0.00  0.00    +0.000 A 
ATOM      8  N   UNL     1       1.582  12.153  18.756  0.00  0.00    +0.000 NA
ATOM      9  C   UNL     1       1.333  13.489  18.775  0.00  0.00    +0.000 A 
ATOM     10  O   UNL     1       2.056  14.285  18.183  0.00  0.00    +0.000 OA
ATOM     11  C   UNL     1       0.132  14.031  19.445  0.00  0.00    +0.000 A 
ATOM     12  C   UNL     1      -0.310  15.319  19.071  0.00  0.00    +0.000 A 
ATOM     13  C   UNL     1      -1.393  15.932  19.712  0.00  0.00    +0.000 A 
ATOM     14  C   UNL     1      -2.063  15.211  20.704  0.00  0.00    +0.000 A 
ATOM     15  C   UNL     1      -1.617  13.923  21.059  0.00  0.00    +0.000 A 
ATOM     16  C   UNL     1      -0.501  13.315  20.459  0.00  0.00    +0.000 A 
ATOM     17  S   UNL     1       0.204  11.789  21.024  0.00  0.00    +0.000 S 
ATOM     18  C   UNL     1       2.376   9.566  18.383  0.00  0.00    +0.000 C 
ATOM     19  C   UNL     1       1.947   8.172  17.920  0.00  0.00    +0.000 C 
ENDROOT
BRANCH   1  23
ATOM     20  C   UNL     1       5.576   5.222  15.785  0.00  0.00    +0.000 A 
ATOM     21  C   UNL     1       4.760   4.183  16.245  0.00  0.00    +0.000 A 
ATOM     22  C   UNL     1       3.799   4.415  17.237  0.00  0.00    +0.000 A 
ATOM     23  C   UNL     1       3.667   5.691  17.793  0.00  0.00    +0.000 A 
ATOM     24  C   UNL     1       4.545   6.703  17.389  0.00  0.00    +0.000 A 
ATOM     25  C   UNL     1       5.470   6.483  16.366  0.00  0.00    +0.000 A 
BRANCH  20  27
ATOM     26  C   UNL     1       6.029   3.909  13.869  0.00  0.00    +0.000 C 
ATOM     27  O   UNL     1       6.472   4.883  14.809  0.00  0.00    +0.000 OA
ENDBRANCH  20  27
ENDBRANCH   1  23
BRANCH  13  28
ATOM     28  C   UNL     1      -1.802  17.347  19.372  0.00  0.00    +0.000 C 
ATOM     29  F   UNL     1      -1.471  17.718  18.107  0.00  0.00    +0.000 F 
ATOM     30  F   UNL     1      -3.143  17.537  19.485  0.00  0.00    +0.000 F 
ATOM     31  F   UNL     1      -1.218  18.256  20.196  0.00  0.00    +0.000 F 
ENDBRANCH  13  28
BRANCH  15  32
ATOM     32  N   UNL     1      -2.357  13.246  22.106  0.00  0.00    +0.000 N 
ATOM     33  O   UNL     1      -3.358  12.608  21.763  0.00  0.00    +0.000 OA
ATOM     34  O   UNL     1      -1.890  13.308  23.254  0.00  0.00    +0.000 OA
ENDBRANCH  15  32
TORSDOF 4
ENDMDL
MODEL 8
REMARK VINA RESULT:      -7.2      3.060      4.538
REMARK  Name = 
REMARK  5 active torsions:
REMARK  status: ('A' for Active; 'I' for Inactive)
REMARK    1  A    between atoms: C_1  and  O_2
REMARK    2  A    between atoms: O_2  and  C_3
REMARK    3  A    between atoms: C_6  and  C_7
REMARK    4  A    between atoms: C_19  and  C_20
REMARK    5  A    between atoms: C_25  and  N_26
REMARK                            x       y       z     vdW  Elec       q    Type
REMARK                         _______ _______ _______ _____ _____    ______ ____
ROOT
ATOM      1  C   UNL     1       2.531   6.321  19.038  0.00  0.00    +0.000 C 
ATOM      2  O   UNL     1       2.257   5.425  19.832  0.00  0.00    +0.000 OA
ATOM      3  N   UNL     1       2.003   7.605  19.143  0.00  0.00    +0.000 N 
ATOM      4  C   UNL     1       1.263   7.997  20.347  0.00  0.00    +0.000 C 
ATOM      5  C   UNL     1       1.545   9.467  20.750  0.00  0.00    +0.000 C 
ATOM      6  N   UNL     1       1.438  10.384  19.589  0.00  0.00    +0.000 N 
ATOM      7  C   UNL     1       1.099  11.729  19.668  0.00  0.00    +0.000 A 
ATOM      8  N   UNL     1       1.488  12.540  18.739  0.00  0.00    +0.000 NA
ATOM      9  C   UNL     1       1.247  13.877  18.718  0.00  0.00    +0.000 A 
ATOM     10  O   UNL     1       1.974  14.650  18.100  0.00  0.00    +0.000 OA
ATOM     11  C   UNL     1       0.052  14.447  19.376  0.00  0.00    +0.000 A 
ATOM     12  C   UNL     1      -0.383  15.726  18.965  0.00  0.00    +0.000 A 
ATOM     13  C   UNL     1      -1.459  16.365  19.591  0.00  0.00    +0.000 A 
ATOM     14  C   UNL     1      -2.130  15.679  20.607  0.00  0.00    +0.000 A 
ATOM     15  C   UNL     1      -1.691  14.399  20.999  0.00  0.00    +0.000 A 
ATOM     16  C   UNL     1      -0.582  13.766  20.413  0.00  0.00    +0.000 A 
ATOM     17  S   UNL     1       0.115  12.253  21.022  0.00  0.00    +0.000 S 
ATOM     18  C   UNL     1       2.263   9.937  18.441  0.00  0.00    +0.000 C 
ATOM     19  C   UNL     1       1.824   8.533  18.022  0.00  0.00    +0.000 C 
ENDROOT
BRANCH   1  23
ATOM     20  C   UNL     1       5.381   5.512  15.919  0.00  0.00    +0.000 A 
ATOM     21  C   UNL     1       5.238   6.805  16.433  0.00  0.00    +0.000 A 
ATOM     22  C   UNL     1       4.324   7.070  17.460  0.00  0.00    +0.000 A 
ATOM     23  C   UNL     1       3.527   6.038  17.964  0.00  0.00    +0.000 A 
ATOM     24  C   UNL     1       3.615   4.766  17.387  0.00  0.00    +0.000 A 
ATOM     25  C   UNL     1       4.561   4.493  16.396  0.00  0.00    +0.000 A 
BRANCH  20  27
ATOM     26  C   UNL     1       6.339   4.099  14.280  0.00  0.00    +0.000 C 
ATOM     27  O   UNL     1       6.309   5.368  14.925  0.00  0.00    +0.000 OA
ENDBRANCH  20  27
ENDBRANCH   1  23
BRANCH  13  28
ATOM     28  C   UNL     1      -1.860  17.772  19.210  0.00  0.00    +0.000 C 
ATOM     29  F   UNL     1      -1.102  18.301  18.213  0.00  0.00    +0.000 F 
ATOM     30  F   UNL     1      -3.150  17.844  18.786  0.00  0.00    +0.000 F 
ATOM     31  F   UNL     1      -1.757  18.631  20.259  0.00  0.00    +0.000 F 
ENDBRANCH  13  28
BRANCH  15  32
ATOM     32  N   UNL     1      -2.432  13.759  22.068  0.00  0.00    +0.000 N 
ATOM     33  O   UNL     1      -2.141  14.084  23.224  0.00  0.00    +0.000 OA
ATOM     34  O   UNL     1      -3.342  12.984  21.736  0.00  0.00    +0.000 OA
ENDBRANCH  15  32
TORSDOF 4
ENDMDL
MODEL 9
REMARK VINA RESULT:      -7.1      2.779      4.380
REMARK  Name = 
REMARK  5 active torsions:
REMARK  status: ('A' for Active; 'I' for Inactive)
REMARK    1  A    between atoms: C_1  and  O_2
REMARK    2  A    between atoms: O_2  and  C_3
REMARK    3  A    between atoms: C_6  and  C_7
REMARK    4  A    between atoms: C_19  and  C_20
REMARK    5  A    between atoms: C_25  and  N_26
REMARK                            x       y       z     vdW  Elec       q    Type
REMARK                         _______ _______ _______ _____ _____    ______ ____
ROOT
ATOM      1  C   UNL     1       2.636   6.105  19.243  0.00  0.00    +0.000 C 
ATOM      2  O   UNL     1       2.469   5.167  20.017  0.00  0.00    +0.000 OA
ATOM      3  N   UNL     1       2.018   7.341  19.413  0.00  0.00    +0.000 N 
ATOM      4  C   UNL     1       1.305   7.638  20.660  0.00  0.00    +0.000 C 
ATOM      5  C   UNL     1       1.492   9.113  21.098  0.00  0.00    +0.000 C 
ATOM      6  N   UNL     1       1.263  10.053  19.974  0.00  0.00    +0.000 N 
ATOM      7  C   UNL     1       0.826  11.364  20.112  0.00  0.00    +0.000 A 
ATOM      8  N   UNL     1       1.109  12.230  19.194  0.00  0.00    +0.000 NA
ATOM      9  C   UNL     1       0.766  13.545  19.227  0.00  0.00    +0.000 A 
ATOM     10  O   UNL     1       1.402  14.390  18.604  0.00  0.00    +0.000 OA
ATOM     11  C   UNL     1      -0.438  14.000  19.954  0.00  0.00    +0.000 A 
ATOM     12  C   UNL     1      -0.988  15.253  19.605  0.00  0.00    +0.000 A 
ATOM     13  C   UNL     1      -2.080  15.788  20.297  0.00  0.00    +0.000 A 
ATOM     14  C   UNL     1      -2.650  15.022  21.318  0.00  0.00    +0.000 A 
ATOM     15  C   UNL     1      -2.097  13.769  21.649  0.00  0.00    +0.000 A 
ATOM     16  C   UNL     1      -0.970  13.242  20.995  0.00  0.00    +0.000 A 
ATOM     17  S   UNL     1      -0.132  11.770  21.523  0.00  0.00    +0.000 S 
ATOM     18  C   UNL     1       2.066   9.705  18.777  0.00  0.00    +0.000 C 
ATOM     19  C   UNL     1       1.717   8.284  18.331  0.00  0.00    +0.000 C 
ENDROOT
BRANCH   1  23
ATOM     20  C   UNL     1       5.396   5.615  15.979  0.00  0.00    +0.000 A 
ATOM     21  C   UNL     1       5.244   6.859  16.600  0.00  0.00    +0.000 A 
ATOM     22  C   UNL     1       4.360   7.019  17.674  0.00  0.00    +0.000 A 
ATOM     23  C   UNL     1       3.601   5.932  18.118  0.00  0.00    +0.000 A 
ATOM     24  C   UNL     1       3.696   4.713  17.437  0.00  0.00    +0.000 A 
ATOM     25  C   UNL     1       4.612   4.543  16.397  0.00  0.00    +0.000 A 
BRANCH  20  27
ATOM     26  C   UNL     1       6.435   4.313  14.297  0.00  0.00    +0.000 C 
ATOM     27  O   UNL     1       6.292   5.573  14.947  0.00  0.00    +0.000 OA
ENDBRANCH  20  27
ENDBRANCH   1  23
BRANCH  13  28
ATOM     28  C   UNL     1      -2.604  17.170  19.980  0.00  0.00    +0.000 C 
ATOM     29  F   UNL     1      -3.944  17.202  19.755  0.00  0.00    +0.000 F 
ATOM     30  F   UNL     1      -2.365  18.055  20.983  0.00  0.00    +0.000 F 
ATOM     31  F   UNL     1      -2.023  17.690  18.867  0.00  0.00    +0.000 F 
ENDBRANCH  13  28
BRANCH  15  32
ATOM     32  N   UNL     1      -2.736  13.042  22.727  0.00  0.00    +0.000 N 
ATOM     33  O   UNL     1      -2.370  13.307  23.877  0.00  0.00    +0.000 OA
ATOM     34  O   UNL     1      -3.646  12.258  22.415  0.00  0.00    +0.000 OA
ENDBRANCH  15  32
TORSDOF 4
ENDMDL
