MODEL 1
REMARK VINA RESULT:      -7.8      0.000      0.000
REMARK  Name = 
REMARK  11 active torsions:
REMARK  status: ('A' for Active; 'I' for Inactive)
REMARK    1  A    between atoms: C_1  and  O_2
REMARK    2  A    between atoms: O_2  and  C_3
REMARK    3  A    between atoms: C_3  and  C_5
REMARK    4  A    between atoms: N_10  and  C_11
REMARK    5  A    between atoms: C_14  and  C_15
REMARK    6  A    between atoms: C_15  and  N_16
REMARK    7  A    between atoms: N_16  and  C_17
REMARK    8  A    between atoms: C_21  and  C_22
REMARK    9  A    between atoms: C_23  and  N_24
REMARK   10  A    between atoms: C_25  and  C_27
REMARK   11  A    between atoms: C_27  and  C_28
REMARK                            x       y       z     vdW  Elec       q    Type
REMARK                         _______ _______ _______ _____ _____    ______ ____
ROOT
ATOM      1  C   UNL     1       2.967   6.708  18.512  0.00  0.00    +0.000 C 
ENDROOT
BRANCH   1   5
ATOM      2  C   UNL     1       0.909  10.475  19.393  0.00  0.00    +0.000 A 
ATOM      3  C   UNL     1       0.922   9.396  20.294  0.00  0.00    +0.000 A 
ATOM      4  C   UNL     1       1.587   8.195  20.022  0.00  0.00    +0.000 A 
ATOM      5  C   UNL     1       2.245   8.006  18.805  0.00  0.00    +0.000 A 
ATOM      6  C   UNL     1       2.205   9.045  17.872  0.00  0.00    +0.000 A 
ATOM      7  C   UNL     1       1.572  10.263  18.177  0.00  0.00    +0.000 A 
BRANCH   2  13
ATOM      8  C   UNL     1      -0.989  12.180  19.107  0.00  0.00    +0.000 C 
ATOM      9  C   UNL     1      -0.676  13.489  18.365  0.00  0.00    +0.000 C 
ATOM     10  C   UNL     1      -0.001  14.506  19.287  0.00  0.00    +0.000 C 
ATOM     11  C   UNL     1       1.230  13.908  19.962  0.00  0.00    +0.000 C 
ATOM     12  C   UNL     1       0.907  12.588  20.664  0.00  0.00    +0.000 C 
ATOM     13  N   UNL     1       0.268  11.659  19.718  0.00  0.00    +0.000 N 
BRANCH   8  14
ATOM     14  C   UNL     1      -1.793  11.216  18.222  0.00  0.00    +0.000 C 
ATOM     15  O   UNL     1      -2.267  10.151  18.606  0.00  0.00    +0.000 OA
BRANCH  14  17
ATOM     16  C   UNL     1      -2.706  10.884  16.082  0.00  0.00    +0.000 C 
ATOM     17  O   UNL     1      -1.892  11.681  16.942  0.00  0.00    +0.000 OA
ENDBRANCH  14  17
ENDBRANCH   8  14
ENDBRANCH   2  13
ENDBRANCH   1   5
BRANCH   1  18
ATOM     18  N   UNL     1       3.137   5.959  19.765  0.00  0.00    +0.000 N 
ATOM     19  H   UNL     1       4.132   5.905  19.974  0.00  0.00    +0.000 HD
BRANCH  18  20
ATOM     20  C   UNL     1       2.657   4.623  19.695  0.00  0.00    +0.000 A 
ATOM     21  N   UNL     1       1.397   4.361  20.123  0.00  0.00    +0.000 NA
ATOM     22  C   UNL     1       0.941   3.104  20.001  0.00  0.00    +0.000 A 
ATOM     23  C   UNL     1       1.684   2.070  19.474  0.00  0.00    +0.000 A 
ATOM     24  C   UNL     1       3.003   2.304  19.048  0.00  0.00    +0.000 A 
ATOM     25  C   UNL     1       3.713   1.106  18.494  0.00  0.00    +0.000 C 
ATOM     26  C   UNL     1       3.525   3.609  19.171  0.00  0.00    +0.000 A 
BRANCH  26  27
ATOM     27  N   UNL     1       4.838   4.045  18.807  0.00  0.00    +0.000 N 
ATOM     28  C   UNL     1       5.386   4.213  17.547  0.00  0.00    +0.000 C 
ATOM     29  O   UNL     1       4.887   3.871  16.484  0.00  0.00    +0.000 OA
ATOM     30  H   UNL     1       5.484   4.017  19.591  0.00  0.00    +0.000 HD
BRANCH  28  31
ATOM     31  C   UNL     1       6.786   4.759  17.488  0.00  0.00    +0.000 C 
BRANCH  31  32
ATOM     32  C   UNL     1       7.281   5.194  18.857  0.00  0.00    +0.000 C 
ATOM     33  N   UNL     1       7.692   5.554  19.993  0.00  0.00    +0.000 NA
ENDBRANCH  31  32
ENDBRANCH  28  31
ENDBRANCH  26  27
ENDBRANCH  18  20
ENDBRANCH   1  18
TORSDOF 9
ENDMDL
MODEL 2
REMARK VINA RESULT:      -7.7      1.074      1.385
REMARK  Name = 
REMARK  11 active torsions:
REMARK  status: ('A' for Active; 'I' for Inactive)
REMARK    1  A    between atoms: C_1  and  O_2
REMARK    2  A    between atoms: O_2  and  C_3
REMARK    3  A    between atoms: C_3  and  C_5
REMARK    4  A    between atoms: N_10  and  C_11
REMARK    5  A    between atoms: C_14  and  C_15
REMARK    6  A    between atoms: C_15  and  N_16
REMARK    7  A    between atoms: N_16  and  C_17
REMARK    8  A    between atoms: C_21  and  C_22
REMARK    9  A    between atoms: C_23  and  N_24
REMARK   10  A    between atoms: C_25  and  C_27
REMARK   11  A    between atoms: C_27  and  C_28
REMARK                            x       y       z     vdW  Elec       q    Type
REMARK                         _______ _______ _______ _____ _____    ______ ____
ROOT
ATOM      1  C   UNL     1       2.966   6.723  18.413  0.00  0.00    +0.000 C 
ENDROOT
BRANCH   1   5
ATOM      2  C   UNL     1       0.857  10.427  19.428  0.00  0.00    +0.000 A 
ATOM      3  C   UNL     1       1.510  10.246  18.197  0.00  0.00    +0.000 A 
ATOM      4  C   UNL     1       2.176   9.061  17.863  0.00  0.00    +0.000 A 
ATOM      5  C   UNL     1       2.249   8.006  18.775  0.00  0.00    +0.000 A 
ATOM      6  C   UNL     1       1.649   8.179  20.025  0.00  0.00    +0.000 A 
ATOM      7  C   UNL     1       0.946   9.358  20.329  0.00  0.00    +0.000 A 
BRANCH   2  13
ATOM      8  C   UNL     1      -1.077  12.072  19.048  0.00  0.00    +0.000 C 
ATOM      9  C   UNL     1      -0.781  13.365  18.271  0.00  0.00    +0.000 C 
ATOM     10  C   UNL     1      -0.152  14.427  19.174  0.00  0.00    +0.000 C 
ATOM     11  C   UNL     1       1.079  13.884  19.893  0.00  0.00    +0.000 C 
ATOM     12  C   UNL     1       0.774  12.578  20.630  0.00  0.00    +0.000 C 
ATOM     13  N   UNL     1       0.180  11.604  19.702  0.00  0.00    +0.000 N 
BRANCH   8  14
ATOM     14  C   UNL     1      -1.837  11.060  18.178  0.00  0.00    +0.000 C 
ATOM     15  O   UNL     1      -2.103   9.911  18.519  0.00  0.00    +0.000 OA
BRANCH  14  17
ATOM     16  C   UNL     1      -3.452  11.230  16.478  0.00  0.00    +0.000 C 
ATOM     17  O   UNL     1      -2.158  11.592  16.962  0.00  0.00    +0.000 OA
ENDBRANCH  14  17
ENDBRANCH   8  14
ENDBRANCH   2  13
ENDBRANCH   1   5
BRANCH   1  18
ATOM     18  N   UNL     1       3.499   6.107  19.636  0.00  0.00    +0.000 N 
ATOM     19  H   UNL     1       4.514   6.072  19.562  0.00  0.00    +0.000 HD
BRANCH  18  20
ATOM     20  C   UNL     1       3.053   4.773  19.840  0.00  0.00    +0.000 A 
ATOM     21  N   UNL     1       2.031   4.553  20.704  0.00  0.00    +0.000 NA
ATOM     22  C   UNL     1       1.587   3.294  20.844  0.00  0.00    +0.000 A 
ATOM     23  C   UNL     1       2.118   2.218  20.166  0.00  0.00    +0.000 A 
ATOM     24  C   UNL     1       3.195   2.409  19.284  0.00  0.00    +0.000 A 
ATOM     25  C   UNL     1       3.689   1.168  18.605  0.00  0.00    +0.000 C 
ATOM     26  C   UNL     1       3.700   3.716  19.118  0.00  0.00    +0.000 A 
BRANCH  26  27
ATOM     27  N   UNL     1       4.790   4.114  18.282  0.00  0.00    +0.000 N 
ATOM     28  C   UNL     1       6.036   4.600  18.642  0.00  0.00    +0.000 C 
ATOM     29  O   UNL     1       6.394   4.928  19.764  0.00  0.00    +0.000 OA
ATOM     30  H   UNL     1       4.507   4.241  17.314  0.00  0.00    +0.000 HD
BRANCH  28  31
ATOM     31  C   UNL     1       7.005   4.866  17.522  0.00  0.00    +0.000 C 
BRANCH  31  32
ATOM     32  C   UNL     1       7.237   6.354  17.316  0.00  0.00    +0.000 C 
ATOM     33  N   UNL     1       7.429   7.588  17.146  0.00  0.00    +0.000 NA
ENDBRANCH  31  32
ENDBRANCH  28  31
ENDBRANCH  26  27
ENDBRANCH  18  20
ENDBRANCH   1  18
TORSDOF 9
ENDMDL
MODEL 3
REMARK VINA RESULT:      -7.6      1.102      1.102
REMARK  Name = 
REMARK  11 active torsions:
REMARK  status: ('A' for Active; 'I' for Inactive)
REMARK    1  A    between atoms: C_1  and  O_2
REMARK    2  A    between atoms: O_2  and  C_3
REMARK    3  A    between atoms: C_3  and  C_5
REMARK    4  A    between atoms: N_10  and  C_11
REMARK    5  A    between atoms: C_14  and  C_15
REMARK    6  A    between atoms: C_15  and  N_16
REMARK    7  A    between atoms: N_16  and  C_17
REMARK    8  A    between atoms: C_21  and  C_22
REMARK    9  A    between atoms: C_23  and  N_24
REMARK   10  A    between atoms: C_25  and  C_27
REMARK   11  A    between atoms: C_27  and  C_28
REMARK                            x       y       z     vdW  Elec       q    Type
REMARK                         _______ _______ _______ _____ _____    ______ ____
ROOT
ATOM      1  C   UNL     1       3.081   6.634  18.616  0.00  0.00    +0.000 C 
ENDROOT
BRANCH   1   5
ATOM      2  C   UNL     1       0.880  10.349  19.361  0.00  0.00    +0.000 A 
ATOM      3  C   UNL     1       0.934   9.305  20.300  0.00  0.00    +0.000 A 
ATOM      4  C   UNL     1       1.644   8.120  20.072  0.00  0.00    +0.000 A 
ATOM      5  C   UNL     1       2.310   7.913  18.862  0.00  0.00    +0.000 A 
ATOM      6  C   UNL     1       2.231   8.915  17.892  0.00  0.00    +0.000 A 
ATOM      7  C   UNL     1       1.551  10.118  18.153  0.00  0.00    +0.000 A 
BRANCH   2  13
ATOM      8  C   UNL     1      -1.061  11.987  18.986  0.00  0.00    +0.000 C 
ATOM      9  C   UNL     1      -0.767  13.290  18.226  0.00  0.00    +0.000 C 
ATOM     10  C   UNL     1      -0.150  14.346  19.145  0.00  0.00    +0.000 C 
ATOM     11  C   UNL     1       1.079  13.802  19.865  0.00  0.00    +0.000 C 
ATOM     12  C   UNL     1       0.778  12.486  20.586  0.00  0.00    +0.000 C 
ATOM     13  N   UNL     1       0.195  11.518  19.643  0.00  0.00    +0.000 N 
BRANCH   8  14
ATOM     14  C   UNL     1      -1.810  10.980  18.101  0.00  0.00    +0.000 C 
ATOM     15  O   UNL     1      -2.041   9.816  18.414  0.00  0.00    +0.000 OA
BRANCH  14  17
ATOM     16  C   UNL     1      -2.582  10.598  15.914  0.00  0.00    +0.000 C 
ATOM     17  O   UNL     1      -2.164  11.537  16.906  0.00  0.00    +0.000 OA
ENDBRANCH  14  17
ENDBRANCH   8  14
ENDBRANCH   2  13
ENDBRANCH   1   5
BRANCH   1  18
ATOM     18  N   UNL     1       2.219   5.680  17.904  0.00  0.00    +0.000 N 
ATOM     19  H   UNL     1       1.276   6.061  17.874  0.00  0.00    +0.000 HD
BRANCH  18  20
ATOM     20  C   UNL     1       2.133   4.411  18.539  0.00  0.00    +0.000 A 
ATOM     21  N   UNL     1       1.116   4.186  19.408  0.00  0.00    +0.000 NA
ATOM     22  C   UNL     1       1.019   2.966  19.958  0.00  0.00    +0.000 A 
ATOM     23  C   UNL     1       1.898   1.938  19.695  0.00  0.00    +0.000 A 
ATOM     24  C   UNL     1       2.979   2.148  18.821  0.00  0.00    +0.000 A 
ATOM     25  C   UNL     1       3.868   0.960  18.612  0.00  0.00    +0.000 C 
ATOM     26  C   UNL     1       3.124   3.422  18.231  0.00  0.00    +0.000 A 
BRANCH  26  27
ATOM     27  N   UNL     1       4.155   3.837  17.331  0.00  0.00    +0.000 N 
ATOM     28  C   UNL     1       5.486   4.114  17.593  0.00  0.00    +0.000 C 
ATOM     29  O   UNL     1       6.009   4.202  18.694  0.00  0.00    +0.000 OA
ATOM     30  H   UNL     1       3.783   4.160  16.441  0.00  0.00    +0.000 HD
BRANCH  28  31
ATOM     31  C   UNL     1       6.347   4.462  16.410  0.00  0.00    +0.000 C 
BRANCH  31  32
ATOM     32  C   UNL     1       7.018   5.816  16.578  0.00  0.00    +0.000 C 
ATOM     33  N   UNL     1       7.573   6.939  16.717  0.00  0.00    +0.000 NA
ENDBRANCH  31  32
ENDBRANCH  28  31
ENDBRANCH  26  27
ENDBRANCH  18  20
ENDBRANCH   1  18
TORSDOF 9
ENDMDL
MODEL 4
REMARK VINA RESULT:      -7.6      1.030      1.168
REMARK  Name = 
REMARK  11 active torsions:
REMARK  status: ('A' for Active; 'I' for Inactive)
REMARK    1  A    between atoms: C_1  and  O_2
REMARK    2  A    between atoms: O_2  and  C_3
REMARK    3  A    between atoms: C_3  and  C_5
REMARK    4  A    between atoms: N_10  and  C_11
REMARK    5  A    between atoms: C_14  and  C_15
REMARK    6  A    between atoms: C_15  and  N_16
REMARK    7  A    between atoms: N_16  and  C_17
REMARK    8  A    between atoms: C_21  and  C_22
REMARK    9  A    between atoms: C_23  and  N_24
REMARK   10  A    between atoms: C_25  and  C_27
REMARK   11  A    between atoms: C_27  and  C_28
REMARK                            x       y       z     vdW  Elec       q    Type
REMARK                         _______ _______ _______ _____ _____    ______ ____
ROOT
ATOM      1  C   UNL     1       2.633   6.841  18.397  0.00  0.00    +0.000 C 
ENDROOT
BRANCH   1   5
ATOM      2  C   UNL     1       1.070  10.805  19.423  0.00  0.00    +0.000 A 
ATOM      3  C   UNL     1       0.953   9.702  20.287  0.00  0.00    +0.000 A 
ATOM      4  C   UNL     1       1.460   8.437  19.969  0.00  0.00    +0.000 A 
ATOM      5  C   UNL     1       2.081   8.209  18.740  0.00  0.00    +0.000 A 
ATOM      6  C   UNL     1       2.168   9.276  17.843  0.00  0.00    +0.000 A 
ATOM      7  C   UNL     1       1.694  10.553  18.194  0.00  0.00    +0.000 A 
BRANCH   2  13
ATOM      8  C   UNL     1      -0.704  12.658  19.359  0.00  0.00    +0.000 C 
ATOM      9  C   UNL     1      -0.404  13.915  18.527  0.00  0.00    +0.000 C 
ATOM     10  C   UNL     1       0.485  14.894  19.296  0.00  0.00    +0.000 C 
ATOM     11  C   UNL     1       1.753  14.211  19.800  0.00  0.00    +0.000 C 
ATOM     12  C   UNL     1       1.436  12.943  20.595  0.00  0.00    +0.000 C 
ATOM     13  N   UNL     1       0.586  12.047  19.794  0.00  0.00    +0.000 N 
BRANCH   8  14
ATOM     14  C   UNL     1      -1.710  11.743  18.646  0.00  0.00    +0.000 C 
ATOM     15  O   UNL     1      -2.520  11.019  19.217  0.00  0.00    +0.000 OA
BRANCH  14  17
ATOM     16  C   UNL     1      -2.615  11.177  16.551  0.00  0.00    +0.000 C 
ATOM     17  O   UNL     1      -1.573  11.817  17.289  0.00  0.00    +0.000 OA
ENDBRANCH  14  17
ENDBRANCH   8  14
ENDBRANCH   2  13
ENDBRANCH   1   5
BRANCH   1  18
ATOM     18  N   UNL     1       2.994   6.143  19.638  0.00  0.00    +0.000 N 
ATOM     19  H   UNL     1       4.009   6.131  19.716  0.00  0.00    +0.000 HD
BRANCH  18  20
ATOM     20  C   UNL     1       2.561   4.789  19.672  0.00  0.00    +0.000 A 
ATOM     21  N   UNL     1       1.320   4.515  20.146  0.00  0.00    +0.000 NA
ATOM     22  C   UNL     1       0.907   3.238  20.122  0.00  0.00    +0.000 A 
ATOM     23  C   UNL     1       1.676   2.196  19.652  0.00  0.00    +0.000 A 
ATOM     24  C   UNL     1       2.977   2.443  19.181  0.00  0.00    +0.000 A 
ATOM     25  C   UNL     1       3.719   1.235  18.697  0.00  0.00    +0.000 C 
ATOM     26  C   UNL     1       3.454   3.771  19.201  0.00  0.00    +0.000 A 
BRANCH  26  27
ATOM     27  N   UNL     1       4.743   4.225  18.779  0.00  0.00    +0.000 N 
ATOM     28  C   UNL     1       5.243   4.366  17.495  0.00  0.00    +0.000 C 
ATOM     29  O   UNL     1       4.717   3.979  16.461  0.00  0.00    +0.000 OA
ATOM     30  H   UNL     1       5.416   4.237  19.540  0.00  0.00    +0.000 HD
BRANCH  28  31
ATOM     31  C   UNL     1       6.627   4.943  17.370  0.00  0.00    +0.000 C 
BRANCH  31  32
ATOM     32  C   UNL     1       7.031   5.133  15.918  0.00  0.00    +0.000 C 
ATOM     33  N   UNL     1       7.367   5.290  14.712  0.00  0.00    +0.000 NA
ENDBRANCH  31  32
ENDBRANCH  28  31
ENDBRANCH  26  27
ENDBRANCH  18  20
ENDBRANCH   1  18
TORSDOF 9
ENDMDL
MODEL 5
REMARK VINA RESULT:      -7.6      1.854      2.900
REMARK  Name = 
REMARK  11 active torsions:
REMARK  status: ('A' for Active; 'I' for Inactive)
REMARK    1  A    between atoms: C_1  and  O_2
REMARK    2  A    between atoms: O_2  and  C_3
REMARK    3  A    between atoms: C_3  and  C_5
REMARK    4  A    between atoms: N_10  and  C_11
REMARK    5  A    between atoms: C_14  and  C_15
REMARK    6  A    between atoms: C_15  and  N_16
REMARK    7  A    between atoms: N_16  and  C_17
REMARK    8  A    between atoms: C_21  and  C_22
REMARK    9  A    between atoms: C_23  and  N_24
REMARK   10  A    between atoms: C_25  and  C_27
REMARK   11  A    between atoms: C_27  and  C_28
REMARK                            x       y       z     vdW  Elec       q    Type
REMARK                         _______ _______ _______ _____ _____    ______ ____
ROOT
ATOM      1  C   UNL     1       2.573   7.019  18.717  0.00  0.00    +0.000 C 
ENDROOT
BRANCH   1   5
ATOM      2  C   UNL     1       0.470  10.705  19.810  0.00  0.00    +0.000 A 
ATOM      3  C   UNL     1       0.834  10.411  18.485  0.00  0.00    +0.000 A 
ATOM      4  C   UNL     1       1.496   9.230  18.129  0.00  0.00    +0.000 A 
ATOM      5  C   UNL     1       1.860   8.297  19.103  0.00  0.00    +0.000 A 
ATOM      6  C   UNL     1       1.553   8.588  20.434  0.00  0.00    +0.000 A 
ATOM      7  C   UNL     1       0.847   9.758  20.771  0.00  0.00    +0.000 A 
BRANCH   2  13
ATOM      8  C   UNL     1       0.390  13.181  20.480  0.00  0.00    +0.000 C 
ATOM      9  C   UNL     1      -0.006  13.525  21.925  0.00  0.00    +0.000 C 
ATOM     10  C   UNL     1      -1.525  13.502  22.107  0.00  0.00    +0.000 C 
ATOM     11  C   UNL     1      -2.119  12.178  21.639  0.00  0.00    +0.000 C 
ATOM     12  C   UNL     1      -1.684  11.835  20.212  0.00  0.00    +0.000 C 
ATOM     13  N   UNL     1      -0.217  11.869  20.112  0.00  0.00    +0.000 N 
BRANCH   8  14
ATOM     14  C   UNL     1       1.902  13.344  20.262  0.00  0.00    +0.000 C 
ATOM     15  O   UNL     1       2.446  13.386  19.162  0.00  0.00    +0.000 OA
BRANCH  14  17
ATOM     16  C   UNL     1       3.853  14.032  21.377  0.00  0.00    +0.000 C 
ATOM     17  O   UNL     1       2.571  13.408  21.451  0.00  0.00    +0.000 OA
ENDBRANCH  14  17
ENDBRANCH   8  14
ENDBRANCH   2  13
ENDBRANCH   1   5
BRANCH   1  18
ATOM     18  N   UNL     1       2.870   6.248  19.932  0.00  0.00    +0.000 N 
ATOM     19  H   UNL     1       3.879   6.230  20.063  0.00  0.00    +0.000 HD
BRANCH  18  20
ATOM     20  C   UNL     1       2.438   4.895  19.864  0.00  0.00    +0.000 A 
ATOM     21  N   UNL     1       1.199   4.584  20.319  0.00  0.00    +0.000 NA
ATOM     22  C   UNL     1       0.787   3.312  20.198  0.00  0.00    +0.000 A 
ATOM     23  C   UNL     1       1.556   2.310  19.647  0.00  0.00    +0.000 A 
ATOM     24  C   UNL     1       2.855   2.595  19.192  0.00  0.00    +0.000 A 
ATOM     25  C   UNL     1       3.596   1.428  18.614  0.00  0.00    +0.000 C 
ATOM     26  C   UNL     1       3.330   3.917  19.313  0.00  0.00    +0.000 A 
BRANCH  26  27
ATOM     27  N   UNL     1       4.617   4.404  18.922  0.00  0.00    +0.000 N 
ATOM     28  C   UNL     1       5.105   4.667  17.653  0.00  0.00    +0.000 C 
ATOM     29  O   UNL     1       4.565   4.386  16.592  0.00  0.00    +0.000 OA
ATOM     30  H   UNL     1       5.299   4.338  19.673  0.00  0.00    +0.000 HD
BRANCH  28  31
ATOM     31  C   UNL     1       6.490   5.247  17.569  0.00  0.00    +0.000 C 
BRANCH  31  32
ATOM     32  C   UNL     1       7.134   5.372  18.941  0.00  0.00    +0.000 C 
ATOM     33  N   UNL     1       7.668   5.477  20.078  0.00  0.00    +0.000 NA
ENDBRANCH  31  32
ENDBRANCH  28  31
ENDBRANCH  26  27
ENDBRANCH  18  20
ENDBRANCH   1  18
TORSDOF 9
ENDMDL
MODEL 6
REMARK VINA RESULT:      -7.6      2.083      3.072
REMARK  Name = 
REMARK  11 active torsions:
REMARK  status: ('A' for Active; 'I' for Inactive)
REMARK    1  A    between atoms: C_1  and  O_2
REMARK    2  A    between atoms: O_2  and  C_3
REMARK    3  A    between atoms: C_3  and  C_5
REMARK    4  A    between atoms: N_10  and  C_11
REMARK    5  A    between atoms: C_14  and  C_15
REMARK    6  A    between atoms: C_15  and  N_16
REMARK    7  A    between atoms: N_16  and  C_17
REMARK    8  A    between atoms: C_21  and  C_22
REMARK    9  A    between atoms: C_23  and  N_24
REMARK   10  A    between atoms: C_25  and  C_27
REMARK   11  A    between atoms: C_27  and  C_28
REMARK                            x       y       z     vdW  Elec       q    Type
REMARK                         _______ _______ _______ _____ _____    ______ ____
ROOT
ATOM      1  C   UNL     1       2.736   6.977  18.386  0.00  0.00    +0.000 C 
ENDROOT
BRANCH   1   5
ATOM      2  C   UNL     1       0.661  10.656  19.553  0.00  0.00    +0.000 A 
ATOM      3  C   UNL     1       1.145  10.445  18.250  0.00  0.00    +0.000 A 
ATOM      4  C   UNL     1       1.799   9.268  17.869  0.00  0.00    +0.000 A 
ATOM      5  C   UNL     1       2.032   8.252  18.798  0.00  0.00    +0.000 A 
ATOM      6  C   UNL     1       1.605   8.457  20.112  0.00  0.00    +0.000 A 
ATOM      7  C   UNL     1       0.910   9.626  20.470  0.00  0.00    +0.000 A 
BRANCH   2  13
ATOM      8  C   UNL     1       0.609  13.111  20.299  0.00  0.00    +0.000 C 
ATOM      9  C   UNL     1       0.186  13.416  21.746  0.00  0.00    +0.000 C 
ATOM     10  C   UNL     1      -1.336  13.415  21.893  0.00  0.00    +0.000 C 
ATOM     11  C   UNL     1      -1.942  12.117  21.370  0.00  0.00    +0.000 C 
ATOM     12  C   UNL     1      -1.481  11.811  19.943  0.00  0.00    +0.000 C 
ATOM     13  N   UNL     1      -0.011  11.822  19.877  0.00  0.00    +0.000 N 
BRANCH   8  14
ATOM     14  C   UNL     1       2.128  13.253  20.120  0.00  0.00    +0.000 C 
ATOM     15  O   UNL     1       2.694  13.359  19.036  0.00  0.00    +0.000 OA
BRANCH  14  17
ATOM     16  C   UNL     1       3.789  14.213  21.480  0.00  0.00    +0.000 C 
ATOM     17  O   UNL     1       2.775  13.219  21.322  0.00  0.00    +0.000 OA
ENDBRANCH  14  17
ENDBRANCH   8  14
ENDBRANCH   2  13
ENDBRANCH   1   5
BRANCH   1  18
ATOM     18  N   UNL     1       3.329   6.348  19.573  0.00  0.00    +0.000 N 
ATOM     19  H   UNL     1       4.338   6.309  19.446  0.00  0.00    +0.000 HD
BRANCH  18  20
ATOM     20  C   UNL     1       2.888   5.014  19.788  0.00  0.00    +0.000 A 
ATOM     21  N   UNL     1       1.852   4.800  20.637  0.00  0.00    +0.000 NA
ATOM     22  C   UNL     1       1.413   3.540  20.787  0.00  0.00    +0.000 A 
ATOM     23  C   UNL     1       1.963   2.458  20.134  0.00  0.00    +0.000 A 
ATOM     24  C   UNL     1       3.055   2.643  19.269  0.00  0.00    +0.000 A 
ATOM     25  C   UNL     1       3.569   1.395  18.617  0.00  0.00    +0.000 C 
ATOM     26  C   UNL     1       3.555   3.951  19.094  0.00  0.00    +0.000 A 
BRANCH  26  27
ATOM     27  N   UNL     1       4.657   4.344  18.272  0.00  0.00    +0.000 N 
ATOM     28  C   UNL     1       5.928   4.746  18.647  0.00  0.00    +0.000 C 
ATOM     29  O   UNL     1       6.310   4.988  19.783  0.00  0.00    +0.000 OA
ATOM     30  H   UNL     1       4.374   4.542  17.316  0.00  0.00    +0.000 HD
BRANCH  28  31
ATOM     31  C   UNL     1       6.901   5.030  17.536  0.00  0.00    +0.000 C 
BRANCH  31  32
ATOM     32  C   UNL     1       7.146   6.520  17.366  0.00  0.00    +0.000 C 
ATOM     33  N   UNL     1       7.349   7.756  17.224  0.00  0.00    +0.000 NA
ENDBRANCH  31  32
ENDBRANCH  28  31
ENDBRANCH  26  27
ENDBRANCH  18  20
ENDBRANCH   1  18
TORSDOF 9
ENDMDL
MODEL 7
REMARK VINA RESULT:      -7.6      1.906      2.825
REMARK  Name = 
REMARK  11 active torsions:
REMARK  status: ('A' for Active; 'I' for Inactive)
REMARK    1  A    between atoms: C_1  and  O_2
REMARK    2  A    between atoms: O_2  and  C_3
REMARK    3  A    between atoms: C_3  and  C_5
REMARK    4  A    between atoms: N_10  and  C_11
REMARK    5  A    between atoms: C_14  and  C_15
REMARK    6  A    between atoms: C_15  and  N_16
REMARK    7  A    between atoms: N_16  and  C_17
REMARK    8  A    between atoms: C_21  and  C_22
REMARK    9  A    between atoms: C_23  and  N_24
REMARK   10  A    between atoms: C_25  and  C_27
REMARK   11  A    between atoms: C_27  and  C_28
REMARK                            x       y       z     vdW  Elec       q    Type
REMARK                         _______ _______ _______ _____ _____    ______ ____
ROOT
ATOM      1  C   UNL     1       2.897   6.908  18.579  0.00  0.00    +0.000 C 
ENDROOT
BRANCH   1   5
ATOM      2  C   UNL     1       0.670  10.575  19.470  0.00  0.00    +0.000 A 
ATOM      3  C   UNL     1       0.869   9.564  20.426  0.00  0.00    +0.000 A 
ATOM      4  C   UNL     1       1.589   8.396  20.150  0.00  0.00    +0.000 A 
ATOM      5  C   UNL     1       2.116   8.170  18.877  0.00  0.00    +0.000 A 
ATOM      6  C   UNL     1       1.890   9.137  17.894  0.00  0.00    +0.000 A 
ATOM      7  C   UNL     1       1.204  10.326  18.199  0.00  0.00    +0.000 A 
BRANCH   2  13
ATOM      8  C   UNL     1       0.585  13.021  20.246  0.00  0.00    +0.000 C 
ATOM      9  C   UNL     1       0.137  13.304  21.689  0.00  0.00    +0.000 C 
ATOM     10  C   UNL     1      -1.387  13.287  21.813  0.00  0.00    +0.000 C 
ATOM     11  C   UNL     1      -1.973  11.991  21.265  0.00  0.00    +0.000 C 
ATOM     12  C   UNL     1      -1.488  11.707  19.842  0.00  0.00    +0.000 C 
ATOM     13  N   UNL     1      -0.018  11.732  19.798  0.00  0.00    +0.000 N 
BRANCH   8  14
ATOM     14  C   UNL     1       2.105  13.179  20.091  0.00  0.00    +0.000 C 
ATOM     15  O   UNL     1       2.691  13.255  19.016  0.00  0.00    +0.000 OA
BRANCH  14  17
ATOM     16  C   UNL     1       3.767  14.168  21.427  0.00  0.00    +0.000 C 
ATOM     17  O   UNL     1       2.728  13.196  21.306  0.00  0.00    +0.000 OA
ENDBRANCH  14  17
ENDBRANCH   8  14
ENDBRANCH   2  13
ENDBRANCH   1   5
BRANCH   1  18
ATOM     18  N   UNL     1       3.063   6.140  19.820  0.00  0.00    +0.000 N 
ATOM     19  H   UNL     1       4.056   6.088  20.036  0.00  0.00    +0.000 HD
BRANCH  18  20
ATOM     20  C   UNL     1       2.590   4.802  19.727  0.00  0.00    +0.000 A 
ATOM     21  N   UNL     1       1.291   4.550  20.024  0.00  0.00    +0.000 NA
ATOM     22  C   UNL     1       0.848   3.291  19.879  0.00  0.00    +0.000 A 
ATOM     23  C   UNL     1       1.641   2.247  19.454  0.00  0.00    +0.000 A 
ATOM     24  C   UNL     1       2.998   2.471  19.166  0.00  0.00    +0.000 A 
ATOM     25  C   UNL     1       3.760   1.263  18.714  0.00  0.00    +0.000 C 
ATOM     26  C   UNL     1       3.506   3.778  19.318  0.00  0.00    +0.000 A 
BRANCH  26  27
ATOM     27  N   UNL     1       4.851   4.207  19.087  0.00  0.00    +0.000 N 
ATOM     28  C   UNL     1       5.527   4.360  17.887  0.00  0.00    +0.000 C 
ATOM     29  O   UNL     1       5.139   4.008  16.782  0.00  0.00    +0.000 OA
ATOM     30  H   UNL     1       5.413   4.186  19.933  0.00  0.00    +0.000 HD
BRANCH  28  31
ATOM     31  C   UNL     1       6.927   4.903  17.967  0.00  0.00    +0.000 C 
BRANCH  31  32
ATOM     32  C   UNL     1       7.003   6.343  17.488  0.00  0.00    +0.000 C 
ATOM     33  N   UNL     1       7.066   7.538  17.090  0.00  0.00    +0.000 NA
ENDBRANCH  31  32
ENDBRANCH  28  31
ENDBRANCH  26  27
ENDBRANCH  18  20
ENDBRANCH   1  18
TORSDOF 9
ENDMDL
MODEL 8
REMARK VINA RESULT:      -7.6      1.294      1.612
REMARK  Name = 
REMARK  11 active torsions:
REMARK  status: ('A' for Active; 'I' for Inactive)
REMARK    1  A    between atoms: C_1  and  O_2
REMARK    2  A    between atoms: O_2  and  C_3
REMARK    3  A    between atoms: C_3  and  C_5
REMARK    4  A    between atoms: N_10  and  C_11
REMARK    5  A    between atoms: C_14  and  C_15
REMARK    6  A    between atoms: C_15  and  N_16
REMARK    7  A    between atoms: N_16  and  C_17
REMARK    8  A    between atoms: C_21  and  C_22
REMARK    9  A    between atoms: C_23  and  N_24
REMARK   10  A    between atoms: C_25  and  C_27
REMARK   11  A    between atoms: C_27  and  C_28
REMARK                            x       y       z     vdW  Elec       q    Type
REMARK                         _______ _______ _______ _____ _____    ______ ____
ROOT
ATOM      1  C   UNL     1       2.114   7.212  18.235  0.00  0.00    +0.000 C 
ENDROOT
BRANCH   1   5
ATOM      2  C   UNL     1       1.134  11.271  19.565  0.00  0.00    +0.000 A 
ATOM      3  C   UNL     1       1.732  11.010  18.320  0.00  0.00    +0.000 A 
ATOM      4  C   UNL     1       2.037   9.715  17.886  0.00  0.00    +0.000 A 
ATOM      5  C   UNL     1       1.787   8.613  18.706  0.00  0.00    +0.000 A 
ATOM      6  C   UNL     1       1.237   8.849  19.969  0.00  0.00    +0.000 A 
ATOM      7  C   UNL     1       0.895  10.152  20.373  0.00  0.00    +0.000 A 
BRANCH   2  13
ATOM      8  C   UNL     1      -0.474  13.269  19.679  0.00  0.00    +0.000 C 
ATOM      9  C   UNL     1      -0.212  14.459  18.742  0.00  0.00    +0.000 C 
ATOM     10  C   UNL     1       0.865  15.387  19.306  0.00  0.00    +0.000 C 
ATOM     11  C   UNL     1       2.138  14.617  19.641  0.00  0.00    +0.000 C 
ATOM     12  C   UNL     1       1.853  13.416  20.544  0.00  0.00    +0.000 C 
ATOM     13  N   UNL     1       0.816  12.566  19.938  0.00  0.00    +0.000 N 
BRANCH   8  14
ATOM     14  C   UNL     1      -1.652  12.417  19.184  0.00  0.00    +0.000 C 
ATOM     15  O   UNL     1      -2.519  11.939  19.910  0.00  0.00    +0.000 OA
BRANCH  14  17
ATOM     16  C   UNL     1      -1.915  10.911  17.398  0.00  0.00    +0.000 C 
ATOM     17  O   UNL     1      -1.600  12.235  17.832  0.00  0.00    +0.000 OA
ENDBRANCH  14  17
ENDBRANCH   8  14
ENDBRANCH   2  13
ENDBRANCH   1   5
BRANCH   1  18
ATOM     18  N   UNL     1       2.989   6.564  19.222  0.00  0.00    +0.000 N 
ATOM     19  H   UNL     1       3.930   6.524  18.838  0.00  0.00    +0.000 HD
BRANCH  18  20
ATOM     20  C   UNL     1       2.609   5.228  19.524  0.00  0.00    +0.000 A 
ATOM     21  N   UNL     1       1.607   5.022  20.415  0.00  0.00    +0.000 NA
ATOM     22  C   UNL     1       1.225   3.757  20.649  0.00  0.00    +0.000 A 
ATOM     23  C   UNL     1       1.800   2.661  20.042  0.00  0.00    +0.000 A 
ATOM     24  C   UNL     1       2.859   2.840  19.135  0.00  0.00    +0.000 A 
ATOM     25  C   UNL     1       3.405   1.578  18.539  0.00  0.00    +0.000 C 
ATOM     26  C   UNL     1       3.299   4.154  18.871  0.00  0.00    +0.000 A 
BRANCH  26  27
ATOM     27  N   UNL     1       4.361   4.543  17.995  0.00  0.00    +0.000 N 
ATOM     28  C   UNL     1       5.719   4.630  18.252  0.00  0.00    +0.000 C 
ATOM     29  O   UNL     1       6.262   4.532  19.343  0.00  0.00    +0.000 OA
ATOM     30  H   UNL     1       4.019   5.004  17.156  0.00  0.00    +0.000 HD
BRANCH  28  31
ATOM     31  C   UNL     1       6.601   5.004  17.093  0.00  0.00    +0.000 C 
BRANCH  31  32
ATOM     32  C   UNL     1       7.054   6.453  17.171  0.00  0.00    +0.000 C 
ATOM     33  N   UNL     1       7.429   7.655  17.236  0.00  0.00    +0.000 NA
ENDBRANCH  31  32
ENDBRANCH  28  31
ENDBRANCH  26  27
ENDBRANCH  18  20
ENDBRANCH   1  18
TORSDOF 9
ENDMDL
MODEL 9
REMARK VINA RESULT:      -7.6      1.838      2.622
REMARK  Name = 
REMARK  11 active torsions:
REMARK  status: ('A' for Active; 'I' for Inactive)
REMARK    1  A    between atoms: C_1  and  O_2
REMARK    2  A    between atoms: O_2  and  C_3
REMARK    3  A    between atoms: C_3  and  C_5
REMARK    4  A    between atoms: N_10  and  C_11
REMARK    5  A    between atoms: C_14  and  C_15
REMARK    6  A    between atoms: C_15  and  N_16
REMARK    7  A    between atoms: N_16  and  C_17
REMARK    8  A    between atoms: C_21  and  C_22
REMARK    9  A    between atoms: C_23  and  N_24
REMARK   10  A    between atoms: C_25  and  C_27
REMARK   11  A    between atoms: C_27  and  C_28
REMARK                            x       y       z     vdW  Elec       q    Type
REMARK                         _______ _______ _______ _____ _____    ______ ____
ROOT
ATOM      1  C   UNL     1       2.566   7.112  18.795  0.00  0.00    +0.000 C 
ENDROOT
BRANCH   1   5
ATOM      2  C   UNL     1       0.408  10.799  19.774  0.00  0.00    +0.000 A 
ATOM      3  C   UNL     1       0.663   9.799  20.729  0.00  0.00    +0.000 A 
ATOM      4  C   UNL     1       1.361   8.625  20.425  0.00  0.00    +0.000 A 
ATOM      5  C   UNL     1       1.808   8.380  19.124  0.00  0.00    +0.000 A 
ATOM      6  C   UNL     1       1.524   9.336  18.145  0.00  0.00    +0.000 A 
ATOM      7  C   UNL     1       0.861  10.531  18.476  0.00  0.00    +0.000 A 
BRANCH   2  13
ATOM      8  C   UNL     1       0.375  13.231  20.594  0.00  0.00    +0.000 C 
ATOM      9  C   UNL     1      -0.054  13.496  22.046  0.00  0.00    +0.000 C 
ATOM     10  C   UNL     1      -1.577  13.506  22.184  0.00  0.00    +0.000 C 
ATOM     11  C   UNL     1      -2.192  12.230  21.618  0.00  0.00    +0.000 C 
ATOM     12  C   UNL     1      -1.725  11.963  20.186  0.00  0.00    +0.000 C 
ATOM     13  N   UNL     1      -0.255  11.961  20.129  0.00  0.00    +0.000 N 
BRANCH   8  14
ATOM     14  C   UNL     1       1.896  13.363  20.428  0.00  0.00    +0.000 C 
ATOM     15  O   UNL     1       2.714  13.151  21.318  0.00  0.00    +0.000 OA
BRANCH  14  17
ATOM     16  C   UNL     1       3.038  14.949  19.120  0.00  0.00    +0.000 C 
ATOM     17  O   UNL     1       2.225  13.776  19.168  0.00  0.00    +0.000 OA
ENDBRANCH  14  17
ENDBRANCH   8  14
ENDBRANCH   2  13
ENDBRANCH   1   5
BRANCH   1  18
ATOM     18  N   UNL     1       2.796   6.354  20.032  0.00  0.00    +0.000 N 
ATOM     19  H   UNL     1       3.795   6.347  20.224  0.00  0.00    +0.000 HD
BRANCH  18  20
ATOM     20  C   UNL     1       2.382   4.996  19.949  0.00  0.00    +0.000 A 
ATOM     21  N   UNL     1       1.153   4.662  20.415  0.00  0.00    +0.000 NA
ATOM     22  C   UNL     1       0.757   3.386  20.281  0.00  0.00    +0.000 A 
ATOM     23  C   UNL     1       1.533   2.403  19.706  0.00  0.00    +0.000 A 
ATOM     24  C   UNL     1       2.822   2.712  19.239  0.00  0.00    +0.000 A 
ATOM     25  C   UNL     1       3.572   1.564  18.635  0.00  0.00    +0.000 C 
ATOM     26  C   UNL     1       3.281   4.039  19.373  0.00  0.00    +0.000 A 
BRANCH  26  27
ATOM     27  N   UNL     1       4.556   4.550  18.974  0.00  0.00    +0.000 N 
ATOM     28  C   UNL     1       5.043   4.786  17.699  0.00  0.00    +0.000 C 
ATOM     29  O   UNL     1       4.518   4.457  16.645  0.00  0.00    +0.000 OA
ATOM     30  H   UNL     1       5.234   4.527  19.730  0.00  0.00    +0.000 HD
BRANCH  28  31
ATOM     31  C   UNL     1       6.413   5.401  17.605  0.00  0.00    +0.000 C 
BRANCH  31  32
ATOM     32  C   UNL     1       7.110   5.438  18.954  0.00  0.00    +0.000 C 
ATOM     33  N   UNL     1       7.688   5.469  20.074  0.00  0.00    +0.000 NA
ENDBRANCH  31  32
ENDBRANCH  28  31
ENDBRANCH  26  27
ENDBRANCH  18  20
ENDBRANCH   1  18
TORSDOF 9
ENDMDL
