MODEL 1
REMARK VINA RESULT:      -7.5      0.000      0.000
REMARK  Name = 
REMARK  7 active torsions:
REMARK  status: ('A' for Active; 'I' for Inactive)
REMARK    1  A    between atoms: C_1  and  C_2
REMARK    2  A    between atoms: C_5  and  C_6
REMARK    3  A    between atoms: N_8  and  C_9
REMARK    4  A    between atoms: C_10  and  N_11
REMARK    5  A    between atoms: C_12  and  C_14
REMARK    6  A    between atoms: C_14  and  N_15
REMARK    7  A    between atoms: N_18  and  C_19
REMARK                            x       y       z     vdW  Elec       q    Type
REMARK                         _______ _______ _______ _____ _____    ______ ____
ROOT
ATOM      1  C   UNL     1      -3.471  14.471  22.708  0.00  0.00    +0.000 A 
ATOM      2  C   UNL     1      -4.648  14.666  21.865  0.00  0.00    +0.000 A 
ATOM      3  C   UNL     1      -5.580  15.668  22.187  0.00  0.00    +0.000 A 
ATOM      4  C   UNL     1      -5.420  16.434  23.321  0.00  0.00    +0.000 A 
ATOM      5  C   UNL     1      -4.282  16.275  24.070  0.00  0.00    +0.000 A 
ATOM      6  C   UNL     1      -3.264  15.315  23.848  0.00  0.00    +0.000 A 
ATOM      7  C   UNL     1      -2.000  15.484  24.789  0.00  0.00    +0.000 C 
ATOM      8  O   UNL     1      -1.098  14.657  24.798  0.00  0.00    +0.000 OA
ATOM      9  C   UNL     1      -1.903  16.804  25.679  0.00  0.00    +0.000 A 
ATOM     10  C   UNL     1      -0.712  17.342  26.160  0.00  0.00    +0.000 A 
ATOM     11  C   UNL     1      -0.030  18.293  25.384  0.00  0.00    +0.000 A 
ATOM     12  C   UNL     1      -0.564  18.630  24.147  0.00  0.00    +0.000 A 
ATOM     13  C   UNL     1      -1.915  18.370  23.946  0.00  0.00    +0.000 A 
ATOM     14  C   UNL     1      -2.605  17.744  24.986  0.00  0.00    +0.000 A 
ATOM     15  C   UNL     1      -3.998  17.372  24.973  0.00  0.00    +0.000 C 
ATOM     16  O   UNL     1      -4.812  17.866  25.736  0.00  0.00    +0.000 OA
ENDROOT
BRANCH   1  19
ATOM     17  C   UNL     1      -2.426  12.232  22.879  0.00  0.00    +0.000 C 
ATOM     18  O   UNL     1      -3.259  11.829  23.733  0.00  0.00    +0.000 OA
ATOM     19  N   UNL     1      -2.488  13.503  22.313  0.00  0.00    +0.000 N 
ATOM     20  H   UNL     1      -2.055  13.647  21.409  0.00  0.00    +0.000 HD
BRANCH  17  25
ATOM     21  C   UNL     1       1.678   8.384  21.271  0.00  0.00    +0.000 C 
ATOM     22  C   UNL     1       0.617   9.383  21.660  0.00  0.00    +0.000 A 
ATOM     23  C   UNL     1      -0.024   9.295  22.894  0.00  0.00    +0.000 A 
ATOM     24  C   UNL     1      -1.001  10.232  23.258  0.00  0.00    +0.000 A 
ATOM     25  C   UNL     1      -1.375  11.276  22.403  0.00  0.00    +0.000 A 
ATOM     26  C   UNL     1      -0.729  11.369  21.164  0.00  0.00    +0.000 A 
ATOM     27  C   UNL     1       0.252  10.425  20.792  0.00  0.00    +0.000 A 
ENDBRANCH  17  25
ENDBRANCH   1  19
BRANCH   2  28
ATOM     28  N   UNL     1      -4.922  13.934  20.671  0.00  0.00    +0.000 N 
ATOM     29  C   UNL     1      -5.529  12.656  20.652  0.00  0.00    +0.000 C 
ATOM     30  O   UNL     1      -5.781  12.048  21.667  0.00  0.00    +0.000 OA
ATOM     31  H   UNL     1      -4.864  14.436  19.804  0.00  0.00    +0.000 HD
BRANCH  29  32
ATOM     32  C   UNL     1      -5.909  12.109  19.261  0.00  0.00    +0.000 C 
BRANCH  32  33
ATOM     33  N   UNL     1      -4.794  12.181  18.276  0.00  0.00    +0.000 NA
ATOM     34  C   UNL     1      -5.092  11.396  17.054  0.00  0.00    +0.000 C 
ATOM     35  C   UNL     1      -3.927  11.405  16.028  0.00  0.00    +0.000 C 
ATOM     36  N   UNL     1      -2.611  11.001  16.560  0.00  0.00    +0.000 NA
ATOM     37  C   UNL     1      -2.527   9.556  16.756  0.00  0.00    +0.000 C 
ATOM     38  C   UNL     1      -2.357  11.740  17.810  0.00  0.00    +0.000 C 
ATOM     39  C   UNL     1      -3.513  11.690  18.846  0.00  0.00    +0.000 C 
ENDBRANCH  32  33
ENDBRANCH  29  32
ENDBRANCH   2  28
TORSDOF 5
ENDMDL
MODEL 2
REMARK VINA RESULT:      -7.3      8.434     11.016
REMARK  Name = 
REMARK  7 active torsions:
REMARK  status: ('A' for Active; 'I' for Inactive)
REMARK    1  A    between atoms: C_1  and  C_2
REMARK    2  A    between atoms: C_5  and  C_6
REMARK    3  A    between atoms: N_8  and  C_9
REMARK    4  A    between atoms: C_10  and  N_11
REMARK    5  A    between atoms: C_12  and  C_14
REMARK    6  A    between atoms: C_14  and  N_15
REMARK    7  A    between atoms: N_18  and  C_19
REMARK                            x       y       z     vdW  Elec       q    Type
REMARK                         _______ _______ _______ _____ _____    ______ ____
ROOT
ATOM      1  C   UNL     1       7.355  14.859  20.556  0.00  0.00    +0.000 A 
ATOM      2  C   UNL     1       6.368  15.636  19.812  0.00  0.00    +0.000 A 
ATOM      3  C   UNL     1       6.762  16.365  18.677  0.00  0.00    +0.000 A 
ATOM      4  C   UNL     1       8.085  16.395  18.290  0.00  0.00    +0.000 A 
ATOM      5  C   UNL     1       8.988  15.616  18.967  0.00  0.00    +0.000 A 
ATOM      6  C   UNL     1       8.718  14.829  20.113  0.00  0.00    +0.000 A 
ATOM      7  C   UNL     1       9.931  13.918  20.573  0.00  0.00    +0.000 C 
ATOM      8  O   UNL     1       9.888  13.279  21.616  0.00  0.00    +0.000 OA
ATOM      9  C   UNL     1      11.189  13.803  19.598  0.00  0.00    +0.000 A 
ATOM     10  C   UNL     1      12.078  12.731  19.585  0.00  0.00    +0.000 A 
ATOM     11  C   UNL     1      11.821  11.641  18.738  0.00  0.00    +0.000 A 
ATOM     12  C   UNL     1      10.665  11.670  17.968  0.00  0.00    +0.000 A 
ATOM     13  C   UNL     1      10.085  12.913  17.742  0.00  0.00    +0.000 A 
ATOM     14  C   UNL     1      10.683  14.017  18.351  0.00  0.00    +0.000 A 
ATOM     15  C   UNL     1      10.231  15.383  18.258  0.00  0.00    +0.000 C 
ATOM     16  O   UNL     1      10.899  16.258  17.732  0.00  0.00    +0.000 OA
ENDROOT
BRANCH   1  19
ATOM     17  C   UNL     1       7.026  14.475  22.980  0.00  0.00    +0.000 C 
ATOM     18  O   UNL     1       7.468  15.611  23.294  0.00  0.00    +0.000 OA
ATOM     19  N   UNL     1       6.915  14.052  21.659  0.00  0.00    +0.000 N 
ATOM     20  H   UNL     1       6.245  13.325  21.442  0.00  0.00    +0.000 HD
BRANCH  17  25
ATOM     21  C   UNL     1       5.178  10.753  27.100  0.00  0.00    +0.000 C 
ATOM     22  C   UNL     1       5.651  11.732  26.056  0.00  0.00    +0.000 A 
ATOM     23  C   UNL     1       6.357  11.293  24.937  0.00  0.00    +0.000 A 
ATOM     24  C   UNL     1       6.785  12.204  23.961  0.00  0.00    +0.000 A 
ATOM     25  C   UNL     1       6.533  13.576  24.074  0.00  0.00    +0.000 A 
ATOM     26  C   UNL     1       5.821  14.020  25.195  0.00  0.00    +0.000 A 
ATOM     27  C   UNL     1       5.391  13.107  26.182  0.00  0.00    +0.000 A 
ENDBRANCH  17  25
ENDBRANCH   1  19
BRANCH   2  28
ATOM     28  N   UNL     1       4.974  15.685  20.119  0.00  0.00    +0.000 N 
ATOM     29  C   UNL     1       3.985  14.964  19.410  0.00  0.00    +0.000 C 
ATOM     30  O   UNL     1       4.246  14.314  18.425  0.00  0.00    +0.000 OA
ATOM     31  H   UNL     1       4.714  16.093  20.999  0.00  0.00    +0.000 HD
BRANCH  29  32
ATOM     32  C   UNL     1       2.563  15.003  20.005  0.00  0.00    +0.000 C 
BRANCH  32  33
ATOM     33  N   UNL     1       1.714  13.858  19.572  0.00  0.00    +0.000 NA
ATOM     34  C   UNL     1       0.513  14.317  18.831  0.00  0.00    +0.000 C 
ATOM     35  C   UNL     1      -0.423  13.151  18.413  0.00  0.00    +0.000 C 
ATOM     36  N   UNL     1      -0.837  12.248  19.504  0.00  0.00    +0.000 NA
ATOM     37  C   UNL     1      -1.854  12.858  20.356  0.00  0.00    +0.000 C 
ATOM     38  C   UNL     1       0.358  11.852  20.272  0.00  0.00    +0.000 C 
ATOM     39  C   UNL     1       1.266  13.030  20.722  0.00  0.00    +0.000 C 
ENDBRANCH  32  33
ENDBRANCH  29  32
ENDBRANCH   2  28
TORSDOF 5
ENDMDL
MODEL 3
REMARK VINA RESULT:      -7.3      8.419     11.089
REMARK  Name = 
REMARK  7 active torsions:
REMARK  status: ('A' for Active; 'I' for Inactive)
REMARK    1  A    between atoms: C_1  and  C_2
REMARK    2  A    between atoms: C_5  and  C_6
REMARK    3  A    between atoms: N_8  and  C_9
REMARK    4  A    between atoms: C_10  and  N_11
REMARK    5  A    between atoms: C_12  and  C_14
REMARK    6  A    between atoms: C_14  and  N_15
REMARK    7  A    between atoms: N_18  and  C_19
REMARK                            x       y       z     vdW  Elec       q    Type
REMARK                         _______ _______ _______ _____ _____    ______ ____
ROOT
ATOM      1  C   UNL     1       7.387  14.607  20.466  0.00  0.00    +0.000 A 
ATOM      2  C   UNL     1       6.398  15.359  19.699  0.00  0.00    +0.000 A 
ATOM      3  C   UNL     1       6.800  16.099  18.574  0.00  0.00    +0.000 A 
ATOM      4  C   UNL     1       8.130  16.163  18.218  0.00  0.00    +0.000 A 
ATOM      5  C   UNL     1       9.037  15.406  18.916  0.00  0.00    +0.000 A 
ATOM      6  C   UNL     1       8.761  14.612  20.055  0.00  0.00    +0.000 A 
ATOM      7  C   UNL     1       9.985  13.733  20.543  0.00  0.00    +0.000 C 
ATOM      8  O   UNL     1       9.935  13.092  21.585  0.00  0.00    +0.000 OA
ATOM      9  C   UNL     1      11.268  13.650  19.598  0.00  0.00    +0.000 A 
ATOM     10  C   UNL     1      12.185  12.601  19.606  0.00  0.00    +0.000 A 
ATOM     11  C   UNL     1      11.976  11.506  18.753  0.00  0.00    +0.000 A 
ATOM     12  C   UNL     1      10.838  11.506  17.956  0.00  0.00    +0.000 A 
ATOM     13  C   UNL     1      10.232  12.734  17.716  0.00  0.00    +0.000 A 
ATOM     14  C   UNL     1      10.787  13.852  18.340  0.00  0.00    +0.000 A 
ATOM     15  C   UNL     1      10.302  15.207  18.236  0.00  0.00    +0.000 C 
ATOM     16  O   UNL     1      10.960  16.098  17.726  0.00  0.00    +0.000 OA
ENDROOT
BRANCH   1  19
ATOM     17  C   UNL     1       6.975  14.228  22.878  0.00  0.00    +0.000 C 
ATOM     18  O   UNL     1       7.344  15.388  23.198  0.00  0.00    +0.000 OA
ATOM     19  N   UNL     1       6.943  13.788  21.558  0.00  0.00    +0.000 N 
ATOM     20  H   UNL     1       6.320  13.025  21.321  0.00  0.00    +0.000 HD
BRANCH  17  25
ATOM     21  C   UNL     1       5.040  10.879  27.269  0.00  0.00    +0.000 C 
ATOM     22  C   UNL     1       5.534  11.722  26.121  0.00  0.00    +0.000 A 
ATOM     23  C   UNL     1       5.585  13.111  26.228  0.00  0.00    +0.000 A 
ATOM     24  C   UNL     1       6.057  13.891  25.163  0.00  0.00    +0.000 A 
ATOM     25  C   UNL     1       6.482  13.315  23.960  0.00  0.00    +0.000 A 
ATOM     26  C   UNL     1       6.437  11.919  23.852  0.00  0.00    +0.000 A 
ATOM     27  C   UNL     1       5.958  11.131  24.920  0.00  0.00    +0.000 A 
ENDBRANCH  17  25
ENDBRANCH   1  19
BRANCH   2  28
ATOM     28  N   UNL     1       4.997  15.372  19.973  0.00  0.00    +0.000 N 
ATOM     29  C   UNL     1       4.017  14.859  19.091  0.00  0.00    +0.000 C 
ATOM     30  O   UNL     1       4.296  14.446  17.990  0.00  0.00    +0.000 OA
ATOM     31  H   UNL     1       4.718  15.572  20.916  0.00  0.00    +0.000 HD
BRANCH  29  32
ATOM     32  C   UNL     1       2.578  14.797  19.642  0.00  0.00    +0.000 C 
BRANCH  32  33
ATOM     33  N   UNL     1       2.114  13.408  19.918  0.00  0.00    +0.000 NA
ATOM     34  C   UNL     1       1.623  12.741  18.688  0.00  0.00    +0.000 C 
ATOM     35  C   UNL     1       1.081  11.310  18.950  0.00  0.00    +0.000 C 
ATOM     36  N   UNL     1       0.055  11.204  20.005  0.00  0.00    +0.000 NA
ATOM     37  C   UNL     1      -1.244  11.694  19.551  0.00  0.00    +0.000 C 
ATOM     38  C   UNL     1       0.528  11.928  21.200  0.00  0.00    +0.000 C 
ATOM     39  C   UNL     1       1.030  13.373  20.934  0.00  0.00    +0.000 C 
ENDBRANCH  32  33
ENDBRANCH  29  32
ENDBRANCH   2  28
TORSDOF 5
ENDMDL
MODEL 4
REMARK VINA RESULT:      -7.2      8.448     11.179
REMARK  Name = 
REMARK  7 active torsions:
REMARK  status: ('A' for Active; 'I' for Inactive)
REMARK    1  A    between atoms: C_1  and  C_2
REMARK    2  A    between atoms: C_5  and  C_6
REMARK    3  A    between atoms: N_8  and  C_9
REMARK    4  A    between atoms: C_10  and  N_11
REMARK    5  A    between atoms: C_12  and  C_14
REMARK    6  A    between atoms: C_14  and  N_15
REMARK    7  A    between atoms: N_18  and  C_19
REMARK                            x       y       z     vdW  Elec       q    Type
REMARK                         _______ _______ _______ _____ _____    ______ ____
ROOT
ATOM      1  C   UNL     1       7.382  14.612  20.443  0.00  0.00    +0.000 A 
ATOM      2  C   UNL     1       6.370  15.311  19.656  0.00  0.00    +0.000 A 
ATOM      3  C   UNL     1       6.750  16.037  18.515  0.00  0.00    +0.000 A 
ATOM      4  C   UNL     1       8.078  16.140  18.161  0.00  0.00    +0.000 A 
ATOM      5  C   UNL     1       9.008  15.433  18.879  0.00  0.00    +0.000 A 
ATOM      6  C   UNL     1       8.756  14.657  20.036  0.00  0.00    +0.000 A 
ATOM      7  C   UNL     1      10.010  13.833  20.548  0.00  0.00    +0.000 C 
ATOM      8  O   UNL     1       9.978  13.216  21.605  0.00  0.00    +0.000 OA
ATOM      9  C   UNL     1      11.298  13.774  19.609  0.00  0.00    +0.000 A 
ATOM     10  C   UNL     1      12.251  12.759  19.645  0.00  0.00    +0.000 A 
ATOM     11  C   UNL     1      12.084  11.637  18.817  0.00  0.00    +0.000 A 
ATOM     12  C   UNL     1      10.950  11.577  18.018  0.00  0.00    +0.000 A 
ATOM     13  C   UNL     1      10.301  12.776  17.747  0.00  0.00    +0.000 A 
ATOM     14  C   UNL     1      10.814  13.929  18.345  0.00  0.00    +0.000 A 
ATOM     15  C   UNL     1      10.282  15.262  18.207  0.00  0.00    +0.000 C 
ATOM     16  O   UNL     1      10.909  16.164  17.678  0.00  0.00    +0.000 OA
ENDROOT
BRANCH   1  19
ATOM     17  C   UNL     1       6.829  14.320  22.840  0.00  0.00    +0.000 C 
ATOM     18  O   UNL     1       7.013  15.537  23.105  0.00  0.00    +0.000 OA
ATOM     19  N   UNL     1       6.964  13.805  21.554  0.00  0.00    +0.000 N 
ATOM     20  H   UNL     1       6.470  12.951  21.325  0.00  0.00    +0.000 HD
BRANCH  17  25
ATOM     21  C   UNL     1       5.029  10.995  27.305  0.00  0.00    +0.000 C 
ATOM     22  C   UNL     1       5.491  11.831  26.138  0.00  0.00    +0.000 A 
ATOM     23  C   UNL     1       5.442  13.222  26.197  0.00  0.00    +0.000 A 
ATOM     24  C   UNL     1       5.884  13.997  25.115  0.00  0.00    +0.000 A 
ATOM     25  C   UNL     1       6.376  13.412  23.943  0.00  0.00    +0.000 A 
ATOM     26  C   UNL     1       6.431  12.014  23.883  0.00  0.00    +0.000 A 
ATOM     27  C   UNL     1       5.983  11.230  24.968  0.00  0.00    +0.000 A 
ENDBRANCH  17  25
ENDBRANCH   1  19
BRANCH   2  28
ATOM     28  N   UNL     1       4.968  15.281  19.926  0.00  0.00    +0.000 N 
ATOM     29  C   UNL     1       4.292  16.259  20.691  0.00  0.00    +0.000 C 
ATOM     30  O   UNL     1       4.878  17.156  21.252  0.00  0.00    +0.000 OA
ATOM     31  H   UNL     1       4.412  14.647  19.380  0.00  0.00    +0.000 HD
BRANCH  29  32
ATOM     32  C   UNL     1       2.753  16.154  20.716  0.00  0.00    +0.000 C 
BRANCH  32  33
ATOM     33  N   UNL     1       2.250  14.807  20.326  0.00  0.00    +0.000 NA
ATOM     34  C   UNL     1       1.501  14.851  19.047  0.00  0.00    +0.000 C 
ATOM     35  C   UNL     1       0.916  13.472  18.639  0.00  0.00    +0.000 C 
ATOM     36  N   UNL     1       0.092  12.805  19.665  0.00  0.00    +0.000 NA
ATOM     37  C   UNL     1      -1.230  13.415  19.782  0.00  0.00    +0.000 C 
ATOM     38  C   UNL     1       0.822  12.826  20.947  0.00  0.00    +0.000 C 
ATOM     39  C   UNL     1       1.367  14.218  21.366  0.00  0.00    +0.000 C 
ENDBRANCH  32  33
ENDBRANCH  29  32
ENDBRANCH   2  28
TORSDOF 5
ENDMDL
MODEL 5
REMARK VINA RESULT:      -7.1      8.832     11.495
REMARK  Name = 
REMARK  7 active torsions:
REMARK  status: ('A' for Active; 'I' for Inactive)
REMARK    1  A    between atoms: C_1  and  C_2
REMARK    2  A    between atoms: C_5  and  C_6
REMARK    3  A    between atoms: N_8  and  C_9
REMARK    4  A    between atoms: C_10  and  N_11
REMARK    5  A    between atoms: C_12  and  C_14
REMARK    6  A    between atoms: C_14  and  N_15
REMARK    7  A    between atoms: N_18  and  C_19
REMARK                            x       y       z     vdW  Elec       q    Type
REMARK                         _______ _______ _______ _____ _____    ______ ____
ROOT
ATOM      1  C   UNL     1       7.599  14.713  20.475  0.00  0.00    +0.000 A 
ATOM      2  C   UNL     1       6.651  15.501  19.693  0.00  0.00    +0.000 A 
ATOM      3  C   UNL     1       7.098  16.225  18.574  0.00  0.00    +0.000 A 
ATOM      4  C   UNL     1       8.434  16.238  18.238  0.00  0.00    +0.000 A 
ATOM      5  C   UNL     1       9.301  15.449  18.949  0.00  0.00    +0.000 A 
ATOM      6  C   UNL     1       8.978  14.666  20.085  0.00  0.00    +0.000 A 
ATOM      7  C   UNL     1      10.161  13.742  20.591  0.00  0.00    +0.000 C 
ATOM      8  O   UNL     1      10.071  13.105  21.632  0.00  0.00    +0.000 OA
ATOM      9  C   UNL     1      11.454  13.611  19.665  0.00  0.00    +0.000 A 
ATOM     10  C   UNL     1      12.330  12.528  19.688  0.00  0.00    +0.000 A 
ATOM     11  C   UNL     1      12.094  11.441  18.832  0.00  0.00    +0.000 A 
ATOM     12  C   UNL     1      10.969  11.482  18.019  0.00  0.00    +0.000 A 
ATOM     13  C   UNL     1      10.412  12.732  17.769  0.00  0.00    +0.000 A 
ATOM     14  C   UNL     1      11.000  13.829  18.400  0.00  0.00    +0.000 A 
ATOM     15  C   UNL     1      10.567  15.201  18.289  0.00  0.00    +0.000 C 
ATOM     16  O   UNL     1      11.266  16.067  17.789  0.00  0.00    +0.000 OA
ENDROOT
BRANCH   1  19
ATOM     17  C   UNL     1       7.259  14.291  22.892  0.00  0.00    +0.000 C 
ATOM     18  O   UNL     1       7.788  15.383  23.231  0.00  0.00    +0.000 OA
ATOM     19  N   UNL     1       7.108  13.913  21.561  0.00  0.00    +0.000 N 
ATOM     20  H   UNL     1       6.383  13.244  21.331  0.00  0.00    +0.000 HD
BRANCH  17  25
ATOM     21  C   UNL     1       5.021  11.051  27.219  0.00  0.00    +0.000 C 
ATOM     22  C   UNL     1       5.601  11.864  26.089  0.00  0.00    +0.000 A 
ATOM     23  C   UNL     1       5.383  13.238  26.017  0.00  0.00    +0.000 A 
ATOM     24  C   UNL     1       5.934  13.994  24.973  0.00  0.00    +0.000 A 
ATOM     25  C   UNL     1       6.708  13.404  23.967  0.00  0.00    +0.000 A 
ATOM     26  C   UNL     1       6.933  12.024  24.039  0.00  0.00    +0.000 A 
ATOM     27  C   UNL     1       6.377  11.259  25.087  0.00  0.00    +0.000 A 
ENDBRANCH  17  25
ENDBRANCH   1  19
BRANCH   2  28
ATOM     28  N   UNL     1       5.247  15.568  19.946  0.00  0.00    +0.000 N 
ATOM     29  C   UNL     1       4.271  14.932  19.143  0.00  0.00    +0.000 C 
ATOM     30  O   UNL     1       4.557  14.353  18.121  0.00  0.00    +0.000 OA
ATOM     31  H   UNL     1       4.961  15.913  20.844  0.00  0.00    +0.000 HD
BRANCH  29  32
ATOM     32  C   UNL     1       2.826  14.967  19.681  0.00  0.00    +0.000 C 
BRANCH  32  33
ATOM     33  N   UNL     1       1.873  15.649  18.761  0.00  0.00    +0.000 NA
ATOM     34  C   UNL     1       2.254  17.062  18.528  0.00  0.00    +0.000 C 
ATOM     35  C   UNL     1       1.251  17.818  17.616  0.00  0.00    +0.000 C 
ATOM     36  N   UNL     1      -0.161  17.757  18.039  0.00  0.00    +0.000 NA
ATOM     37  C   UNL     1      -0.424  18.631  19.180  0.00  0.00    +0.000 C 
ATOM     38  C   UNL     1      -0.508  16.353  18.332  0.00  0.00    +0.000 C 
ATOM     39  C   UNL     1       0.480  15.618  19.278  0.00  0.00    +0.000 C 
ENDBRANCH  32  33
ENDBRANCH  29  32
ENDBRANCH   2  28
TORSDOF 5
ENDMDL
MODEL 6
REMARK VINA RESULT:      -7.1      4.894     10.472
REMARK  Name = 
REMARK  7 active torsions:
REMARK  status: ('A' for Active; 'I' for Inactive)
REMARK    1  A    between atoms: C_1  and  C_2
REMARK    2  A    between atoms: C_5  and  C_6
REMARK    3  A    between atoms: N_8  and  C_9
REMARK    4  A    between atoms: C_10  and  N_11
REMARK    5  A    between atoms: C_12  and  C_14
REMARK    6  A    between atoms: C_14  and  N_15
REMARK    7  A    between atoms: N_18  and  C_19
REMARK                            x       y       z     vdW  Elec       q    Type
REMARK                         _______ _______ _______ _____ _____    ______ ____
ROOT
ATOM      1  C   UNL     1       2.054   7.911  19.603  0.00  0.00    +0.000 A 
ATOM      2  C   UNL     1       1.488   7.382  20.841  0.00  0.00    +0.000 A 
ATOM      3  C   UNL     1       1.457   5.994  21.057  0.00  0.00    +0.000 A 
ATOM      4  C   UNL     1       1.909   5.124  20.088  0.00  0.00    +0.000 A 
ATOM      5  C   UNL     1       2.487   5.640  18.957  0.00  0.00    +0.000 A 
ATOM      6  C   UNL     1       2.592   7.013  18.624  0.00  0.00    +0.000 A 
ATOM      7  C   UNL     1       3.452   7.299  17.324  0.00  0.00    +0.000 C 
ATOM      8  O   UNL     1       3.528   8.423  16.846  0.00  0.00    +0.000 OA
ATOM      9  C   UNL     1       4.277   6.088  16.694  0.00  0.00    +0.000 A 
ATOM     10  C   UNL     1       5.414   6.239  15.903  0.00  0.00    +0.000 A 
ATOM     11  C   UNL     1       6.676   6.259  16.518  0.00  0.00    +0.000 A 
ATOM     12  C   UNL     1       6.729   6.158  17.902  0.00  0.00    +0.000 A 
ATOM     13  C   UNL     1       5.623   5.610  18.542  0.00  0.00    +0.000 A 
ATOM     14  C   UNL     1       4.534   5.258  17.743  0.00  0.00    +0.000 A 
ATOM     15  C   UNL     1       3.291   4.694  18.208  0.00  0.00    +0.000 C 
ATOM     16  O   UNL     1       2.924   3.574  17.894  0.00  0.00    +0.000 OA
ENDROOT
BRANCH   1  19
ATOM     17  C   UNL     1       1.345  10.042  18.558  0.00  0.00    +0.000 C 
ATOM     18  O   UNL     1       0.432   9.493  17.887  0.00  0.00    +0.000 OA
ATOM     19  N   UNL     1       2.157   9.334  19.440  0.00  0.00    +0.000 N 
ATOM     20  H   UNL     1       2.600   9.840  20.196  0.00  0.00    +0.000 HD
BRANCH  17  25
ATOM     21  C   UNL     1       2.252  15.808  18.156  0.00  0.00    +0.000 C 
ATOM     22  C   UNL     1       1.993  14.326  18.254  0.00  0.00    +0.000 A 
ATOM     23  C   UNL     1       3.042  13.413  18.169  0.00  0.00    +0.000 A 
ATOM     24  C   UNL     1       2.800  12.037  18.274  0.00  0.00    +0.000 A 
ATOM     25  C   UNL     1       1.508  11.528  18.454  0.00  0.00    +0.000 A 
ATOM     26  C   UNL     1       0.452  12.443  18.544  0.00  0.00    +0.000 A 
ATOM     27  C   UNL     1       0.691  13.830  18.436  0.00  0.00    +0.000 A 
ENDBRANCH  17  25
ENDBRANCH   1  19
BRANCH   2  28
ATOM     28  N   UNL     1       0.988   8.181  21.913  0.00  0.00    +0.000 N 
ATOM     29  C   UNL     1      -0.223   8.910  21.854  0.00  0.00    +0.000 C 
ATOM     30  O   UNL     1      -0.885   8.977  20.844  0.00  0.00    +0.000 OA
ATOM     31  H   UNL     1       1.416   8.057  22.813  0.00  0.00    +0.000 HD
BRANCH  29  32
ATOM     32  C   UNL     1      -0.684   9.562  23.173  0.00  0.00    +0.000 C 
BRANCH  32  33
ATOM     33  N   UNL     1      -0.645  11.051  23.137  0.00  0.00    +0.000 NA
ATOM     34  C   UNL     1      -1.997  11.638  23.296  0.00  0.00    +0.000 C 
ATOM     35  C   UNL     1      -1.999  13.188  23.209  0.00  0.00    +0.000 C 
ATOM     36  N   UNL     1      -1.358  13.756  22.007  0.00  0.00    +0.000 NA
ATOM     37  C   UNL     1      -2.202  13.614  20.824  0.00  0.00    +0.000 C 
ATOM     38  C   UNL     1      -0.042  13.116  21.824  0.00  0.00    +0.000 C 
ATOM     39  C   UNL     1      -0.057  11.564  21.872  0.00  0.00    +0.000 C 
ENDBRANCH  32  33
ENDBRANCH  29  32
ENDBRANCH   2  28
TORSDOF 5
ENDMDL
MODEL 7
REMARK VINA RESULT:      -7.0      8.502     11.230
REMARK  Name = 
REMARK  7 active torsions:
REMARK  status: ('A' for Active; 'I' for Inactive)
REMARK    1  A    between atoms: C_1  and  C_2
REMARK    2  A    between atoms: C_5  and  C_6
REMARK    3  A    between atoms: N_8  and  C_9
REMARK    4  A    between atoms: C_10  and  N_11
REMARK    5  A    between atoms: C_12  and  C_14
REMARK    6  A    between atoms: C_14  and  N_15
REMARK    7  A    between atoms: N_18  and  C_19
REMARK                            x       y       z     vdW  Elec       q    Type
REMARK                         _______ _______ _______ _____ _____    ______ ____
ROOT
ATOM      1  C   UNL     1       7.218  14.665  20.658  0.00  0.00    +0.000 A 
ATOM      2  C   UNL     1       6.171  15.411  19.966  0.00  0.00    +0.000 A 
ATOM      3  C   UNL     1       6.487  16.159  18.819  0.00  0.00    +0.000 A 
ATOM      4  C   UNL     1       7.789  16.238  18.371  0.00  0.00    +0.000 A 
ATOM      5  C   UNL     1       8.749  15.488  19.001  0.00  0.00    +0.000 A 
ATOM      6  C   UNL     1       8.560  14.686  20.153  0.00  0.00    +0.000 A 
ATOM      7  C   UNL     1       9.824  13.817  20.551  0.00  0.00    +0.000 C 
ATOM      8  O   UNL     1       9.852  13.172  21.590  0.00  0.00    +0.000 OA
ATOM      9  C   UNL     1      11.039  13.751  19.518  0.00  0.00    +0.000 A 
ATOM     10  C   UNL     1      11.964  12.712  19.458  0.00  0.00    +0.000 A 
ATOM     11  C   UNL     1      11.707  11.618  18.616  0.00  0.00    +0.000 A 
ATOM     12  C   UNL     1      10.517  11.609  17.901  0.00  0.00    +0.000 A 
ATOM     13  C   UNL     1       9.883  12.832  17.709  0.00  0.00    +0.000 A 
ATOM     14  C   UNL     1      10.470  13.954  18.298  0.00  0.00    +0.000 A 
ATOM     15  C   UNL     1       9.965  15.303  18.234  0.00  0.00    +0.000 C 
ATOM     16  O   UNL     1      10.577  16.204  17.684  0.00  0.00    +0.000 OA
ENDROOT
BRANCH   1  19
ATOM     17  C   UNL     1       6.856  14.314  23.083  0.00  0.00    +0.000 C 
ATOM     18  O   UNL     1       7.116  15.512  23.369  0.00  0.00    +0.000 OA
ATOM     19  N   UNL     1       6.859  13.838  21.775  0.00  0.00    +0.000 N 
ATOM     20  H   UNL     1       6.310  13.014  21.563  0.00  0.00    +0.000 HD
BRANCH  17  25
ATOM     21  C   UNL     1       5.225  10.916  27.559  0.00  0.00    +0.000 C 
ATOM     22  C   UNL     1       5.648  11.770  26.390  0.00  0.00    +0.000 A 
ATOM     23  C   UNL     1       5.391  13.140  26.380  0.00  0.00    +0.000 A 
ATOM     24  C   UNL     1       5.796  13.934  25.298  0.00  0.00    +0.000 A 
ATOM     25  C   UNL     1       6.458  13.388  24.192  0.00  0.00    +0.000 A 
ATOM     26  C   UNL     1       6.721  12.012  24.201  0.00  0.00    +0.000 A 
ATOM     27  C   UNL     1       6.312  11.209  25.287  0.00  0.00    +0.000 A 
ENDBRANCH  17  25
ENDBRANCH   1  19
BRANCH   2  28
ATOM     28  N   UNL     1       4.793  15.409  20.336  0.00  0.00    +0.000 N 
ATOM     29  C   UNL     1       4.190  16.408  21.136  0.00  0.00    +0.000 C 
ATOM     30  O   UNL     1       4.831  17.299  21.642  0.00  0.00    +0.000 OA
ATOM     31  H   UNL     1       4.187  14.779  19.840  0.00  0.00    +0.000 HD
BRANCH  29  32
ATOM     32  C   UNL     1       2.656  16.330  21.273  0.00  0.00    +0.000 C 
BRANCH  32  33
ATOM     33  N   UNL     1       1.950  16.287  19.962  0.00  0.00    +0.000 NA
ATOM     34  C   UNL     1       1.770  17.644  19.393  0.00  0.00    +0.000 C 
ATOM     35  C   UNL     1       0.989  17.640  18.051  0.00  0.00    +0.000 C 
ATOM     36  N   UNL     1      -0.312  16.945  18.077  0.00  0.00    +0.000 NA
ATOM     37  C   UNL     1      -1.335  17.736  18.757  0.00  0.00    +0.000 C 
ATOM     38  C   UNL     1      -0.131  15.623  18.706  0.00  0.00    +0.000 C 
ATOM     39  C   UNL     1       0.615  15.643  20.068  0.00  0.00    +0.000 C 
ENDBRANCH  32  33
ENDBRANCH  29  32
ENDBRANCH   2  28
TORSDOF 5
ENDMDL
MODEL 8
REMARK VINA RESULT:      -7.0      3.874      5.171
REMARK  Name = 
REMARK  7 active torsions:
REMARK  status: ('A' for Active; 'I' for Inactive)
REMARK    1  A    between atoms: C_1  and  C_2
REMARK    2  A    between atoms: C_5  and  C_6
REMARK    3  A    between atoms: N_8  and  C_9
REMARK    4  A    between atoms: C_10  and  N_11
REMARK    5  A    between atoms: C_12  and  C_14
REMARK    6  A    between atoms: C_14  and  N_15
REMARK    7  A    between atoms: N_18  and  C_19
REMARK                            x       y       z     vdW  Elec       q    Type
REMARK                         _______ _______ _______ _____ _____    ______ ____
ROOT
ATOM      1  C   UNL     1      -0.262  12.985  19.993  0.00  0.00    +0.000 A 
ATOM      2  C   UNL     1      -1.712  13.149  20.037  0.00  0.00    +0.000 A 
ATOM      3  C   UNL     1      -2.265  14.368  20.466  0.00  0.00    +0.000 A 
ATOM      4  C   UNL     1      -1.450  15.393  20.896  0.00  0.00    +0.000 A 
ATOM      5  C   UNL     1      -0.091  15.242  20.796  0.00  0.00    +0.000 A 
ATOM      6  C   UNL     1       0.590  14.075  20.370  0.00  0.00    +0.000 A 
ATOM      7  C   UNL     1       2.156  14.262  20.212  0.00  0.00    +0.000 C 
ATOM      8  O   UNL     1       2.890  13.312  19.972  0.00  0.00    +0.000 OA
ATOM      9  C   UNL     1       2.744  15.742  20.306  0.00  0.00    +0.000 A 
ATOM     10  C   UNL     1       3.946  16.148  19.732  0.00  0.00    +0.000 A 
ATOM     11  C   UNL     1       3.939  16.659  18.424  0.00  0.00    +0.000 A 
ATOM     12  C   UNL     1       2.727  16.707  17.748  0.00  0.00    +0.000 A 
ATOM     13  C   UNL     1       1.570  16.677  18.517  0.00  0.00    +0.000 A 
ATOM     14  C   UNL     1       1.725  16.548  19.898  0.00  0.00    +0.000 A 
ATOM     15  C   UNL     1       0.658  16.481  20.867  0.00  0.00    +0.000 C 
ATOM     16  O   UNL     1       0.498  17.336  21.722  0.00  0.00    +0.000 OA
ENDROOT
BRANCH   1  19
ATOM     17  C   UNL     1       0.751  10.745  20.293  0.00  0.00    +0.000 C 
ATOM     18  O   UNL     1       0.678  10.800  21.549  0.00  0.00    +0.000 OA
ATOM     19  N   UNL     1       0.284  11.765  19.470  0.00  0.00    +0.000 N 
ATOM     20  H   UNL     1       0.030  11.534  18.517  0.00  0.00    +0.000 HD
BRANCH  17  25
ATOM     21  C   UNL     1       2.903   5.766  18.098  0.00  0.00    +0.000 C 
ATOM     22  C   UNL     1       2.341   7.057  18.639  0.00  0.00    +0.000 A 
ATOM     23  C   UNL     1       2.027   7.184  19.991  0.00  0.00    +0.000 A 
ATOM     24  C   UNL     1       1.518   8.389  20.494  0.00  0.00    +0.000 A 
ATOM     25  C   UNL     1       1.296   9.497  19.667  0.00  0.00    +0.000 A 
ATOM     26  C   UNL     1       1.614   9.373  18.309  0.00  0.00    +0.000 A 
ATOM     27  C   UNL     1       2.124   8.160  17.798  0.00  0.00    +0.000 A 
ENDBRANCH  17  25
ENDBRANCH   1  19
BRANCH   2  28
ATOM     28  N   UNL     1      -2.654  12.161  19.622  0.00  0.00    +0.000 N 
ATOM     29  C   UNL     1      -2.713  11.628  18.313  0.00  0.00    +0.000 C 
ATOM     30  O   UNL     1      -2.015  12.045  17.417  0.00  0.00    +0.000 OA
ATOM     31  H   UNL     1      -3.161  11.682  20.344  0.00  0.00    +0.000 HD
BRANCH  29  32
ATOM     32  C   UNL     1      -3.675  10.441  18.108  0.00  0.00    +0.000 C 
BRANCH  32  33
ATOM     33  N   UNL     1      -5.099  10.857  17.963  0.00  0.00    +0.000 NA
ATOM     34  C   UNL     1      -5.227  12.108  17.178  0.00  0.00    +0.000 C 
ATOM     35  C   UNL     1      -6.694  12.599  17.054  0.00  0.00    +0.000 C 
ATOM     36  N   UNL     1      -7.422  12.746  18.329  0.00  0.00    +0.000 NA
ATOM     37  C   UNL     1      -7.005  13.941  19.058  0.00  0.00    +0.000 C 
ATOM     38  C   UNL     1      -7.232  11.521  19.128  0.00  0.00    +0.000 C 
ATOM     39  C   UNL     1      -5.757  11.061  19.280  0.00  0.00    +0.000 C 
ENDBRANCH  32  33
ENDBRANCH  29  32
ENDBRANCH   2  28
TORSDOF 5
ENDMDL
MODEL 9
REMARK VINA RESULT:      -7.0      3.745      6.293
REMARK  Name = 
REMARK  7 active torsions:
REMARK  status: ('A' for Active; 'I' for Inactive)
REMARK    1  A    between atoms: C_1  and  C_2
REMARK    2  A    between atoms: C_5  and  C_6
REMARK    3  A    between atoms: N_8  and  C_9
REMARK    4  A    between atoms: C_10  and  N_11
REMARK    5  A    between atoms: C_12  and  C_14
REMARK    6  A    between atoms: C_14  and  N_15
REMARK    7  A    between atoms: N_18  and  C_19
REMARK                            x       y       z     vdW  Elec       q    Type
REMARK                         _______ _______ _______ _____ _____    ______ ____
ROOT
ATOM      1  C   UNL     1      -2.045  14.591  21.107  0.00  0.00    +0.000 A 
ATOM      2  C   UNL     1      -0.674  14.951  21.456  0.00  0.00    +0.000 A 
ATOM      3  C   UNL     1      -0.412  15.619  22.664  0.00  0.00    +0.000 A 
ATOM      4  C   UNL     1      -1.445  15.985  23.499  0.00  0.00    +0.000 A 
ATOM      5  C   UNL     1      -2.720  15.591  23.183  0.00  0.00    +0.000 A 
ATOM      6  C   UNL     1      -3.115  14.905  22.008  0.00  0.00    +0.000 A 
ATOM      7  C   UNL     1      -4.633  14.450  22.004  0.00  0.00    +0.000 C 
ATOM      8  O   UNL     1      -5.148  13.959  21.008  0.00  0.00    +0.000 OA
ATOM      9  C   UNL     1      -5.457  14.588  23.363  0.00  0.00    +0.000 A 
ATOM     10  C   UNL     1      -6.580  13.828  23.682  0.00  0.00    +0.000 A 
ATOM     11  C   UNL     1      -6.410  12.616  24.371  0.00  0.00    +0.000 A 
ATOM     12  C   UNL     1      -5.117  12.213  24.676  0.00  0.00    +0.000 A 
ATOM     13  C   UNL     1      -4.133  13.196  24.692  0.00  0.00    +0.000 A 
ATOM     14  C   UNL     1      -4.521  14.492  24.348  0.00  0.00    +0.000 A 
ATOM     15  C   UNL     1      -3.658  15.646  24.287  0.00  0.00    +0.000 C 
ATOM     16  O   UNL     1      -3.798  16.606  25.026  0.00  0.00    +0.000 OA
ENDROOT
BRANCH   1  19
ATOM     17  C   UNL     1      -2.327  12.441  19.911  0.00  0.00    +0.000 C 
ATOM     18  O   UNL     1      -2.218  11.758  20.963  0.00  0.00    +0.000 OA
ATOM     19  N   UNL     1      -2.281  13.832  19.912  0.00  0.00    +0.000 N 
ATOM     20  H   UNL     1      -2.723  14.327  19.147  0.00  0.00    +0.000 HD
BRANCH  17  25
ATOM     21  C   UNL     1      -3.092   9.556  14.877  0.00  0.00    +0.000 C 
ATOM     22  C   UNL     1      -2.921  10.303  16.176  0.00  0.00    +0.000 A 
ATOM     23  C   UNL     1      -1.743  10.189  16.912  0.00  0.00    +0.000 A 
ATOM     24  C   UNL     1      -1.582  10.895  18.113  0.00  0.00    +0.000 A 
ATOM     25  C   UNL     1      -2.589  11.723  18.621  0.00  0.00    +0.000 A 
ATOM     26  C   UNL     1      -3.772  11.843  17.881  0.00  0.00    +0.000 A 
ATOM     27  C   UNL     1      -3.940  11.132  16.674  0.00  0.00    +0.000 A 
ENDBRANCH  17  25
ENDBRANCH   1  19
BRANCH   2  28
ATOM     28  N   UNL     1       0.475  14.629  20.672  0.00  0.00    +0.000 N 
ATOM     29  C   UNL     1       1.187  13.412  20.779  0.00  0.00    +0.000 C 
ATOM     30  O   UNL     1       0.920  12.583  21.617  0.00  0.00    +0.000 OA
ATOM     31  H   UNL     1       0.660  15.210  19.873  0.00  0.00    +0.000 HD
BRANCH  29  32
ATOM     32  C   UNL     1       2.285  13.175  19.722  0.00  0.00    +0.000 C 
BRANCH  32  33
ATOM     33  N   UNL     1       3.124  14.379  19.466  0.00  0.00    +0.000 NA
ATOM     34  C   UNL     1       3.880  14.259  18.196  0.00  0.00    +0.000 C 
ATOM     35  C   UNL     1       4.807  15.475  17.925  0.00  0.00    +0.000 C 
ATOM     36  N   UNL     1       5.738  15.817  19.017  0.00  0.00    +0.000 NA
ATOM     37  C   UNL     1       6.859  14.883  19.087  0.00  0.00    +0.000 C 
ATOM     38  C   UNL     1       4.985  15.868  20.284  0.00  0.00    +0.000 C 
ATOM     39  C   UNL     1       4.092  14.629  20.565  0.00  0.00    +0.000 C 
ENDBRANCH  32  33
ENDBRANCH  29  32
ENDBRANCH   2  28
TORSDOF 5
ENDMDL
