MODEL 1
REMARK VINA RESULT:      -9.0      0.000      0.000
REMARK  Name = 
REMARK  6 active torsions:
REMARK  status: ('A' for Active; 'I' for Inactive)
REMARK    1  A    between atoms: C_2  and  C_3
REMARK    2  A    between atoms: C_3  and  S_4
REMARK    3  A    between atoms: S_4  and  C_5
REMARK    4  A    between atoms: C_7  and  C_8
REMARK    5  A    between atoms: C_15  and  C_16
REMARK    6  A    between atoms: N_22  and  C_23
REMARK                            x       y       z     vdW  Elec       q    Type
REMARK                         _______ _______ _______ _____ _____    ______ ____
ROOT
ATOM      1  C   UNL     1       4.404   5.817  17.242  0.00  0.00    +0.000 A 
ATOM      2  N   UNL     1       5.153   5.968  16.103  0.00  0.00    +0.000 NA
ATOM      3  C   UNL     1       5.205   4.776  15.532  0.00  0.00    +0.000 A 
ATOM      4  N   UNL     1       4.491   3.876  16.285  0.00  0.00    +0.000 N 
ATOM      5  C   UNL     1       3.949   4.519  17.377  0.00  0.00    +0.000 A 
ATOM      6  H   UNL     1       4.355   2.904  16.058  0.00  0.00    +0.000 HD
ENDROOT
BRANCH   3   7
ATOM      7  C   UNL     1       5.855   4.439  14.262  0.00  0.00    +0.000 A 
ATOM      8  C   UNL     1       5.283   3.540  13.346  0.00  0.00    +0.000 A 
ATOM      9  C   UNL     1       5.915   3.260  12.131  0.00  0.00    +0.000 A 
ATOM     10  C   UNL     1       7.127   3.872  11.815  0.00  0.00    +0.000 A 
ATOM     11  C   UNL     1       7.712   4.757  12.717  0.00  0.00    +0.000 A 
ATOM     12  C   UNL     1       7.081   5.035  13.932  0.00  0.00    +0.000 A 
ENDBRANCH   3   7
BRANCH   5  13
ATOM     13  C   UNL     1       3.081   3.845  18.344  0.00  0.00    +0.000 A 
ATOM     14  C   UNL     1       1.796   3.410  17.992  0.00  0.00    +0.000 A 
ATOM     15  C   UNL     1       0.990   2.732  18.912  0.00  0.00    +0.000 A 
ATOM     16  C   UNL     1       1.454   2.495  20.202  0.00  0.00    +0.000 A 
ATOM     17  C   UNL     1       2.723   2.932  20.573  0.00  0.00    +0.000 A 
ATOM     18  C   UNL     1       3.532   3.599  19.649  0.00  0.00    +0.000 A 
ENDBRANCH   5  13
BRANCH   1  19
ATOM     19  S   UNL     1       4.047   7.158  18.300  0.00  0.00    +0.000 S 
BRANCH  19  20
ATOM     20  C   UNL     1       2.340   7.517  17.833  0.00  0.00    +0.000 C 
BRANCH  20  22
ATOM     21  O   UNL     1       2.119   9.861  17.481  0.00  0.00    +0.000 OA
ATOM     22  C   UNL     1       1.926   8.919  18.249  0.00  0.00    +0.000 C 
ATOM     23  N   UNL     1       1.213   8.987  19.442  0.00  0.00    +0.000 N 
ATOM     24  H   UNL     1       0.973   8.092  19.859  0.00  0.00    +0.000 HD
BRANCH  23  25
ATOM     25  C   UNL     1       0.481  10.110  19.871  0.00  0.00    +0.000 A 
ATOM     26  C   UNL     1      -0.529  10.698  19.080  0.00  0.00    +0.000 A 
ATOM     27  C   UNL     1      -1.479  11.549  19.645  0.00  0.00    +0.000 A 
ATOM     28  C   UNL     1      -1.389  11.761  20.998  0.00  0.00    +0.000 A 
ATOM     29  C   UNL     1      -0.324  11.295  21.741  0.00  0.00    +0.000 A 
ATOM     30  C   UNL     1       0.672  10.523  21.193  0.00  0.00    +0.000 A 
ATOM     31  O   UNL     1      -0.495  11.533  23.074  0.00  0.00    +0.000 OA
ATOM     32  C   UNL     1      -1.911  11.809  23.066  0.00  0.00    +0.000 C 
ATOM     33  O   UNL     1      -2.355  12.311  21.787  0.00  0.00    +0.000 OA
ENDBRANCH  23  25
ENDBRANCH  20  22
ENDBRANCH  19  20
ENDBRANCH   1  19
TORSDOF 6
ENDMDL
MODEL 2
REMARK VINA RESULT:      -8.9      5.181      8.140
REMARK  Name = 
REMARK  6 active torsions:
REMARK  status: ('A' for Active; 'I' for Inactive)
REMARK    1  A    between atoms: C_2  and  C_3
REMARK    2  A    between atoms: C_3  and  S_4
REMARK    3  A    between atoms: S_4  and  C_5
REMARK    4  A    between atoms: C_7  and  C_8
REMARK    5  A    between atoms: C_15  and  C_16
REMARK    6  A    between atoms: N_22  and  C_23
REMARK                            x       y       z     vdW  Elec       q    Type
REMARK                         _______ _______ _______ _____ _____    ______ ____
ROOT
ATOM      1  C   UNL     1       6.001   5.003  17.293  0.00  0.00    +0.000 A 
ATOM      2  N   UNL     1       5.114   4.867  18.330  0.00  0.00    +0.000 NA
ATOM      3  C   UNL     1       4.018   4.337  17.814  0.00  0.00    +0.000 A 
ATOM      4  N   UNL     1       4.201   4.124  16.469  0.00  0.00    +0.000 N 
ATOM      5  C   UNL     1       5.471   4.523  16.111  0.00  0.00    +0.000 A 
ATOM      6  H   UNL     1       3.527   3.709  15.847  0.00  0.00    +0.000 HD
ENDROOT
BRANCH   3   7
ATOM      7  C   UNL     1       2.801   3.959  18.538  0.00  0.00    +0.000 A 
ATOM      8  C   UNL     1       1.995   2.882  18.132  0.00  0.00    +0.000 A 
ATOM      9  C   UNL     1       0.854   2.530  18.860  0.00  0.00    +0.000 A 
ATOM     10  C   UNL     1       0.503   3.248  20.001  0.00  0.00    +0.000 A 
ATOM     11  C   UNL     1       1.285   4.324  20.412  0.00  0.00    +0.000 A 
ATOM     12  C   UNL     1       2.424   4.678  19.682  0.00  0.00    +0.000 A 
ENDBRANCH   3   7
BRANCH   5  13
ATOM     13  C   UNL     1       5.997   4.370  14.753  0.00  0.00    +0.000 A 
ATOM     14  C   UNL     1       5.366   3.540  13.816  0.00  0.00    +0.000 A 
ATOM     15  C   UNL     1       5.853   3.431  12.510  0.00  0.00    +0.000 A 
ATOM     16  C   UNL     1       6.989   4.139  12.129  0.00  0.00    +0.000 A 
ATOM     17  C   UNL     1       7.636   4.958  13.051  0.00  0.00    +0.000 A 
ATOM     18  C   UNL     1       7.141   5.075  14.353  0.00  0.00    +0.000 A 
ENDBRANCH   5  13
BRANCH   1  19
ATOM     19  S   UNL     1       7.608   5.641  17.528  0.00  0.00    +0.000 S 
BRANCH  19  20
ATOM     20  C   UNL     1       7.300   7.414  17.368  0.00  0.00    +0.000 C 
BRANCH  20  22
ATOM     21  O   UNL     1       8.801   7.648  19.199  0.00  0.00    +0.000 OA
ATOM     22  C   UNL     1       8.169   8.224  18.314  0.00  0.00    +0.000 C 
ATOM     23  N   UNL     1       8.285   9.572  17.991  0.00  0.00    +0.000 N 
ATOM     24  H   UNL     1       7.850   9.851  17.117  0.00  0.00    +0.000 HD
BRANCH  23  25
ATOM     25  C   UNL     1       9.251  10.442  18.531  0.00  0.00    +0.000 A 
ATOM     26  C   UNL     1      10.062  11.263  17.719  0.00  0.00    +0.000 A 
ATOM     27  C   UNL     1      10.734  12.363  18.254  0.00  0.00    +0.000 A 
ATOM     28  C   UNL     1      10.544  12.610  19.592  0.00  0.00    +0.000 A 
ATOM     29  C   UNL     1       9.862  11.730  20.407  0.00  0.00    +0.000 A 
ATOM     30  C   UNL     1       9.261  10.594  19.921  0.00  0.00    +0.000 A 
ATOM     31  O   UNL     1       9.709  12.225  21.669  0.00  0.00    +0.000 OA
ATOM     32  C   UNL     1      10.004  13.611  21.396  0.00  0.00    +0.000 C 
ATOM     33  O   UNL     1      10.862  13.762  20.245  0.00  0.00    +0.000 OA
ENDBRANCH  23  25
ENDBRANCH  20  22
ENDBRANCH  19  20
ENDBRANCH   1  19
TORSDOF 6
ENDMDL
MODEL 3
REMARK VINA RESULT:      -8.9      4.965      6.653
REMARK  Name = 
REMARK  6 active torsions:
REMARK  status: ('A' for Active; 'I' for Inactive)
REMARK    1  A    between atoms: C_2  and  C_3
REMARK    2  A    between atoms: C_3  and  S_4
REMARK    3  A    between atoms: S_4  and  C_5
REMARK    4  A    between atoms: C_7  and  C_8
REMARK    5  A    between atoms: C_15  and  C_16
REMARK    6  A    between atoms: N_22  and  C_23
REMARK                            x       y       z     vdW  Elec       q    Type
REMARK                         _______ _______ _______ _____ _____    ______ ____
ROOT
ATOM      1  C   UNL     1       5.898   5.067  17.734  0.00  0.00    +0.000 A 
ATOM      2  N   UNL     1       6.618   5.138  16.569  0.00  0.00    +0.000 NA
ATOM      3  C   UNL     1       5.923   4.472  15.662  0.00  0.00    +0.000 A 
ATOM      4  N   UNL     1       4.769   3.991  16.230  0.00  0.00    +0.000 N 
ATOM      5  C   UNL     1       4.715   4.375  17.554  0.00  0.00    +0.000 A 
ATOM      6  H   UNL     1       4.055   3.470  15.749  0.00  0.00    +0.000 HD
ENDROOT
BRANCH   3   7
ATOM      7  C   UNL     1       6.262   4.305  14.245  0.00  0.00    +0.000 A 
ATOM      8  C   UNL     1       7.324   5.002  13.645  0.00  0.00    +0.000 A 
ATOM      9  C   UNL     1       7.640   4.801  12.298  0.00  0.00    +0.000 A 
ATOM     10  C   UNL     1       6.899   3.902  11.533  0.00  0.00    +0.000 A 
ATOM     11  C   UNL     1       5.837   3.211  12.110  0.00  0.00    +0.000 A 
ATOM     12  C   UNL     1       5.520   3.414  13.456  0.00  0.00    +0.000 A 
ENDBRANCH   3   7
BRANCH   5  13
ATOM     13  C   UNL     1       3.577   4.068  18.422  0.00  0.00    +0.000 A 
ATOM     14  C   UNL     1       2.802   5.086  18.995  0.00  0.00    +0.000 A 
ATOM     15  C   UNL     1       1.693   4.782  19.791  0.00  0.00    +0.000 A 
ATOM     16  C   UNL     1       1.357   3.455  20.039  0.00  0.00    +0.000 A 
ATOM     17  C   UNL     1       2.124   2.432  19.490  0.00  0.00    +0.000 A 
ATOM     18  C   UNL     1       3.225   2.736  18.684  0.00  0.00    +0.000 A 
ENDBRANCH   5  13
BRANCH   1  19
ATOM     19  S   UNL     1       6.433   5.844  19.202  0.00  0.00    +0.000 S 
BRANCH  19  20
ATOM     20  C   UNL     1       8.085   6.390  18.718  0.00  0.00    +0.000 C 
BRANCH  20  22
ATOM     21  O   UNL     1       7.246   8.373  17.704  0.00  0.00    +0.000 OA
ATOM     22  C   UNL     1       8.120   7.878  18.416  0.00  0.00    +0.000 C 
ATOM     23  N   UNL     1       9.088   8.593  19.113  0.00  0.00    +0.000 N 
ATOM     24  H   UNL     1       9.608   8.063  19.807  0.00  0.00    +0.000 HD
BRANCH  23  25
ATOM     25  C   UNL     1       9.119   9.996  19.225  0.00  0.00    +0.000 A 
ATOM     26  C   UNL     1       9.136  10.651  20.475  0.00  0.00    +0.000 A 
ATOM     27  C   UNL     1       9.533  11.984  20.581  0.00  0.00    +0.000 A 
ATOM     28  C   UNL     1       9.924  12.605  19.421  0.00  0.00    +0.000 A 
ATOM     29  C   UNL     1       9.778  12.005  18.187  0.00  0.00    +0.000 A 
ATOM     30  C   UNL     1       9.308  10.721  18.046  0.00  0.00    +0.000 A 
ATOM     31  O   UNL     1      10.323  12.760  17.190  0.00  0.00    +0.000 OA
ATOM     32  C   UNL     1      11.135  13.635  18.000  0.00  0.00    +0.000 C 
ATOM     33  O   UNL     1      10.605  13.782  19.334  0.00  0.00    +0.000 OA
ENDBRANCH  23  25
ENDBRANCH  20  22
ENDBRANCH  19  20
ENDBRANCH   1  19
TORSDOF 6
ENDMDL
MODEL 4
REMARK VINA RESULT:      -8.8      5.881      7.433
REMARK  Name = 
REMARK  6 active torsions:
REMARK  status: ('A' for Active; 'I' for Inactive)
REMARK    1  A    between atoms: C_2  and  C_3
REMARK    2  A    between atoms: C_3  and  S_4
REMARK    3  A    between atoms: S_4  and  C_5
REMARK    4  A    between atoms: C_7  and  C_8
REMARK    5  A    between atoms: C_15  and  C_16
REMARK    6  A    between atoms: N_22  and  C_23
REMARK                            x       y       z     vdW  Elec       q    Type
REMARK                         _______ _______ _______ _____ _____    ______ ____
ROOT
ATOM      1  C   UNL     1       6.792   6.237  17.083  0.00  0.00    +0.000 A 
ATOM      2  N   UNL     1       7.378   5.800  15.922  0.00  0.00    +0.000 NA
ATOM      3  C   UNL     1       6.427   5.197  15.229  0.00  0.00    +0.000 A 
ATOM      4  N   UNL     1       5.245   5.256  15.927  0.00  0.00    +0.000 N 
ATOM      5  C   UNL     1       5.444   5.935  17.111  0.00  0.00    +0.000 A 
ATOM      6  H   UNL     1       4.362   4.891  15.610  0.00  0.00    +0.000 HD
ENDROOT
BRANCH   3   7
ATOM      7  C   UNL     1       6.554   4.604  13.895  0.00  0.00    +0.000 A 
ATOM      8  C   UNL     1       7.570   4.986  13.003  0.00  0.00    +0.000 A 
ATOM      9  C   UNL     1       7.681   4.381  11.747  0.00  0.00    +0.000 A 
ATOM     10  C   UNL     1       6.779   3.390  11.365  0.00  0.00    +0.000 A 
ATOM     11  C   UNL     1       5.761   3.007  12.233  0.00  0.00    +0.000 A 
ATOM     12  C   UNL     1       5.648   3.613  13.488  0.00  0.00    +0.000 A 
ENDBRANCH   3   7
BRANCH   5  13
ATOM     13  C   UNL     1       4.361   6.219  18.053  0.00  0.00    +0.000 A 
ATOM     14  C   UNL     1       3.480   7.290  17.851  0.00  0.00    +0.000 A 
ATOM     15  C   UNL     1       2.425   7.530  18.736  0.00  0.00    +0.000 A 
ATOM     16  C   UNL     1       2.247   6.710  19.847  0.00  0.00    +0.000 A 
ATOM     17  C   UNL     1       3.121   5.649  20.070  0.00  0.00    +0.000 A 
ATOM     18  C   UNL     1       4.169   5.404  19.178  0.00  0.00    +0.000 A 
ENDBRANCH   5  13
BRANCH   1  19
ATOM     19  S   UNL     1       7.683   7.124  18.293  0.00  0.00    +0.000 S 
BRANCH  19  20
ATOM     20  C   UNL     1       7.682   8.781  17.572  0.00  0.00    +0.000 C 
BRANCH  20  22
ATOM     21  O   UNL     1       9.233   9.307  19.299  0.00  0.00    +0.000 OA
ATOM     22  C   UNL     1       8.583   9.730  18.344  0.00  0.00    +0.000 C 
ATOM     23  N   UNL     1       8.702  11.001  17.789  0.00  0.00    +0.000 N 
ATOM     24  H   UNL     1       8.247  11.130  16.891  0.00  0.00    +0.000 HD
BRANCH  23  25
ATOM     25  C   UNL     1       9.690  11.938  18.148  0.00  0.00    +0.000 A 
ATOM     26  C   UNL     1      11.052  11.755  17.826  0.00  0.00    +0.000 A 
ATOM     27  C   UNL     1      11.945  12.827  17.849  0.00  0.00    +0.000 A 
ATOM     28  C   UNL     1      11.425  14.056  18.174  0.00  0.00    +0.000 A 
ATOM     29  C   UNL     1      10.126  14.204  18.617  0.00  0.00    +0.000 A 
ATOM     30  C   UNL     1       9.248  13.150  18.685  0.00  0.00    +0.000 A 
ATOM     31  O   UNL     1       9.796  15.518  18.784  0.00  0.00    +0.000 OA
ATOM     32  C   UNL     1      10.871  16.110  18.023  0.00  0.00    +0.000 C 
ATOM     33  O   UNL     1      12.035  15.259  17.984  0.00  0.00    +0.000 OA
ENDBRANCH  23  25
ENDBRANCH  20  22
ENDBRANCH  19  20
ENDBRANCH   1  19
TORSDOF 6
ENDMDL
MODEL 5
REMARK VINA RESULT:      -8.8      0.685      1.100
REMARK  Name = 
REMARK  6 active torsions:
REMARK  status: ('A' for Active; 'I' for Inactive)
REMARK    1  A    between atoms: C_2  and  C_3
REMARK    2  A    between atoms: C_3  and  S_4
REMARK    3  A    between atoms: S_4  and  C_5
REMARK    4  A    between atoms: C_7  and  C_8
REMARK    5  A    between atoms: C_15  and  C_16
REMARK    6  A    between atoms: N_22  and  C_23
REMARK                            x       y       z     vdW  Elec       q    Type
REMARK                         _______ _______ _______ _____ _____    ______ ____
ROOT
ATOM      1  C   UNL     1       4.329   5.794  17.392  0.00  0.00    +0.000 A 
ATOM      2  N   UNL     1       5.073   5.968  16.254  0.00  0.00    +0.000 NA
ATOM      3  C   UNL     1       5.157   4.780  15.679  0.00  0.00    +0.000 A 
ATOM      4  N   UNL     1       4.468   3.859  16.430  0.00  0.00    +0.000 N 
ATOM      5  C   UNL     1       3.909   4.485  17.524  0.00  0.00    +0.000 A 
ATOM      6  H   UNL     1       4.358   2.885  16.200  0.00  0.00    +0.000 HD
ENDROOT
BRANCH   3   7
ATOM      7  C   UNL     1       5.816   4.464  14.409  0.00  0.00    +0.000 A 
ATOM      8  C   UNL     1       5.238   3.601  13.463  0.00  0.00    +0.000 A 
ATOM      9  C   UNL     1       5.880   3.341  12.248  0.00  0.00    +0.000 A 
ATOM     10  C   UNL     1       7.107   3.937  11.963  0.00  0.00    +0.000 A 
ATOM     11  C   UNL     1       7.698   4.787  12.894  0.00  0.00    +0.000 A 
ATOM     12  C   UNL     1       7.058   5.045  14.109  0.00  0.00    +0.000 A 
ENDBRANCH   3   7
BRANCH   5  13
ATOM     13  C   UNL     1       3.060   3.785  18.489  0.00  0.00    +0.000 A 
ATOM     14  C   UNL     1       3.548   3.397  19.744  0.00  0.00    +0.000 A 
ATOM     15  C   UNL     1       2.718   2.763  20.674  0.00  0.00    +0.000 A 
ATOM     16  C   UNL     1       1.391   2.494  20.353  0.00  0.00    +0.000 A 
ATOM     17  C   UNL     1       0.893   2.860  19.105  0.00  0.00    +0.000 A 
ATOM     18  C   UNL     1       1.721   3.504  18.181  0.00  0.00    +0.000 A 
ENDBRANCH   5  13
BRANCH   1  19
ATOM     19  S   UNL     1       3.937   7.123  18.454  0.00  0.00    +0.000 S 
BRANCH  19  20
ATOM     20  C   UNL     1       2.241   7.479  17.943  0.00  0.00    +0.000 C 
BRANCH  20  22
ATOM     21  O   UNL     1       2.213   9.778  17.331  0.00  0.00    +0.000 OA
ATOM     22  C   UNL     1       1.882   8.938  18.166  0.00  0.00    +0.000 C 
ATOM     23  N   UNL     1       1.058   9.176  19.262  0.00  0.00    +0.000 N 
ATOM     24  H   UNL     1       0.718   8.348  19.741  0.00  0.00    +0.000 HD
BRANCH  23  25
ATOM     25  C   UNL     1       0.363  10.379  19.492  0.00  0.00    +0.000 A 
ATOM     26  C   UNL     1      -0.966  10.575  19.058  0.00  0.00    +0.000 A 
ATOM     27  C   UNL     1      -1.755  11.591  19.599  0.00  0.00    +0.000 A 
ATOM     28  C   UNL     1      -1.179  12.363  20.578  0.00  0.00    +0.000 A 
ATOM     29  C   UNL     1       0.158  12.255  20.901  0.00  0.00    +0.000 A 
ATOM     30  C   UNL     1       0.980  11.317  20.323  0.00  0.00    +0.000 A 
ATOM     31  O   UNL     1       0.486  13.043  21.966  0.00  0.00    +0.000 OA
ATOM     32  C   UNL     1      -0.844  13.296  22.466  0.00  0.00    +0.000 C 
ATOM     33  O   UNL     1      -1.839  13.202  21.425  0.00  0.00    +0.000 OA
ENDBRANCH  23  25
ENDBRANCH  20  22
ENDBRANCH  19  20
ENDBRANCH   1  19
TORSDOF 6
ENDMDL
MODEL 6
REMARK VINA RESULT:      -8.8      5.779      7.289
REMARK  Name = 
REMARK  6 active torsions:
REMARK  status: ('A' for Active; 'I' for Inactive)
REMARK    1  A    between atoms: C_2  and  C_3
REMARK    2  A    between atoms: C_3  and  S_4
REMARK    3  A    between atoms: S_4  and  C_5
REMARK    4  A    between atoms: C_7  and  C_8
REMARK    5  A    between atoms: C_15  and  C_16
REMARK    6  A    between atoms: N_22  and  C_23
REMARK                            x       y       z     vdW  Elec       q    Type
REMARK                         _______ _______ _______ _____ _____    ______ ____
ROOT
ATOM      1  C   UNL     1       6.745   6.126  16.996  0.00  0.00    +0.000 A 
ATOM      2  N   UNL     1       7.324   5.651  15.848  0.00  0.00    +0.000 NA
ATOM      3  C   UNL     1       6.354   5.084  15.150  0.00  0.00    +0.000 A 
ATOM      4  N   UNL     1       5.168   5.203  15.833  0.00  0.00    +0.000 N 
ATOM      5  C   UNL     1       5.384   5.885  17.012  0.00  0.00    +0.000 A 
ATOM      6  H   UNL     1       4.273   4.874  15.509  0.00  0.00    +0.000 HD
ENDROOT
BRANCH   3   7
ATOM      7  C   UNL     1       6.470   4.472  13.823  0.00  0.00    +0.000 A 
ATOM      8  C   UNL     1       5.552   3.514  13.361  0.00  0.00    +0.000 A 
ATOM      9  C   UNL     1       5.674   2.968  12.079  0.00  0.00    +0.000 A 
ATOM     10  C   UNL     1       6.715   3.370  11.244  0.00  0.00    +0.000 A 
ATOM     11  C   UNL     1       7.639   4.310  11.691  0.00  0.00    +0.000 A 
ATOM     12  C   UNL     1       7.518   4.854  12.973  0.00  0.00    +0.000 A 
ENDBRANCH   3   7
BRANCH   5  13
ATOM     13  C   UNL     1       4.304   6.227  17.939  0.00  0.00    +0.000 A 
ATOM     14  C   UNL     1       4.049   5.453  19.079  0.00  0.00    +0.000 A 
ATOM     15  C   UNL     1       3.041   5.811  19.979  0.00  0.00    +0.000 A 
ATOM     16  C   UNL     1       2.262   6.939  19.740  0.00  0.00    +0.000 A 
ATOM     17  C   UNL     1       2.493   7.712  18.605  0.00  0.00    +0.000 A 
ATOM     18  C   UNL     1       3.509   7.360  17.712  0.00  0.00    +0.000 A 
ENDBRANCH   5  13
BRANCH   1  19
ATOM     19  S   UNL     1       7.661   6.985  18.208  0.00  0.00    +0.000 S 
BRANCH  19  20
ATOM     20  C   UNL     1       7.632   8.661  17.534  0.00  0.00    +0.000 C 
BRANCH  20  22
ATOM     21  O   UNL     1       9.183   9.162  19.267  0.00  0.00    +0.000 OA
ATOM     22  C   UNL     1       8.525   9.601  18.325  0.00  0.00    +0.000 C 
ATOM     23  N   UNL     1       8.628  10.886  17.802  0.00  0.00    +0.000 N 
ATOM     24  H   UNL     1       8.168  11.033  16.908  0.00  0.00    +0.000 HD
BRANCH  23  25
ATOM     25  C   UNL     1       9.607  11.825  18.179  0.00  0.00    +0.000 A 
ATOM     26  C   UNL     1      10.925  11.780  17.678  0.00  0.00    +0.000 A 
ATOM     27  C   UNL     1      11.762  12.895  17.757  0.00  0.00    +0.000 A 
ATOM     28  C   UNL     1      11.228  14.027  18.321  0.00  0.00    +0.000 A 
ATOM     29  C   UNL     1       9.990  14.025  18.929  0.00  0.00    +0.000 A 
ATOM     30  C   UNL     1       9.178  12.916  18.940  0.00  0.00    +0.000 A 
ATOM     31  O   UNL     1       9.621  15.277  19.328  0.00  0.00    +0.000 OA
ATOM     32  C   UNL     1      10.562  16.040  18.546  0.00  0.00    +0.000 C 
ATOM     33  O   UNL     1      11.752  15.282  18.244  0.00  0.00    +0.000 OA
ENDBRANCH  23  25
ENDBRANCH  20  22
ENDBRANCH  19  20
ENDBRANCH   1  19
TORSDOF 6
ENDMDL
MODEL 7
REMARK VINA RESULT:      -8.7      0.837      1.284
REMARK  Name = 
REMARK  6 active torsions:
REMARK  status: ('A' for Active; 'I' for Inactive)
REMARK    1  A    between atoms: C_2  and  C_3
REMARK    2  A    between atoms: C_3  and  S_4
REMARK    3  A    between atoms: S_4  and  C_5
REMARK    4  A    between atoms: C_7  and  C_8
REMARK    5  A    between atoms: C_15  and  C_16
REMARK    6  A    between atoms: N_22  and  C_23
REMARK                            x       y       z     vdW  Elec       q    Type
REMARK                         _______ _______ _______ _____ _____    ______ ____
ROOT
ATOM      1  C   UNL     1       4.111   5.865  17.505  0.00  0.00    +0.000 A 
ATOM      2  N   UNL     1       4.890   6.063  16.394  0.00  0.00    +0.000 NA
ATOM      3  C   UNL     1       5.040   4.877  15.829  0.00  0.00    +0.000 A 
ATOM      4  N   UNL     1       4.359   3.933  16.558  0.00  0.00    +0.000 N 
ATOM      5  C   UNL     1       3.737   4.540  17.628  0.00  0.00    +0.000 A 
ATOM      6  H   UNL     1       4.294   2.954  16.330  0.00  0.00    +0.000 HD
ENDROOT
BRANCH   3   7
ATOM      7  C   UNL     1       5.756   4.581  14.585  0.00  0.00    +0.000 A 
ATOM      8  C   UNL     1       5.233   3.716  13.610  0.00  0.00    +0.000 A 
ATOM      9  C   UNL     1       5.929   3.476  12.421  0.00  0.00    +0.000 A 
ATOM     10  C   UNL     1       7.157   4.095  12.191  0.00  0.00    +0.000 A 
ATOM     11  C   UNL     1       7.694   4.947  13.152  0.00  0.00    +0.000 A 
ATOM     12  C   UNL     1       6.999   5.185  14.341  0.00  0.00    +0.000 A 
ENDBRANCH   3   7
BRANCH   5  13
ATOM     13  C   UNL     1       2.880   3.812  18.565  0.00  0.00    +0.000 A 
ATOM     14  C   UNL     1       1.649   3.276  18.163  0.00  0.00    +0.000 A 
ATOM     15  C   UNL     1       0.856   2.548  19.055  0.00  0.00    +0.000 A 
ATOM     16  C   UNL     1       1.277   2.361  20.368  0.00  0.00    +0.000 A 
ATOM     17  C   UNL     1       2.491   2.899  20.789  0.00  0.00    +0.000 A 
ATOM     18  C   UNL     1       3.288   3.616  19.893  0.00  0.00    +0.000 A 
ENDBRANCH   5  13
BRANCH   1  19
ATOM     19  S   UNL     1       3.630   7.181  18.546  0.00  0.00    +0.000 S 
BRANCH  19  20
ATOM     20  C   UNL     1       2.629   8.166  17.409  0.00  0.00    +0.000 C 
BRANCH  20  22
ATOM     21  O   UNL     1       0.533   9.287  17.524  0.00  0.00    +0.000 OA
ATOM     22  C   UNL     1       1.536   8.928  18.139  0.00  0.00    +0.000 C 
ATOM     23  N   UNL     1       1.714   9.027  19.516  0.00  0.00    +0.000 N 
ATOM     24  H   UNL     1       2.503   8.511  19.893  0.00  0.00    +0.000 HD
BRANCH  23  25
ATOM     25  C   UNL     1       0.710   9.417  20.424  0.00  0.00    +0.000 A 
ATOM     26  C   UNL     1       0.472   8.719  21.627  0.00  0.00    +0.000 A 
ATOM     27  C   UNL     1      -0.245   9.309  22.669  0.00  0.00    +0.000 A 
ATOM     28  C   UNL     1      -0.679  10.596  22.467  0.00  0.00    +0.000 A 
ATOM     29  C   UNL     1      -0.561  11.223  21.244  0.00  0.00    +0.000 A 
ATOM     30  C   UNL     1       0.067  10.632  20.173  0.00  0.00    +0.000 A 
ATOM     31  O   UNL     1      -0.963  12.525  21.302  0.00  0.00    +0.000 OA
ATOM     32  C   UNL     1      -0.940  12.695  22.735  0.00  0.00    +0.000 C 
ATOM     33  O   UNL     1      -1.135  11.446  23.430  0.00  0.00    +0.000 OA
ENDBRANCH  23  25
ENDBRANCH  20  22
ENDBRANCH  19  20
ENDBRANCH   1  19
TORSDOF 6
ENDMDL
MODEL 8
REMARK VINA RESULT:      -8.7      5.320      8.506
REMARK  Name = 
REMARK  6 active torsions:
REMARK  status: ('A' for Active; 'I' for Inactive)
REMARK    1  A    between atoms: C_2  and  C_3
REMARK    2  A    between atoms: C_3  and  S_4
REMARK    3  A    between atoms: S_4  and  C_5
REMARK    4  A    between atoms: C_7  and  C_8
REMARK    5  A    between atoms: C_15  and  C_16
REMARK    6  A    between atoms: N_22  and  C_23
REMARK                            x       y       z     vdW  Elec       q    Type
REMARK                         _______ _______ _______ _____ _____    ______ ____
ROOT
ATOM      1  C   UNL     1       6.049   5.422  16.800  0.00  0.00    +0.000 A 
ATOM      2  N   UNL     1       5.273   5.391  17.931  0.00  0.00    +0.000 NA
ATOM      3  C   UNL     1       4.172   4.732  17.608  0.00  0.00    +0.000 A 
ATOM      4  N   UNL     1       4.244   4.336  16.295  0.00  0.00    +0.000 N 
ATOM      5  C   UNL     1       5.446   4.746  15.757  0.00  0.00    +0.000 A 
ATOM      6  H   UNL     1       3.545   3.798  15.809  0.00  0.00    +0.000 HD
ENDROOT
BRANCH   3   7
ATOM      7  C   UNL     1       3.056   4.399  18.498  0.00  0.00    +0.000 A 
ATOM      8  C   UNL     1       1.993   3.578  18.086  0.00  0.00    +0.000 A 
ATOM      9  C   UNL     1       0.957   3.257  18.968  0.00  0.00    +0.000 A 
ATOM     10  C   UNL     1       0.967   3.752  20.271  0.00  0.00    +0.000 A 
ATOM     11  C   UNL     1       2.008   4.575  20.691  0.00  0.00    +0.000 A 
ATOM     12  C   UNL     1       3.043   4.898  19.809  0.00  0.00    +0.000 A 
ENDBRANCH   3   7
BRANCH   5  13
ATOM     13  C   UNL     1       5.852   4.425  14.388  0.00  0.00    +0.000 A 
ATOM     14  C   UNL     1       7.074   4.870  13.866  0.00  0.00    +0.000 A 
ATOM     15  C   UNL     1       7.470   4.525  12.570  0.00  0.00    +0.000 A 
ATOM     16  C   UNL     1       6.639   3.743  11.773  0.00  0.00    +0.000 A 
ATOM     17  C   UNL     1       5.416   3.303  12.271  0.00  0.00    +0.000 A 
ATOM     18  C   UNL     1       5.026   3.639  13.570  0.00  0.00    +0.000 A 
ENDBRANCH   5  13
BRANCH   1  19
ATOM     19  S   UNL     1       7.624   6.173  16.778  0.00  0.00    +0.000 S 
BRANCH  19  20
ATOM     20  C   UNL     1       7.570   7.125  18.313  0.00  0.00    +0.000 C 
BRANCH  20  22
ATOM     21  O   UNL     1       7.642   9.232  17.209  0.00  0.00    +0.000 OA
ATOM     22  C   UNL     1       8.096   8.537  18.117  0.00  0.00    +0.000 C 
ATOM     23  N   UNL     1       8.969   8.977  19.107  0.00  0.00    +0.000 N 
ATOM     24  H   UNL     1       9.094   8.345  19.892  0.00  0.00    +0.000 HD
BRANCH  23  25
ATOM     25  C   UNL     1       9.344  10.320  19.300  0.00  0.00    +0.000 A 
ATOM     26  C   UNL     1       9.402  10.908  20.582  0.00  0.00    +0.000 A 
ATOM     27  C   UNL     1      10.113  12.089  20.798  0.00  0.00    +0.000 A 
ATOM     28  C   UNL     1      10.763  12.625  19.714  0.00  0.00    +0.000 A 
ATOM     29  C   UNL     1      10.593  12.122  18.440  0.00  0.00    +0.000 A 
ATOM     30  C   UNL     1       9.829  11.009  18.185  0.00  0.00    +0.000 A 
ATOM     31  O   UNL     1      11.410  12.742  17.539  0.00  0.00    +0.000 OA
ATOM     32  C   UNL     1      12.333  13.351  18.466  0.00  0.00    +0.000 C 
ATOM     33  O   UNL     1      11.727  13.587  19.754  0.00  0.00    +0.000 OA
ENDBRANCH  23  25
ENDBRANCH  20  22
ENDBRANCH  19  20
ENDBRANCH   1  19
TORSDOF 6
ENDMDL
MODEL 9
REMARK VINA RESULT:      -8.6      0.897      1.533
REMARK  Name = 
REMARK  6 active torsions:
REMARK  status: ('A' for Active; 'I' for Inactive)
REMARK    1  A    between atoms: C_2  and  C_3
REMARK    2  A    between atoms: C_3  and  S_4
REMARK    3  A    between atoms: S_4  and  C_5
REMARK    4  A    between atoms: C_7  and  C_8
REMARK    5  A    between atoms: C_15  and  C_16
REMARK    6  A    between atoms: N_22  and  C_23
REMARK                            x       y       z     vdW  Elec       q    Type
REMARK                         _______ _______ _______ _____ _____    ______ ____
ROOT
ATOM      1  C   UNL     1       4.410   5.799  17.345  0.00  0.00    +0.000 A 
ATOM      2  N   UNL     1       5.157   5.997  16.212  0.00  0.00    +0.000 NA
ATOM      3  C   UNL     1       5.230   4.824  15.605  0.00  0.00    +0.000 A 
ATOM      4  N   UNL     1       4.532   3.889  16.329  0.00  0.00    +0.000 N 
ATOM      5  C   UNL     1       3.977   4.490  17.440  0.00  0.00    +0.000 A 
ATOM      6  H   UNL     1       4.412   2.923  16.073  0.00  0.00    +0.000 HD
ENDROOT
BRANCH   3   7
ATOM      7  C   UNL     1       5.887   4.537  14.326  0.00  0.00    +0.000 A 
ATOM      8  C   UNL     1       7.108   5.130  13.965  0.00  0.00    +0.000 A 
ATOM      9  C   UNL     1       7.723   4.814  12.750  0.00  0.00    +0.000 A 
ATOM     10  C   UNL     1       7.126   3.905  11.878  0.00  0.00    +0.000 A 
ATOM     11  C   UNL     1       5.911   3.316  12.217  0.00  0.00    +0.000 A 
ATOM     12  C   UNL     1       5.295   3.633  13.431  0.00  0.00    +0.000 A 
ENDBRANCH   3   7
BRANCH   5  13
ATOM     13  C   UNL     1       3.121   3.771  18.385  0.00  0.00    +0.000 A 
ATOM     14  C   UNL     1       3.607   3.339  19.626  0.00  0.00    +0.000 A 
ATOM     15  C   UNL     1       2.770   2.688  20.538  0.00  0.00    +0.000 A 
ATOM     16  C   UNL     1       1.439   2.446  20.212  0.00  0.00    +0.000 A 
ATOM     17  C   UNL     1       0.943   2.857  18.977  0.00  0.00    +0.000 A 
ATOM     18  C   UNL     1       1.778   3.518  18.072  0.00  0.00    +0.000 A 
ENDBRANCH   5  13
BRANCH   1  19
ATOM     19  S   UNL     1       4.030   7.101  18.443  0.00  0.00    +0.000 S 
BRANCH  19  20
ATOM     20  C   UNL     1       2.793   8.005  17.485  0.00  0.00    +0.000 C 
BRANCH  20  22
ATOM     21  O   UNL     1       1.697   8.353  19.568  0.00  0.00    +0.000 OA
ATOM     22  C   UNL     1       1.765   8.672  18.382  0.00  0.00    +0.000 C 
ATOM     23  N   UNL     1       1.068   9.721  17.791  0.00  0.00    +0.000 N 
ATOM     24  H   UNL     1       1.377   9.982  16.860  0.00  0.00    +0.000 HD
BRANCH  23  25
ATOM     25  C   UNL     1       0.296  10.664  18.497  0.00  0.00    +0.000 A 
ATOM     26  C   UNL     1      -1.098  10.785  18.311  0.00  0.00    +0.000 A 
ATOM     27  C   UNL     1      -1.893  11.439  19.253  0.00  0.00    +0.000 A 
ATOM     28  C   UNL     1      -1.254  11.930  20.365  0.00  0.00    +0.000 A 
ATOM     29  C   UNL     1       0.121  11.928  20.476  0.00  0.00    +0.000 A 
ATOM     30  C   UNL     1       0.935  11.365  19.523  0.00  0.00    +0.000 A 
ATOM     31  O   UNL     1       0.529  12.369  21.702  0.00  0.00    +0.000 OA
ATOM     32  C   UNL     1      -0.724  12.241  22.407  0.00  0.00    +0.000 C 
ATOM     33  O   UNL     1      -1.856  12.339  21.517  0.00  0.00    +0.000 OA
ENDBRANCH  23  25
ENDBRANCH  20  22
ENDBRANCH  19  20
ENDBRANCH   1  19
TORSDOF 6
ENDMDL
