MODEL 1
REMARK VINA RESULT:      -8.7      0.000      0.000
REMARK  Name = 
REMARK  5 active torsions:
REMARK  status: ('A' for Active; 'I' for Inactive)
REMARK    1  A    between atoms: C_2  and  C_3
REMARK    2  A    between atoms: C_3  and  O_4
REMARK    3  A    between atoms: O_4  and  C_5
REMARK    4  A    between atoms: C_5  and  C_7
REMARK    5  A    between atoms: C_20  and  C_21
REMARK                            x       y       z     vdW  Elec       q    Type
REMARK                         _______ _______ _______ _____ _____    ______ ____
ROOT
ATOM      1  O   UNL     1       1.802   9.052  22.824  0.00  0.00    +0.000 OA
ATOM      2  C   UNL     1       1.126   9.480  21.883  0.00  0.00    +0.000 C 
ATOM      3  N   UNL     1       0.453  10.661  22.045  0.00  0.00    +0.000 N 
ATOM      4  C   UNL     1      -0.356  11.229  21.109  0.00  0.00    +0.000 A 
ATOM      5  N   UNL     1      -0.842  10.683  20.026  0.00  0.00    +0.000 NA
ATOM      6  C   UNL     1      -1.596  11.612  19.331  0.00  0.00    +0.000 A 
ATOM      7  C   UNL     1      -1.611  12.877  19.891  0.00  0.00    +0.000 A 
ATOM      8  S   UNL     1      -0.761  12.859  21.388  0.00  0.00    +0.000 S 
ATOM      9  H   UNL     1       0.610  11.155  22.912  0.00  0.00    +0.000 HD
ENDROOT
BRANCH   6  10
ATOM     10  C   UNL     1      -2.329  11.226  18.133  0.00  0.00    +0.000 A 
ATOM     11  C   UNL     1      -1.726  10.352  17.211  0.00  0.00    +0.000 A 
ATOM     12  C   UNL     1      -2.411   9.940  16.065  0.00  0.00    +0.000 A 
ATOM     13  C   UNL     1      -3.700  10.403  15.833  0.00  0.00    +0.000 A 
ATOM     14  F   UNL     1      -4.359  10.003  14.740  0.00  0.00    +0.000 F 
ATOM     15  C   UNL     1      -4.299  11.280  16.734  0.00  0.00    +0.000 A 
ATOM     16  F   UNL     1      -5.539  11.734  16.515  0.00  0.00    +0.000 F 
ATOM     17  C   UNL     1      -3.623  11.694  17.878  0.00  0.00    +0.000 A 
ENDBRANCH   6  10
BRANCH   2  18
ATOM     18  C   UNL     1       1.101   8.787  20.516  0.00  0.00    +0.000 C 
BRANCH  18  19
ATOM     19  O   UNL     1       1.495   7.418  20.573  0.00  0.00    +0.000 OA
BRANCH  19  20
ATOM     20  C   UNL     1       2.365   7.037  19.598  0.00  0.00    +0.000 C 
ATOM     21  O   UNL     1       2.478   7.561  18.501  0.00  0.00    +0.000 OA
BRANCH  20  22
ATOM     22  C   UNL     1       3.206   5.883  20.106  0.00  0.00    +0.000 C 
ATOM     23  C   UNL     1       2.337   4.869  20.863  0.00  0.00    +0.000 C 
ATOM     24  C   UNL     1       2.157   3.492  20.226  0.00  0.00    +0.000 C 
ATOM     25  C   UNL     1       1.061   3.414  19.164  0.00  0.00    +0.000 C 
ATOM     26  C   UNL     1       1.426   3.843  17.742  0.00  0.00    +0.000 C 
ATOM     27  C   UNL     1       2.906   3.836  17.356  0.00  0.00    +0.000 C 
ATOM     28  C   UNL     1       3.920   3.945  18.491  0.00  0.00    +0.000 C 
ATOM     29  C   UNL     1       4.158   5.362  19.015  0.00  0.00    +0.000 C 
ATOM     30  C   UNL     1       3.467   3.072  19.624  0.00  0.00    +0.000 C 
ATOM     31  O   UNL     1       4.123   2.120  20.037  0.00  0.00    +0.000 OA
ENDBRANCH  20  22
ENDBRANCH  19  20
ENDBRANCH  18  19
ENDBRANCH   2  18
TORSDOF 5
ENDMDL
MODEL 2
REMARK VINA RESULT:      -8.5      0.592      1.269
REMARK  Name = 
REMARK  5 active torsions:
REMARK  status: ('A' for Active; 'I' for Inactive)
REMARK    1  A    between atoms: C_2  and  C_3
REMARK    2  A    between atoms: C_3  and  O_4
REMARK    3  A    between atoms: O_4  and  C_5
REMARK    4  A    between atoms: C_5  and  C_7
REMARK    5  A    between atoms: C_20  and  C_21
REMARK                            x       y       z     vdW  Elec       q    Type
REMARK                         _______ _______ _______ _____ _____    ______ ____
ROOT
ATOM      1  O   UNL     1       1.854   9.052  22.718  0.00  0.00    +0.000 OA
ATOM      2  C   UNL     1       1.151   9.466  21.791  0.00  0.00    +0.000 C 
ATOM      3  N   UNL     1       0.398  10.591  21.994  0.00  0.00    +0.000 N 
ATOM      4  C   UNL     1      -0.448  11.136  21.077  0.00  0.00    +0.000 A 
ATOM      5  N   UNL     1      -0.895  10.598  19.973  0.00  0.00    +0.000 NA
ATOM      6  C   UNL     1      -1.710  11.497  19.310  0.00  0.00    +0.000 A 
ATOM      7  C   UNL     1      -1.813  12.736  19.916  0.00  0.00    +0.000 A 
ATOM      8  S   UNL     1      -0.965  12.722  21.414  0.00  0.00    +0.000 S 
ATOM      9  H   UNL     1       0.520  11.062  22.879  0.00  0.00    +0.000 HD
ENDROOT
BRANCH   6  10
ATOM     10  C   UNL     1      -2.414  11.105  18.097  0.00  0.00    +0.000 A 
ATOM     11  C   UNL     1      -3.689  11.641  17.839  0.00  0.00    +0.000 A 
ATOM     12  C   UNL     1      -4.380  11.309  16.671  0.00  0.00    +0.000 A 
ATOM     13  C   UNL     1      -3.803  10.436  15.758  0.00  0.00    +0.000 A 
ATOM     14  F   UNL     1      -4.461  10.124  14.636  0.00  0.00    +0.000 F 
ATOM     15  C   UNL     1      -2.547   9.890  16.011  0.00  0.00    +0.000 A 
ATOM     16  F   UNL     1      -1.986   9.045  15.139  0.00  0.00    +0.000 F 
ATOM     17  C   UNL     1      -1.852  10.217  17.173  0.00  0.00    +0.000 A 
ENDBRANCH   6  10
BRANCH   2  18
ATOM     18  C   UNL     1       1.174   8.824  20.400  0.00  0.00    +0.000 C 
BRANCH  18  19
ATOM     19  O   UNL     1       1.442   7.424  20.433  0.00  0.00    +0.000 OA
BRANCH  19  20
ATOM     20  C   UNL     1       2.316   6.991  19.484  0.00  0.00    +0.000 C 
ATOM     21  O   UNL     1       2.394   7.415  18.341  0.00  0.00    +0.000 OA
BRANCH  20  22
ATOM     22  C   UNL     1       3.213   5.925  20.083  0.00  0.00    +0.000 C 
ATOM     23  C   UNL     1       2.378   4.772  20.657  0.00  0.00    +0.000 C 
ATOM     24  C   UNL     1       2.480   3.419  19.955  0.00  0.00    +0.000 C 
ATOM     25  C   UNL     1       1.582   3.261  18.729  0.00  0.00    +0.000 C 
ATOM     26  C   UNL     1       2.104   3.807  17.399  0.00  0.00    +0.000 C 
ATOM     27  C   UNL     1       3.614   4.004  17.255  0.00  0.00    +0.000 C 
ATOM     28  C   UNL     1       4.416   4.179  18.542  0.00  0.00    +0.000 C 
ATOM     29  C   UNL     1       4.383   5.584  19.143  0.00  0.00    +0.000 C 
ATOM     30  C   UNL     1       3.911   3.197  19.559  0.00  0.00    +0.000 C 
ATOM     31  O   UNL     1       4.614   2.315  20.040  0.00  0.00    +0.000 OA
ENDBRANCH  20  22
ENDBRANCH  19  20
ENDBRANCH  18  19
ENDBRANCH   2  18
TORSDOF 5
ENDMDL
MODEL 3
REMARK VINA RESULT:      -8.3      1.022      2.118
REMARK  Name = 
REMARK  5 active torsions:
REMARK  status: ('A' for Active; 'I' for Inactive)
REMARK    1  A    between atoms: C_2  and  C_3
REMARK    2  A    between atoms: C_3  and  O_4
REMARK    3  A    between atoms: O_4  and  C_5
REMARK    4  A    between atoms: C_5  and  C_7
REMARK    5  A    between atoms: C_20  and  C_21
REMARK                            x       y       z     vdW  Elec       q    Type
REMARK                         _______ _______ _______ _____ _____    ______ ____
ROOT
ATOM      1  O   UNL     1       1.844   9.241  22.719  0.00  0.00    +0.000 OA
ATOM      2  C   UNL     1       1.132   9.627  21.786  0.00  0.00    +0.000 C 
ATOM      3  N   UNL     1       0.344  10.730  21.977  0.00  0.00    +0.000 N 
ATOM      4  C   UNL     1      -0.513  11.242  21.052  0.00  0.00    +0.000 A 
ATOM      5  N   UNL     1      -0.938  10.683  19.950  0.00  0.00    +0.000 NA
ATOM      6  C   UNL     1      -1.777  11.552  19.277  0.00  0.00    +0.000 A 
ATOM      7  C   UNL     1      -1.921  12.792  19.874  0.00  0.00    +0.000 A 
ATOM      8  S   UNL     1      -1.081  12.814  21.376  0.00  0.00    +0.000 S 
ATOM      9  H   UNL     1       0.446  11.210  22.860  0.00  0.00    +0.000 HD
ENDROOT
BRANCH   6  10
ATOM     10  C   UNL     1      -2.462  11.132  18.062  0.00  0.00    +0.000 A 
ATOM     11  C   UNL     1      -3.748  11.633  17.790  0.00  0.00    +0.000 A 
ATOM     12  C   UNL     1      -4.422  11.273  16.620  0.00  0.00    +0.000 A 
ATOM     13  C   UNL     1      -3.816  10.405  15.720  0.00  0.00    +0.000 A 
ATOM     14  F   UNL     1      -4.458  10.065  14.597  0.00  0.00    +0.000 F 
ATOM     15  C   UNL     1      -2.550   9.893  15.988  0.00  0.00    +0.000 A 
ATOM     16  F   UNL     1      -1.961   9.053  15.129  0.00  0.00    +0.000 F 
ATOM     17  C   UNL     1      -1.871  10.248  17.151  0.00  0.00    +0.000 A 
ENDBRANCH   6  10
BRANCH   2  18
ATOM     18  C   UNL     1       1.183   8.977  20.399  0.00  0.00    +0.000 C 
BRANCH  18  19
ATOM     19  O   UNL     1       1.736   7.663  20.415  0.00  0.00    +0.000 OA
BRANCH  19  20
ATOM     20  C   UNL     1       2.237   7.243  19.221  0.00  0.00    +0.000 C 
ATOM     21  O   UNL     1       2.681   7.966  18.342  0.00  0.00    +0.000 OA
BRANCH  20  22
ATOM     22  C   UNL     1       2.197   5.728  19.169  0.00  0.00    +0.000 C 
ATOM     23  C   UNL     1       2.190   5.235  17.716  0.00  0.00    +0.000 C 
ATOM     24  C   UNL     1       3.428   4.484  17.228  0.00  0.00    +0.000 C 
ATOM     25  C   UNL     1       4.579   5.375  16.763  0.00  0.00    +0.000 C 
ATOM     26  C   UNL     1       5.528   5.915  17.833  0.00  0.00    +0.000 C 
ATOM     27  C   UNL     1       5.593   5.169  19.167  0.00  0.00    +0.000 C 
ATOM     28  C   UNL     1       4.379   4.327  19.550  0.00  0.00    +0.000 C 
ATOM     29  C   UNL     1       3.209   5.108  20.148  0.00  0.00    +0.000 C 
ATOM     30  C   UNL     1       3.906   3.587  18.333  0.00  0.00    +0.000 C 
ATOM     31  O   UNL     1       3.885   2.363  18.263  0.00  0.00    +0.000 OA
ENDBRANCH  20  22
ENDBRANCH  19  20
ENDBRANCH  18  19
ENDBRANCH   2  18
TORSDOF 5
ENDMDL
MODEL 4
REMARK VINA RESULT:      -8.2      0.846      1.676
REMARK  Name = 
REMARK  5 active torsions:
REMARK  status: ('A' for Active; 'I' for Inactive)
REMARK    1  A    between atoms: C_2  and  C_3
REMARK    2  A    between atoms: C_3  and  O_4
REMARK    3  A    between atoms: O_4  and  C_5
REMARK    4  A    between atoms: C_5  and  C_7
REMARK    5  A    between atoms: C_20  and  C_21
REMARK                            x       y       z     vdW  Elec       q    Type
REMARK                         _______ _______ _______ _____ _____    ______ ____
ROOT
ATOM      1  O   UNL     1       1.800   8.859  22.728  0.00  0.00    +0.000 OA
ATOM      2  C   UNL     1       1.127   9.310  21.795  0.00  0.00    +0.000 C 
ATOM      3  N   UNL     1       0.450  10.484  21.985  0.00  0.00    +0.000 N 
ATOM      4  C   UNL     1      -0.356  11.074  21.060  0.00  0.00    +0.000 A 
ATOM      5  N   UNL     1      -0.836  10.555  19.961  0.00  0.00    +0.000 NA
ATOM      6  C   UNL     1      -1.590  11.499  19.287  0.00  0.00    +0.000 A 
ATOM      7  C   UNL     1      -1.611  12.749  19.879  0.00  0.00    +0.000 A 
ATOM      8  S   UNL     1      -0.768  12.695  21.379  0.00  0.00    +0.000 S 
ATOM      9  H   UNL     1       0.601  10.955  22.865  0.00  0.00    +0.000 HD
ENDROOT
BRANCH   6  10
ATOM     10  C   UNL     1      -2.316  11.143  18.075  0.00  0.00    +0.000 A 
ATOM     11  C   UNL     1      -1.705  10.294  17.134  0.00  0.00    +0.000 A 
ATOM     12  C   UNL     1      -2.384   9.910  15.974  0.00  0.00    +0.000 A 
ATOM     13  C   UNL     1      -3.672  10.376  15.748  0.00  0.00    +0.000 A 
ATOM     14  F   UNL     1      -4.325  10.002  14.642  0.00  0.00    +0.000 F 
ATOM     15  C   UNL     1      -4.279  11.227  16.668  0.00  0.00    +0.000 A 
ATOM     16  F   UNL     1      -5.519  11.684  16.455  0.00  0.00    +0.000 F 
ATOM     17  C   UNL     1      -3.609  11.614  17.826  0.00  0.00    +0.000 A 
ENDBRANCH   6  10
BRANCH   2  18
ATOM     18  C   UNL     1       1.111   8.653  20.410  0.00  0.00    +0.000 C 
BRANCH  18  19
ATOM     19  O   UNL     1       2.222   7.788  20.186  0.00  0.00    +0.000 OA
BRANCH  19  20
ATOM     20  C   UNL     1       2.259   7.221  18.950  0.00  0.00    +0.000 C 
ATOM     21  O   UNL     1       2.372   7.823  17.893  0.00  0.00    +0.000 OA
BRANCH  20  22
ATOM     22  C   UNL     1       2.182   5.713  19.091  0.00  0.00    +0.000 C 
ATOM     23  C   UNL     1       2.153   5.039  17.712  0.00  0.00    +0.000 C 
ATOM     24  C   UNL     1       3.369   4.202  17.319  0.00  0.00    +0.000 C 
ATOM     25  C   UNL     1       4.538   4.998  16.741  0.00  0.00    +0.000 C 
ATOM     26  C   UNL     1       5.507   5.645  17.730  0.00  0.00    +0.000 C 
ATOM     27  C   UNL     1       5.563   5.074  19.147  0.00  0.00    +0.000 C 
ATOM     28  C   UNL     1       4.332   4.318  19.639  0.00  0.00    +0.000 C 
ATOM     29  C   UNL     1       3.185   5.197  20.138  0.00  0.00    +0.000 C 
ATOM     30  C   UNL     1       3.832   3.441  18.528  0.00  0.00    +0.000 C 
ATOM     31  O   UNL     1       3.781   2.218  18.614  0.00  0.00    +0.000 OA
ENDBRANCH  20  22
ENDBRANCH  19  20
ENDBRANCH  18  19
ENDBRANCH   2  18
TORSDOF 5
ENDMDL
MODEL 5
REMARK VINA RESULT:      -8.2      1.364      2.307
REMARK  Name = 
REMARK  5 active torsions:
REMARK  status: ('A' for Active; 'I' for Inactive)
REMARK    1  A    between atoms: C_2  and  C_3
REMARK    2  A    between atoms: C_3  and  O_4
REMARK    3  A    between atoms: O_4  and  C_5
REMARK    4  A    between atoms: C_5  and  C_7
REMARK    5  A    between atoms: C_20  and  C_21
REMARK                            x       y       z     vdW  Elec       q    Type
REMARK                         _______ _______ _______ _____ _____    ______ ____
ROOT
ATOM      1  O   UNL     1       1.874   8.693  22.434  0.00  0.00    +0.000 OA
ATOM      2  C   UNL     1       1.178   9.179  21.536  0.00  0.00    +0.000 C 
ATOM      3  N   UNL     1       0.550  10.373  21.768  0.00  0.00    +0.000 N 
ATOM      4  C   UNL     1      -0.274  11.002  20.886  0.00  0.00    +0.000 A 
ATOM      5  N   UNL     1      -0.818  10.514  19.802  0.00  0.00    +0.000 NA
ATOM      6  C   UNL     1      -1.566  11.491  19.172  0.00  0.00    +0.000 A 
ATOM      7  C   UNL     1      -1.520  12.733  19.780  0.00  0.00    +0.000 A 
ATOM      8  S   UNL     1      -0.616  12.630  21.242  0.00  0.00    +0.000 S 
ATOM      9  H   UNL     1       0.754  10.827  22.647  0.00  0.00    +0.000 HD
ENDROOT
BRANCH   6  10
ATOM     10  C   UNL     1      -2.355  11.176  17.989  0.00  0.00    +0.000 A 
ATOM     11  C   UNL     1      -1.798  10.352  16.993  0.00  0.00    +0.000 A 
ATOM     12  C   UNL     1      -2.537  10.007  15.859  0.00  0.00    +0.000 A 
ATOM     13  C   UNL     1      -3.832  10.487  15.711  0.00  0.00    +0.000 A 
ATOM     14  F   UNL     1      -4.542  10.150  14.629  0.00  0.00    +0.000 F 
ATOM     15  C   UNL     1      -4.385  11.314  16.685  0.00  0.00    +0.000 A 
ATOM     16  F   UNL     1      -5.631  11.784  16.549  0.00  0.00    +0.000 F 
ATOM     17  C   UNL     1      -3.656  11.662  17.819  0.00  0.00    +0.000 A 
ENDBRANCH   6  10
BRANCH   2  18
ATOM     18  C   UNL     1       1.080   8.541  20.146  0.00  0.00    +0.000 C 
BRANCH  18  19
ATOM     19  O   UNL     1       2.300   7.941  19.716  0.00  0.00    +0.000 OA
BRANCH  19  20
ATOM     20  C   UNL     1       2.241   6.592  19.549  0.00  0.00    +0.000 C 
ATOM     21  O   UNL     1       1.940   5.781  20.411  0.00  0.00    +0.000 OA
BRANCH  20  22
ATOM     22  C   UNL     1       2.565   6.254  18.107  0.00  0.00    +0.000 C 
ATOM     23  C   UNL     1       3.794   7.040  17.629  0.00  0.00    +0.000 C 
ATOM     24  C   UNL     1       5.061   6.240  17.329  0.00  0.00    +0.000 C 
ATOM     25  C   UNL     1       5.924   5.922  18.548  0.00  0.00    +0.000 C 
ATOM     26  C   UNL     1       5.543   4.697  19.381  0.00  0.00    +0.000 C 
ATOM     27  C   UNL     1       4.694   3.617  18.709  0.00  0.00    +0.000 C 
ATOM     28  C   UNL     1       3.846   4.046  17.514  0.00  0.00    +0.000 C 
ATOM     29  C   UNL     1       2.528   4.735  17.866  0.00  0.00    +0.000 C 
ATOM     30  C   UNL     1       4.664   4.961  16.650  0.00  0.00    +0.000 C 
ATOM     31  O   UNL     1       4.955   4.697  15.487  0.00  0.00    +0.000 OA
ENDBRANCH  20  22
ENDBRANCH  19  20
ENDBRANCH  18  19
ENDBRANCH   2  18
TORSDOF 5
ENDMDL
MODEL 6
REMARK VINA RESULT:      -8.0      4.860      9.105
REMARK  Name = 
REMARK  5 active torsions:
REMARK  status: ('A' for Active; 'I' for Inactive)
REMARK    1  A    between atoms: C_2  and  C_3
REMARK    2  A    between atoms: C_3  and  O_4
REMARK    3  A    between atoms: O_4  and  C_5
REMARK    4  A    between atoms: C_5  and  C_7
REMARK    5  A    between atoms: C_20  and  C_21
REMARK                            x       y       z     vdW  Elec       q    Type
REMARK                         _______ _______ _______ _____ _____    ______ ____
ROOT
ATOM      1  O   UNL     1       1.194   6.756  21.232  0.00  0.00    +0.000 OA
ATOM      2  C   UNL     1       1.839   6.315  20.275  0.00  0.00    +0.000 C 
ATOM      3  N   UNL     1       2.100   4.972  20.224  0.00  0.00    +0.000 N 
ATOM      4  C   UNL     1       2.829   4.359  19.252  0.00  0.00    +0.000 A 
ATOM      5  N   UNL     1       3.605   4.911  18.357  0.00  0.00    +0.000 NA
ATOM      6  C   UNL     1       4.140   3.935  17.535  0.00  0.00    +0.000 A 
ATOM      7  C   UNL     1       3.698   2.652  17.802  0.00  0.00    +0.000 A 
ATOM      8  S   UNL     1       2.687   2.664  19.195  0.00  0.00    +0.000 S 
ATOM      9  H   UNL     1       1.682   4.404  20.947  0.00  0.00    +0.000 HD
ENDROOT
BRANCH   6  10
ATOM     10  C   UNL     1       5.118   4.281  16.512  0.00  0.00    +0.000 A 
ATOM     11  C   UNL     1       6.125   5.216  16.813  0.00  0.00    +0.000 A 
ATOM     12  C   UNL     1       7.095   5.549  15.864  0.00  0.00    +0.000 A 
ATOM     13  C   UNL     1       7.060   4.954  14.610  0.00  0.00    +0.000 A 
ATOM     14  F   UNL     1       7.993   5.267  13.704  0.00  0.00    +0.000 F 
ATOM     15  C   UNL     1       6.059   4.037  14.299  0.00  0.00    +0.000 A 
ATOM     16  F   UNL     1       6.016   3.462  13.092  0.00  0.00    +0.000 F 
ATOM     17  C   UNL     1       5.089   3.699  15.240  0.00  0.00    +0.000 A 
ENDBRANCH   6  10
BRANCH   2  18
ATOM     18  C   UNL     1       2.264   7.204  19.101  0.00  0.00    +0.000 C 
BRANCH  18  19
ATOM     19  O   UNL     1       2.241   8.595  19.413  0.00  0.00    +0.000 OA
BRANCH  19  20
ATOM     20  C   UNL     1       1.454   9.347  18.596  0.00  0.00    +0.000 C 
ATOM     21  O   UNL     1       1.729   9.680  17.453  0.00  0.00    +0.000 OA
BRANCH  20  22
ATOM     22  C   UNL     1       0.158   9.670  19.312  0.00  0.00    +0.000 C 
ATOM     23  C   UNL     1       0.436  10.197  20.726  0.00  0.00    +0.000 C 
ATOM     24  C   UNL     1       0.095  11.660  21.005  0.00  0.00    +0.000 C 
ATOM     25  C   UNL     1       1.168  12.662  20.581  0.00  0.00    +0.000 C 
ATOM     26  C   UNL     1       1.174  13.111  19.119  0.00  0.00    +0.000 C 
ATOM     27  C   UNL     1      -0.121  12.954  18.323  0.00  0.00    +0.000 C 
ATOM     28  C   UNL     1      -1.116  11.906  18.815  0.00  0.00    +0.000 C 
ATOM     29  C   UNL     1      -0.798  10.467  18.408  0.00  0.00    +0.000 C 
ATOM     30  C   UNL     1      -1.196  11.987  20.311  0.00  0.00    +0.000 C 
ATOM     31  O   UNL     1      -2.229  12.267  20.910  0.00  0.00    +0.000 OA
ENDBRANCH  20  22
ENDBRANCH  19  20
ENDBRANCH  18  19
ENDBRANCH   2  18
TORSDOF 5
ENDMDL
MODEL 7
REMARK VINA RESULT:      -7.9      4.774      9.025
REMARK  Name = 
REMARK  5 active torsions:
REMARK  status: ('A' for Active; 'I' for Inactive)
REMARK    1  A    between atoms: C_2  and  C_3
REMARK    2  A    between atoms: C_3  and  O_4
REMARK    3  A    between atoms: O_4  and  C_5
REMARK    4  A    between atoms: C_5  and  C_7
REMARK    5  A    between atoms: C_20  and  C_21
REMARK                            x       y       z     vdW  Elec       q    Type
REMARK                         _______ _______ _______ _____ _____    ______ ____
ROOT
ATOM      1  O   UNL     1       0.671   9.167  21.614  0.00  0.00    +0.000 OA
ATOM      2  C   UNL     1       1.219   8.439  20.779  0.00  0.00    +0.000 C 
ATOM      3  N   UNL     1       1.496   7.143  21.123  0.00  0.00    +0.000 N 
ATOM      4  C   UNL     1       2.127   6.244  20.319  0.00  0.00    +0.000 A 
ATOM      5  N   UNL     1       2.793   6.476  19.219  0.00  0.00    +0.000 NA
ATOM      6  C   UNL     1       3.254   5.283  18.691  0.00  0.00    +0.000 A 
ATOM      7  C   UNL     1       2.866   4.155  19.390  0.00  0.00    +0.000 A 
ATOM      8  S   UNL     1       2.010   4.619  20.810  0.00  0.00    +0.000 S 
ATOM      9  H   UNL     1       1.168   6.836  22.027  0.00  0.00    +0.000 HD
ENDROOT
BRANCH   6  10
ATOM     10  C   UNL     1       4.110   5.275  17.512  0.00  0.00    +0.000 A 
ATOM     11  C   UNL     1       4.420   6.493  16.880  0.00  0.00    +0.000 A 
ATOM     12  C   UNL     1       5.260   6.524  15.764  0.00  0.00    +0.000 A 
ATOM     13  C   UNL     1       5.791   5.338  15.272  0.00  0.00    +0.000 A 
ATOM     14  F   UNL     1       6.602   5.369  14.209  0.00  0.00    +0.000 F 
ATOM     15  C   UNL     1       5.479   4.127  15.883  0.00  0.00    +0.000 A 
ATOM     16  F   UNL     1       5.982   2.980  15.413  0.00  0.00    +0.000 F 
ATOM     17  C   UNL     1       4.642   4.088  16.996  0.00  0.00    +0.000 A 
ENDBRANCH   6  10
BRANCH   2  18
ATOM     18  C   UNL     1       1.499   8.909  19.348  0.00  0.00    +0.000 C 
BRANCH  18  19
ATOM     19  O   UNL     1       0.628   9.953  18.918  0.00  0.00    +0.000 OA
BRANCH  19  20
ATOM     20  C   UNL     1       1.231  11.161  18.747  0.00  0.00    +0.000 C 
ATOM     21  O   UNL     1       2.268  11.357  18.132  0.00  0.00    +0.000 OA
BRANCH  20  22
ATOM     22  C   UNL     1       0.388  12.236  19.403  0.00  0.00    +0.000 C 
ATOM     23  C   UNL     1       0.863  12.498  20.839  0.00  0.00    +0.000 C 
ATOM     24  C   UNL     1       1.500  13.857  21.127  0.00  0.00    +0.000 C 
ATOM     25  C   UNL     1       2.983  13.959  20.775  0.00  0.00    +0.000 C 
ATOM     26  C   UNL     1       3.342  14.280  19.324  0.00  0.00    +0.000 C 
ATOM     27  C   UNL     1       2.276  14.955  18.461  0.00  0.00    +0.000 C 
ATOM     28  C   UNL     1       0.821  14.768  18.883  0.00  0.00    +0.000 C 
ATOM     29  C   UNL     1       0.189  13.440  18.467  0.00  0.00    +0.000 C 
ATOM     30  C   UNL     1       0.734  14.907  20.375  0.00  0.00    +0.000 C 
ATOM     31  O   UNL     1       0.074  15.783  20.926  0.00  0.00    +0.000 OA
ENDBRANCH  20  22
ENDBRANCH  19  20
ENDBRANCH  18  19
ENDBRANCH   2  18
TORSDOF 5
ENDMDL
MODEL 8
REMARK VINA RESULT:      -7.9      4.647      9.045
REMARK  Name = 
REMARK  5 active torsions:
REMARK  status: ('A' for Active; 'I' for Inactive)
REMARK    1  A    between atoms: C_2  and  C_3
REMARK    2  A    between atoms: C_3  and  O_4
REMARK    3  A    between atoms: O_4  and  C_5
REMARK    4  A    between atoms: C_5  and  C_7
REMARK    5  A    between atoms: C_20  and  C_21
REMARK                            x       y       z     vdW  Elec       q    Type
REMARK                         _______ _______ _______ _____ _____    ______ ____
ROOT
ATOM      1  O   UNL     1       0.994   7.976  21.596  0.00  0.00    +0.000 OA
ATOM      2  C   UNL     1       1.653   7.376  20.740  0.00  0.00    +0.000 C 
ATOM      3  N   UNL     1       1.876   6.036  20.908  0.00  0.00    +0.000 N 
ATOM      4  C   UNL     1       2.613   5.260  20.066  0.00  0.00    +0.000 A 
ATOM      5  N   UNL     1       3.428   5.646  19.121  0.00  0.00    +0.000 NA
ATOM      6  C   UNL     1       3.957   4.542  18.478  0.00  0.00    +0.000 A 
ATOM      7  C   UNL     1       3.472   3.326  18.927  0.00  0.00    +0.000 A 
ATOM      8  S   UNL     1       2.424   3.581  20.270  0.00  0.00    +0.000 S 
ATOM      9  H   UNL     1       1.422   5.598  21.696  0.00  0.00    +0.000 HD
ENDROOT
BRANCH   6  10
ATOM     10  C   UNL     1       4.972   4.699  17.445  0.00  0.00    +0.000 A 
ATOM     11  C   UNL     1       4.965   3.830  16.338  0.00  0.00    +0.000 A 
ATOM     12  C   UNL     1       5.906   3.970  15.315  0.00  0.00    +0.000 A 
ATOM     13  C   UNL     1       6.862   4.975  15.396  0.00  0.00    +0.000 A 
ATOM     14  F   UNL     1       7.758   5.114  14.413  0.00  0.00    +0.000 F 
ATOM     15  C   UNL     1       6.884   5.830  16.494  0.00  0.00    +0.000 A 
ATOM     16  F   UNL     1       7.804   6.799  16.582  0.00  0.00    +0.000 F 
ATOM     17  C   UNL     1       5.949   5.697  17.517  0.00  0.00    +0.000 A 
ENDBRANCH   6  10
BRANCH   2  18
ATOM     18  C   UNL     1       2.134   8.059  19.456  0.00  0.00    +0.000 C 
BRANCH  18  19
ATOM     19  O   UNL     1       1.068   8.565  18.655  0.00  0.00    +0.000 OA
BRANCH  19  20
ATOM     20  C   UNL     1       0.930   9.918  18.683  0.00  0.00    +0.000 C 
ATOM     21  O   UNL     1       1.787  10.728  18.366  0.00  0.00    +0.000 OA
BRANCH  20  22
ATOM     22  C   UNL     1      -0.477  10.266  19.129  0.00  0.00    +0.000 C 
ATOM     23  C   UNL     1      -0.495  10.654  20.615  0.00  0.00    +0.000 C 
ATOM     24  C   UNL     1      -0.821  12.108  20.952  0.00  0.00    +0.000 C 
ATOM     25  C   UNL     1       0.364  13.068  20.868  0.00  0.00    +0.000 C 
ATOM     26  C   UNL     1       0.715  13.636  19.492  0.00  0.00    +0.000 C 
ATOM     27  C   UNL     1      -0.378  13.632  18.423  0.00  0.00    +0.000 C 
ATOM     28  C   UNL     1      -1.504  12.615  18.585  0.00  0.00    +0.000 C 
ATOM     29  C   UNL     1      -1.171  11.197  18.120  0.00  0.00    +0.000 C 
ATOM     30  C   UNL     1      -1.910  12.576  20.029  0.00  0.00    +0.000 C 
ATOM     31  O   UNL     1      -3.036  12.873  20.414  0.00  0.00    +0.000 OA
ENDBRANCH  20  22
ENDBRANCH  19  20
ENDBRANCH  18  19
ENDBRANCH   2  18
TORSDOF 5
ENDMDL
MODEL 9
REMARK VINA RESULT:      -7.9      4.597      8.994
REMARK  Name = 
REMARK  5 active torsions:
REMARK  status: ('A' for Active; 'I' for Inactive)
REMARK    1  A    between atoms: C_2  and  C_3
REMARK    2  A    between atoms: C_3  and  O_4
REMARK    3  A    between atoms: O_4  and  C_5
REMARK    4  A    between atoms: C_5  and  C_7
REMARK    5  A    between atoms: C_20  and  C_21
REMARK                            x       y       z     vdW  Elec       q    Type
REMARK                         _______ _______ _______ _____ _____    ______ ____
ROOT
ATOM      1  O   UNL     1       1.206   7.731  21.420  0.00  0.00    +0.000 OA
ATOM      2  C   UNL     1       1.843   7.151  20.535  0.00  0.00    +0.000 C 
ATOM      3  N   UNL     1       2.222   5.852  20.745  0.00  0.00    +0.000 N 
ATOM      4  C   UNL     1       2.956   5.106  19.875  0.00  0.00    +0.000 A 
ATOM      5  N   UNL     1       3.636   5.515  18.837  0.00  0.00    +0.000 NA
ATOM      6  C   UNL     1       4.218   4.433  18.202  0.00  0.00    +0.000 A 
ATOM      7  C   UNL     1       3.906   3.204  18.755  0.00  0.00    +0.000 A 
ATOM      8  S   UNL     1       2.965   3.431  20.179  0.00  0.00    +0.000 S 
ATOM      9  H   UNL     1       1.891   5.418  21.595  0.00  0.00    +0.000 HD
ENDROOT
BRANCH   6  10
ATOM     10  C   UNL     1       5.111   4.630  17.068  0.00  0.00    +0.000 A 
ATOM     11  C   UNL     1       6.331   5.302  17.264  0.00  0.00    +0.000 A 
ATOM     12  C   UNL     1       7.223   5.484  16.204  0.00  0.00    +0.000 A 
ATOM     13  C   UNL     1       6.898   5.000  14.943  0.00  0.00    +0.000 A 
ATOM     14  F   UNL     1       7.756   5.166  13.931  0.00  0.00    +0.000 F 
ATOM     15  C   UNL     1       5.687   4.345  14.738  0.00  0.00    +0.000 A 
ATOM     16  F   UNL     1       5.364   3.879  13.525  0.00  0.00    +0.000 F 
ATOM     17  C   UNL     1       4.792   4.160  15.789  0.00  0.00    +0.000 A 
ENDBRANCH   6  10
BRANCH   2  18
ATOM     18  C   UNL     1       2.130   7.802  19.177  0.00  0.00    +0.000 C 
BRANCH  18  19
ATOM     19  O   UNL     1       1.133   8.741  18.783  0.00  0.00    +0.000 OA
BRANCH  19  20
ATOM     20  C   UNL     1       1.590  10.009  18.597  0.00  0.00    +0.000 C 
ATOM     21  O   UNL     1       2.165  10.419  17.601  0.00  0.00    +0.000 OA
BRANCH  20  22
ATOM     22  C   UNL     1       1.231  10.850  19.807  0.00  0.00    +0.000 C 
ATOM     23  C   UNL     1       1.486  12.338  19.529  0.00  0.00    +0.000 C 
ATOM     24  C   UNL     1       0.265  13.253  19.451  0.00  0.00    +0.000 C 
ATOM     25  C   UNL     1      -0.438  13.273  18.095  0.00  0.00    +0.000 C 
ATOM     26  C   UNL     1      -1.453  12.166  17.811  0.00  0.00    +0.000 C 
ATOM     27  C   UNL     1      -2.065  11.439  19.010  0.00  0.00    +0.000 C 
ATOM     28  C   UNL     1      -1.269  11.456  20.312  0.00  0.00    +0.000 C 
ATOM     29  C   UNL     1      -0.131  10.438  20.391  0.00  0.00    +0.000 C 
ATOM     30  C   UNL     1      -0.710  12.834  20.513  0.00  0.00    +0.000 C 
ATOM     31  O   UNL     1      -1.003  13.539  21.474  0.00  0.00    +0.000 OA
ENDBRANCH  20  22
ENDBRANCH  19  20
ENDBRANCH  18  19
ENDBRANCH   2  18
TORSDOF 5
ENDMDL
