MODEL 1
REMARK VINA RESULT:      -6.4      0.000      0.000
REMARK  Name = 
REMARK  6 active torsions:
REMARK  status: ('A' for Active; 'I' for Inactive)
REMARK    1  A    between atoms: C_2  and  C_3
REMARK    2  A    between atoms: C_2  and  C_13
REMARK    3  A    between atoms: C_3  and  N_4
REMARK    4  A    between atoms: N_4  and  N_5
REMARK    5  A    between atoms: N_4  and  C_6
REMARK    6  A    between atoms: C_6  and  C_7
REMARK                            x       y       z     vdW  Elec       q    Type
REMARK                         _______ _______ _______ _____ _____    ______ ____
ROOT
ATOM      1  N   UNL     1       4.691   6.104  16.620  0.00  0.00    +0.000 NA
ENDROOT
BRANCH   1   2
ATOM      2  N   UNL     1       5.267   6.669  15.387  0.00  0.00    +0.000 NA
ATOM      3  H   UNL     1       5.169   7.686  15.384  0.00  0.00    +0.000 HD
ATOM      4  H   UNL     1       4.691   6.360  14.596  0.00  0.00    +0.000 HD
ENDBRANCH   1   2
BRANCH   1   5
ATOM      5  C   UNL     1       4.416   7.206  17.580  0.00  0.00    +0.000 C 
BRANCH   5   7
ATOM      6  C   UNL     1       2.202   8.466  17.693  0.00  0.00    +0.000 C 
ATOM      7  C   UNL     1       2.944   7.371  17.937  0.00  0.00    +0.000 C 
BRANCH   7   8
ATOM      8  C   UNL     1       2.312   6.268  18.677  0.00  0.00    +0.000 A 
ATOM      9  C   UNL     1       2.401   6.208  20.075  0.00  0.00    +0.000 A 
ATOM     10  C   UNL     1       1.852   5.124  20.768  0.00  0.00    +0.000 A 
ATOM     11  C   UNL     1       1.222   4.109  20.063  0.00  0.00    +0.000 A 
ATOM     12  F   UNL     1       0.709   3.064  20.728  0.00  0.00    +0.000 F 
ATOM     13  C   UNL     1       1.122   4.150  18.677  0.00  0.00    +0.000 A 
ATOM     14  C   UNL     1       1.668   5.231  17.982  0.00  0.00    +0.000 A 
ENDBRANCH   7   8
ENDBRANCH   5   7
ENDBRANCH   1   5
BRANCH   1  15
ATOM     15  C   UNL     1       5.666   5.152  17.215  0.00  0.00    +0.000 C 
BRANCH  15  16
ATOM     16  C   UNL     1       5.011   3.941  17.859  0.00  0.00    +0.000 A 
ATOM     17  C   UNL     1       4.275   3.033  17.081  0.00  0.00    +0.000 A 
ATOM     18  C   UNL     1       3.629   1.947  17.675  0.00  0.00    +0.000 A 
ATOM     19  C   UNL     1       3.713   1.754  19.052  0.00  0.00    +0.000 A 
ATOM     20  C   UNL     1       4.454   2.638  19.835  0.00  0.00    +0.000 A 
ATOM     21  C   UNL     1       5.102   3.725  19.242  0.00  0.00    +0.000 A 
ENDBRANCH  15  16
ENDBRANCH   1  15
TORSDOF 6
ENDMDL
MODEL 2
REMARK VINA RESULT:      -6.4      0.092      1.571
REMARK  Name = 
REMARK  6 active torsions:
REMARK  status: ('A' for Active; 'I' for Inactive)
REMARK    1  A    between atoms: C_2  and  C_3
REMARK    2  A    between atoms: C_2  and  C_13
REMARK    3  A    between atoms: C_3  and  N_4
REMARK    4  A    between atoms: N_4  and  N_5
REMARK    5  A    between atoms: N_4  and  C_6
REMARK    6  A    between atoms: C_6  and  C_7
REMARK                            x       y       z     vdW  Elec       q    Type
REMARK                         _______ _______ _______ _____ _____    ______ ____
ROOT
ATOM      1  N   UNL     1       4.653   6.120  16.629  0.00  0.00    +0.000 NA
ENDROOT
BRANCH   1   2
ATOM      2  N   UNL     1       5.278   6.653  15.406  0.00  0.00    +0.000 NA
ATOM      3  H   UNL     1       6.295   6.670  15.506  0.00  0.00    +0.000 HD
ATOM      4  H   UNL     1       5.020   7.643  15.321  0.00  0.00    +0.000 HD
ENDBRANCH   1   2
BRANCH   1   5
ATOM      5  C   UNL     1       4.334   7.247  17.545  0.00  0.00    +0.000 C 
BRANCH   5   7
ATOM      6  C   UNL     1       2.060   8.379  17.771  0.00  0.00    +0.000 C 
ATOM      7  C   UNL     1       2.870   7.322  17.960  0.00  0.00    +0.000 C 
BRANCH   7   8
ATOM      8  C   UNL     1       2.327   6.167  18.693  0.00  0.00    +0.000 A 
ATOM      9  C   UNL     1       1.643   5.152  18.010  0.00  0.00    +0.000 A 
ATOM     10  C   UNL     1       1.075   4.088  18.720  0.00  0.00    +0.000 A 
ATOM     11  C   UNL     1       1.190   4.048  20.101  0.00  0.00    +0.000 A 
ATOM     12  F   UNL     1       0.632   3.036  20.781  0.00  0.00    +0.000 F 
ATOM     13  C   UNL     1       1.865   5.045  20.797  0.00  0.00    +0.000 A 
ATOM     14  C   UNL     1       2.435   6.107  20.092  0.00  0.00    +0.000 A 
ENDBRANCH   7   8
ENDBRANCH   5   7
ENDBRANCH   1   5
BRANCH   1  15
ATOM     15  C   UNL     1       5.605   5.190  17.290  0.00  0.00    +0.000 C 
BRANCH  15  16
ATOM     16  C   UNL     1       4.931   3.973  17.905  0.00  0.00    +0.000 A 
ATOM     17  C   UNL     1       5.049   3.714  19.279  0.00  0.00    +0.000 A 
ATOM     18  C   UNL     1       4.476   2.571  19.840  0.00  0.00    +0.000 A 
ATOM     19  C   UNL     1       3.776   1.676  19.034  0.00  0.00    +0.000 A 
ATOM     20  C   UNL     1       3.636   1.929  17.671  0.00  0.00    +0.000 A 
ATOM     21  C   UNL     1       4.208   3.073  17.108  0.00  0.00    +0.000 A 
ENDBRANCH  15  16
ENDBRANCH   1  15
TORSDOF 6
ENDMDL
MODEL 3
REMARK VINA RESULT:      -6.3      2.746      3.867
REMARK  Name = 
REMARK  6 active torsions:
REMARK  status: ('A' for Active; 'I' for Inactive)
REMARK    1  A    between atoms: C_2  and  C_3
REMARK    2  A    between atoms: C_2  and  C_13
REMARK    3  A    between atoms: C_3  and  N_4
REMARK    4  A    between atoms: N_4  and  N_5
REMARK    5  A    between atoms: N_4  and  C_6
REMARK    6  A    between atoms: C_6  and  C_7
REMARK                            x       y       z     vdW  Elec       q    Type
REMARK                         _______ _______ _______ _____ _____    ______ ____
ROOT
ATOM      1  N   UNL     1       6.314   6.267  16.578  0.00  0.00    +0.000 NA
ENDROOT
BRANCH   1   2
ATOM      2  N   UNL     1       7.353   7.293  16.774  0.00  0.00    +0.000 NA
ATOM      3  H   UNL     1       6.954   8.120  17.223  0.00  0.00    +0.000 HD
ATOM      4  H   UNL     1       7.647   7.629  15.850  0.00  0.00    +0.000 HD
ENDBRANCH   1   2
BRANCH   1   5
ATOM      5  C   UNL     1       5.570   6.076  17.851  0.00  0.00    +0.000 C 
BRANCH   5   7
ATOM      6  C   UNL     1       3.481   7.510  17.559  0.00  0.00    +0.000 C 
ATOM      7  C   UNL     1       4.070   6.314  17.741  0.00  0.00    +0.000 C 
BRANCH   7   8
ATOM      8  C   UNL     1       3.196   5.144  17.924  0.00  0.00    +0.000 A 
ATOM      9  C   UNL     1       2.149   5.180  18.856  0.00  0.00    +0.000 A 
ATOM     10  C   UNL     1       1.361   4.044  19.071  0.00  0.00    +0.000 A 
ATOM     11  C   UNL     1       1.625   2.882  18.359  0.00  0.00    +0.000 A 
ATOM     12  F   UNL     1       0.879   1.791  18.577  0.00  0.00    +0.000 F 
ATOM     13  C   UNL     1       2.658   2.827  17.430  0.00  0.00    +0.000 A 
ATOM     14  C   UNL     1       3.446   3.960  17.212  0.00  0.00    +0.000 A 
ENDBRANCH   7   8
ENDBRANCH   5   7
ENDBRANCH   1   5
BRANCH   1  15
ATOM     15  C   UNL     1       6.967   4.991  16.182  0.00  0.00    +0.000 C 
BRANCH  15  16
ATOM     16  C   UNL     1       6.883   4.707  14.691  0.00  0.00    +0.000 A 
ATOM     17  C   UNL     1       5.973   3.760  14.197  0.00  0.00    +0.000 A 
ATOM     18  C   UNL     1       5.928   3.459  12.835  0.00  0.00    +0.000 A 
ATOM     19  C   UNL     1       6.790   4.103  11.950  0.00  0.00    +0.000 A 
ATOM     20  C   UNL     1       7.687   5.058  12.424  0.00  0.00    +0.000 A 
ATOM     21  C   UNL     1       7.734   5.361  13.787  0.00  0.00    +0.000 A 
ENDBRANCH  15  16
ENDBRANCH   1  15
TORSDOF 6
ENDMDL
MODEL 4
REMARK VINA RESULT:      -6.2      2.014      3.228
REMARK  Name = 
REMARK  6 active torsions:
REMARK  status: ('A' for Active; 'I' for Inactive)
REMARK    1  A    between atoms: C_2  and  C_3
REMARK    2  A    between atoms: C_2  and  C_13
REMARK    3  A    between atoms: C_3  and  N_4
REMARK    4  A    between atoms: N_4  and  N_5
REMARK    5  A    between atoms: N_4  and  C_6
REMARK    6  A    between atoms: C_6  and  C_7
REMARK                            x       y       z     vdW  Elec       q    Type
REMARK                         _______ _______ _______ _____ _____    ______ ____
ROOT
ATOM      1  N   UNL     1       4.431   3.630  17.040  0.00  0.00    +0.000 NA
ENDROOT
BRANCH   1   2
ATOM      2  N   UNL     1       5.509   3.299  16.091  0.00  0.00    +0.000 NA
ATOM      3  H   UNL     1       5.542   2.290  15.930  0.00  0.00    +0.000 HD
ATOM      4  H   UNL     1       6.407   3.508  16.543  0.00  0.00    +0.000 HD
ENDBRANCH   1   2
BRANCH   1   5
ATOM      5  C   UNL     1       4.861   4.773  17.887  0.00  0.00    +0.000 C 
BRANCH   5   7
ATOM      6  C   UNL     1       4.905   6.777  16.310  0.00  0.00    +0.000 C 
ATOM      7  C   UNL     1       4.404   6.135  17.380  0.00  0.00    +0.000 C 
BRANCH   7   8
ATOM      8  C   UNL     1       3.381   6.831  18.177  0.00  0.00    +0.000 A 
ATOM      9  C   UNL     1       2.861   8.060  17.745  0.00  0.00    +0.000 A 
ATOM     10  C   UNL     1       1.935   8.748  18.538  0.00  0.00    +0.000 A 
ATOM     11  C   UNL     1       1.539   8.208  19.753  0.00  0.00    +0.000 A 
ATOM     12  F   UNL     1       0.663   8.875  20.517  0.00  0.00    +0.000 F 
ATOM     13  C   UNL     1       2.043   6.990  20.198  0.00  0.00    +0.000 A 
ATOM     14  C   UNL     1       2.965   6.301  19.409  0.00  0.00    +0.000 A 
ENDBRANCH   7   8
ENDBRANCH   5   7
ENDBRANCH   1   5
BRANCH   1  15
ATOM     15  C   UNL     1       4.162   2.445  17.895  0.00  0.00    +0.000 C 
BRANCH  15  16
ATOM     16  C   UNL     1       3.085   2.688  18.942  0.00  0.00    +0.000 A 
ATOM     17  C   UNL     1       1.757   2.923  18.554  0.00  0.00    +0.000 A 
ATOM     18  C   UNL     1       0.775   3.197  19.508  0.00  0.00    +0.000 A 
ATOM     19  C   UNL     1       1.109   3.237  20.860  0.00  0.00    +0.000 A 
ATOM     20  C   UNL     1       2.420   2.989  21.260  0.00  0.00    +0.000 A 
ATOM     21  C   UNL     1       3.405   2.713  20.308  0.00  0.00    +0.000 A 
ENDBRANCH  15  16
ENDBRANCH   1  15
TORSDOF 6
ENDMDL
MODEL 5
REMARK VINA RESULT:      -6.1      2.957      5.728
REMARK  Name = 
REMARK  6 active torsions:
REMARK  status: ('A' for Active; 'I' for Inactive)
REMARK    1  A    between atoms: C_2  and  C_3
REMARK    2  A    between atoms: C_2  and  C_13
REMARK    3  A    between atoms: C_3  and  N_4
REMARK    4  A    between atoms: N_4  and  N_5
REMARK    5  A    between atoms: N_4  and  C_6
REMARK    6  A    between atoms: C_6  and  C_7
REMARK                            x       y       z     vdW  Elec       q    Type
REMARK                         _______ _______ _______ _____ _____    ______ ____
ROOT
ATOM      1  N   UNL     1       2.992   4.385  17.593  0.00  0.00    +0.000 NA
ENDROOT
BRANCH   1   2
ATOM      2  N   UNL     1       1.893   3.406  17.538  0.00  0.00    +0.000 NA
ATOM      3  H   UNL     1       2.013   2.782  16.738  0.00  0.00    +0.000 HD
ATOM      4  H   UNL     1       1.024   3.912  17.331  0.00  0.00    +0.000 HD
ENDBRANCH   1   2
BRANCH   1   5
ATOM      5  C   UNL     1       4.278   3.692  17.318  0.00  0.00    +0.000 C 
BRANCH   5   7
ATOM      6  C   UNL     1       5.384   4.360  15.120  0.00  0.00    +0.000 C 
ATOM      7  C   UNL     1       5.245   4.487  16.451  0.00  0.00    +0.000 C 
BRANCH   7   8
ATOM      8  C   UNL     1       6.151   5.416  17.147  0.00  0.00    +0.000 A 
ATOM      9  C   UNL     1       6.299   6.735  16.694  0.00  0.00    +0.000 A 
ATOM     10  C   UNL     1       7.208   7.594  17.321  0.00  0.00    +0.000 A 
ATOM     11  C   UNL     1       7.963   7.131  18.389  0.00  0.00    +0.000 A 
ATOM     12  F   UNL     1       8.844   7.952  18.978  0.00  0.00    +0.000 F 
ATOM     13  C   UNL     1       7.831   5.827  18.853  0.00  0.00    +0.000 A 
ATOM     14  C   UNL     1       6.923   4.967  18.231  0.00  0.00    +0.000 A 
ENDBRANCH   7   8
ENDBRANCH   5   7
ENDBRANCH   1   5
BRANCH   1  15
ATOM     15  C   UNL     1       3.029   4.992  18.949  0.00  0.00    +0.000 C 
BRANCH  15  16
ATOM     16  C   UNL     1       2.520   6.425  18.984  0.00  0.00    +0.000 A 
ATOM     17  C   UNL     1       2.634   7.248  17.853  0.00  0.00    +0.000 A 
ATOM     18  C   UNL     1       2.215   8.578  17.896  0.00  0.00    +0.000 A 
ATOM     19  C   UNL     1       1.675   9.102  19.068  0.00  0.00    +0.000 A 
ATOM     20  C   UNL     1       1.540   8.291  20.194  0.00  0.00    +0.000 A 
ATOM     21  C   UNL     1       1.958   6.959  20.153  0.00  0.00    +0.000 A 
ENDBRANCH  15  16
ENDBRANCH   1  15
TORSDOF 6
ENDMDL
MODEL 6
REMARK VINA RESULT:      -6.1      3.129      5.103
REMARK  Name = 
REMARK  6 active torsions:
REMARK  status: ('A' for Active; 'I' for Inactive)
REMARK    1  A    between atoms: C_2  and  C_3
REMARK    2  A    between atoms: C_2  and  C_13
REMARK    3  A    between atoms: C_3  and  N_4
REMARK    4  A    between atoms: N_4  and  N_5
REMARK    5  A    between atoms: N_4  and  C_6
REMARK    6  A    between atoms: C_6  and  C_7
REMARK                            x       y       z     vdW  Elec       q    Type
REMARK                         _______ _______ _______ _____ _____    ______ ____
ROOT
ATOM      1  N   UNL     1       5.257   4.679  19.001  0.00  0.00    +0.000 NA
ENDROOT
BRANCH   1   2
ATOM      2  N   UNL     1       5.436   3.336  19.578  0.00  0.00    +0.000 NA
ATOM      3  H   UNL     1       6.323   3.282  20.084  0.00  0.00    +0.000 HD
ATOM      4  H   UNL     1       5.549   2.669  18.806  0.00  0.00    +0.000 HD
ENDBRANCH   1   2
BRANCH   1   5
ATOM      5  C   UNL     1       6.482   5.484  19.249  0.00  0.00    +0.000 C 
BRANCH   5   7
ATOM      6  C   UNL     1       7.845   7.247  18.008  0.00  0.00    +0.000 C 
ATOM      7  C   UNL     1       7.046   6.165  18.008  0.00  0.00    +0.000 C 
BRANCH   7   8
ATOM      8  C   UNL     1       6.614   5.634  16.705  0.00  0.00    +0.000 A 
ATOM      9  C   UNL     1       5.556   6.237  16.009  0.00  0.00    +0.000 A 
ATOM     10  C   UNL     1       5.109   5.690  14.801  0.00  0.00    +0.000 A 
ATOM     11  C   UNL     1       5.717   4.549  14.299  0.00  0.00    +0.000 A 
ATOM     12  F   UNL     1       5.278   4.019  13.149  0.00  0.00    +0.000 F 
ATOM     13  C   UNL     1       6.769   3.938  14.974  0.00  0.00    +0.000 A 
ATOM     14  C   UNL     1       7.218   4.481  16.179  0.00  0.00    +0.000 A 
ENDBRANCH   7   8
ENDBRANCH   5   7
ENDBRANCH   1   5
BRANCH   1  15
ATOM     15  C   UNL     1       4.089   5.331  19.650  0.00  0.00    +0.000 C 
BRANCH  15  16
ATOM     16  C   UNL     1       2.823   4.491  19.596  0.00  0.00    +0.000 A 
ATOM     17  C   UNL     1       2.186   4.088  20.781  0.00  0.00    +0.000 A 
ATOM     18  C   UNL     1       1.053   3.274  20.738  0.00  0.00    +0.000 A 
ATOM     19  C   UNL     1       0.540   2.857  19.512  0.00  0.00    +0.000 A 
ATOM     20  C   UNL     1       1.152   3.263  18.328  0.00  0.00    +0.000 A 
ATOM     21  C   UNL     1       2.286   4.078  18.368  0.00  0.00    +0.000 A 
ENDBRANCH  15  16
ENDBRANCH   1  15
TORSDOF 6
ENDMDL
MODEL 7
REMARK VINA RESULT:      -6.0      3.099      5.473
REMARK  Name = 
REMARK  6 active torsions:
REMARK  status: ('A' for Active; 'I' for Inactive)
REMARK    1  A    between atoms: C_2  and  C_3
REMARK    2  A    between atoms: C_2  and  C_13
REMARK    3  A    between atoms: C_3  and  N_4
REMARK    4  A    between atoms: N_4  and  N_5
REMARK    5  A    between atoms: N_4  and  C_6
REMARK    6  A    between atoms: C_6  and  C_7
REMARK                            x       y       z     vdW  Elec       q    Type
REMARK                         _______ _______ _______ _____ _____    ______ ____
ROOT
ATOM      1  N   UNL     1       3.381   2.750  17.502  0.00  0.00    +0.000 NA
ENDROOT
BRANCH   1   2
ATOM      2  N   UNL     1       3.154   1.585  18.376  0.00  0.00    +0.000 NA
ATOM      3  H   UNL     1       2.677   1.873  19.233  0.00  0.00    +0.000 HD
ATOM      4  H   UNL     1       4.067   1.248  18.700  0.00  0.00    +0.000 HD
ENDBRANCH   1   2
BRANCH   1   5
ATOM      5  C   UNL     1       4.500   3.560  18.050  0.00  0.00    +0.000 C 
BRANCH   5   7
ATOM      6  C   UNL     1       5.422   3.860  15.691  0.00  0.00    +0.000 C 
ATOM      7  C   UNL     1       5.381   4.208  16.989  0.00  0.00    +0.000 C 
BRANCH   7   8
ATOM      8  C   UNL     1       6.316   5.249  17.447  0.00  0.00    +0.000 A 
ATOM      9  C   UNL     1       7.147   5.019  18.553  0.00  0.00    +0.000 A 
ATOM     10  C   UNL     1       7.988   6.034  19.022  0.00  0.00    +0.000 A 
ATOM     11  C   UNL     1       7.991   7.268  18.388  0.00  0.00    +0.000 A 
ATOM     12  F   UNL     1       8.787   8.243  18.847  0.00  0.00    +0.000 F 
ATOM     13  C   UNL     1       7.176   7.515  17.289  0.00  0.00    +0.000 A 
ATOM     14  C   UNL     1       6.336   6.504  16.818  0.00  0.00    +0.000 A 
ENDBRANCH   7   8
ENDBRANCH   5   7
ENDBRANCH   1   5
BRANCH   1  15
ATOM     15  C   UNL     1       2.141   3.569  17.461  0.00  0.00    +0.000 C 
BRANCH  15  16
ATOM     16  C   UNL     1       2.162   4.746  18.424  0.00  0.00    +0.000 A 
ATOM     17  C   UNL     1       1.784   4.574  19.765  0.00  0.00    +0.000 A 
ATOM     18  C   UNL     1       1.752   5.660  20.640  0.00  0.00    +0.000 A 
ATOM     19  C   UNL     1       2.102   6.930  20.188  0.00  0.00    +0.000 A 
ATOM     20  C   UNL     1       2.496   7.113  18.863  0.00  0.00    +0.000 A 
ATOM     21  C   UNL     1       2.529   6.027  17.985  0.00  0.00    +0.000 A 
ENDBRANCH  15  16
ENDBRANCH   1  15
TORSDOF 6
ENDMDL
MODEL 8
REMARK VINA RESULT:      -6.0      2.271      3.537
REMARK  Name = 
REMARK  6 active torsions:
REMARK  status: ('A' for Active; 'I' for Inactive)
REMARK    1  A    between atoms: C_2  and  C_3
REMARK    2  A    between atoms: C_2  and  C_13
REMARK    3  A    between atoms: C_3  and  N_4
REMARK    4  A    between atoms: N_4  and  N_5
REMARK    5  A    between atoms: N_4  and  C_6
REMARK    6  A    between atoms: C_6  and  C_7
REMARK                            x       y       z     vdW  Elec       q    Type
REMARK                         _______ _______ _______ _____ _____    ______ ____
ROOT
ATOM      1  N   UNL     1       5.303   4.231  18.346  0.00  0.00    +0.000 NA
ENDROOT
BRANCH   1   2
ATOM      2  N   UNL     1       6.760   4.073  18.191  0.00  0.00    +0.000 NA
ATOM      3  H   UNL     1       6.968   3.258  17.611  0.00  0.00    +0.000 HD
ATOM      4  H   UNL     1       7.154   3.833  19.108  0.00  0.00    +0.000 HD
ENDBRANCH   1   2
BRANCH   1   5
ATOM      5  C   UNL     1       5.011   5.599  18.849  0.00  0.00    +0.000 C 
BRANCH   5   7
ATOM      6  C   UNL     1       4.486   6.584  16.556  0.00  0.00    +0.000 C 
ATOM      7  C   UNL     1       4.234   6.472  17.873  0.00  0.00    +0.000 C 
BRANCH   7   8
ATOM      8  C   UNL     1       3.170   7.318  18.439  0.00  0.00    +0.000 A 
ATOM      9  C   UNL     1       2.608   7.010  19.686  0.00  0.00    +0.000 A 
ATOM     10  C   UNL     1       1.555   7.780  20.190  0.00  0.00    +0.000 A 
ATOM     11  C   UNL     1       1.068   8.846  19.447  0.00  0.00    +0.000 A 
ATOM     12  F   UNL     1       0.050   9.573  19.925  0.00  0.00    +0.000 F 
ATOM     13  C   UNL     1       1.613   9.167  18.209  0.00  0.00    +0.000 A 
ATOM     14  C   UNL     1       2.666   8.402  17.703  0.00  0.00    +0.000 A 
ENDBRANCH   7   8
ENDBRANCH   5   7
ENDBRANCH   1   5
BRANCH   1  15
ATOM     15  C   UNL     1       4.810   3.222  19.321  0.00  0.00    +0.000 C 
BRANCH  15  16
ATOM     16  C   UNL     1       3.301   3.247  19.505  0.00  0.00    +0.000 A 
ATOM     17  C   UNL     1       2.744   3.398  20.785  0.00  0.00    +0.000 A 
ATOM     18  C   UNL     1       1.360   3.370  20.965  0.00  0.00    +0.000 A 
ATOM     19  C   UNL     1       0.517   3.194  19.870  0.00  0.00    +0.000 A 
ATOM     20  C   UNL     1       1.056   3.060  18.592  0.00  0.00    +0.000 A 
ATOM     21  C   UNL     1       2.441   3.088  18.408  0.00  0.00    +0.000 A 
ENDBRANCH  15  16
ENDBRANCH   1  15
TORSDOF 6
ENDMDL
MODEL 9
REMARK VINA RESULT:      -6.0      2.860      5.731
REMARK  Name = 
REMARK  6 active torsions:
REMARK  status: ('A' for Active; 'I' for Inactive)
REMARK    1  A    between atoms: C_2  and  C_3
REMARK    2  A    between atoms: C_2  and  C_13
REMARK    3  A    between atoms: C_3  and  N_4
REMARK    4  A    between atoms: N_4  and  N_5
REMARK    5  A    between atoms: N_4  and  C_6
REMARK    6  A    between atoms: C_6  and  C_7
REMARK                            x       y       z     vdW  Elec       q    Type
REMARK                         _______ _______ _______ _____ _____    ______ ____
ROOT
ATOM      1  N   UNL     1       1.851   4.377  19.819  0.00  0.00    +0.000 NA
ENDROOT
BRANCH   1   2
ATOM      2  N   UNL     1       0.547   3.916  20.327  0.00  0.00    +0.000 NA
ATOM      3  H   UNL     1      -0.194   4.148  19.664  0.00  0.00    +0.000 HD
ATOM      4  H   UNL     1       0.317   4.467  21.162  0.00  0.00    +0.000 HD
ENDBRANCH   1   2
BRANCH   1   5
ATOM      5  C   UNL     1       2.849   3.287  19.976  0.00  0.00    +0.000 C 
BRANCH   5   7
ATOM      6  C   UNL     1       3.508   1.768  18.035  0.00  0.00    +0.000 C 
ATOM      7  C   UNL     1       3.599   2.936  18.697  0.00  0.00    +0.000 C 
BRANCH   7   8
ATOM      8  C   UNL     1       4.556   3.934  18.192  0.00  0.00    +0.000 A 
ATOM      9  C   UNL     1       5.472   4.541  19.063  0.00  0.00    +0.000 A 
ATOM     10  C   UNL     1       6.337   5.534  18.590  0.00  0.00    +0.000 A 
ATOM     11  C   UNL     1       6.279   5.915  17.258  0.00  0.00    +0.000 A 
ATOM     12  F   UNL     1       7.099   6.877  16.810  0.00  0.00    +0.000 F 
ATOM     13  C   UNL     1       5.378   5.324  16.379  0.00  0.00    +0.000 A 
ATOM     14  C   UNL     1       4.515   4.332  16.846  0.00  0.00    +0.000 A 
ENDBRANCH   7   8
ENDBRANCH   5   7
ENDBRANCH   1   5
BRANCH   1  15
ATOM     15  C   UNL     1       2.280   5.566  20.602  0.00  0.00    +0.000 C 
BRANCH  15  16
ATOM     16  C   UNL     1       2.121   6.876  19.846  0.00  0.00    +0.000 A 
ATOM     17  C   UNL     1       1.426   7.950  20.423  0.00  0.00    +0.000 A 
ATOM     18  C   UNL     1       1.234   9.136  19.713  0.00  0.00    +0.000 A 
ATOM     19  C   UNL     1       1.737   9.265  18.420  0.00  0.00    +0.000 A 
ATOM     20  C   UNL     1       2.444   8.212  17.841  0.00  0.00    +0.000 A 
ATOM     21  C   UNL     1       2.638   7.024  18.550  0.00  0.00    +0.000 A 
ENDBRANCH  15  16
ENDBRANCH   1  15
TORSDOF 6
ENDMDL
