MODEL 1
REMARK VINA RESULT:      -8.4      0.000      0.000
REMARK  Name = 
REMARK  5 active torsions:
REMARK  status: ('A' for Active; 'I' for Inactive)
REMARK    1  A    between atoms: N_3  and  C_4
REMARK    2  A    between atoms: C_4  and  C_5
REMARK    3  A    between atoms: C_5  and  N_6
REMARK    4  A    between atoms: N_13  and  C_14
REMARK    5  A    between atoms: C_16  and  C_17
REMARK                            x       y       z     vdW  Elec       q    Type
REMARK                         _______ _______ _______ _____ _____    ______ ____
ROOT
ATOM      1  O   UNL     1       3.284   4.613  17.300  0.00  0.00    +0.000 OA
ATOM      2  C   UNL     1       4.099   3.993  17.968  0.00  0.00    +0.000 C 
ATOM      3  N   UNL     1       3.790   3.442  19.187  0.00  0.00    +0.000 N 
ATOM      4  N   UNL     1       5.383   3.741  17.559  0.00  0.00    +0.000 N 
ATOM      5  H   UNL     1       4.563   3.296  19.820  0.00  0.00    +0.000 HD
ATOM      6  H   UNL     1       5.977   3.163  18.142  0.00  0.00    +0.000 HD
ENDROOT
BRANCH   4   7
ATOM      7  C   UNL     1       5.948   4.135  16.358  0.00  0.00    +0.000 A 
ATOM      8  C   UNL     1       5.623   3.673  15.136  0.00  0.00    +0.000 A 
ATOM      9  C   UNL     1       6.288   4.112  13.921  0.00  0.00    +0.000 A 
ATOM     10  C   UNL     1       7.258   5.041  14.026  0.00  0.00    +0.000 A 
ATOM     11  N   UNL     1       7.610   5.554  15.250  0.00  0.00    +0.000 N 
ATOM     12  C   UNL     1       7.038   5.174  16.442  0.00  0.00    +0.000 A 
ATOM     13  O   UNL     1       7.381   5.645  17.524  0.00  0.00    +0.000 OA
ATOM     14  H   UNL     1       8.343   6.252  15.318  0.00  0.00    +0.000 HD
BRANCH   9  15
ATOM     15  C   UNL     1       5.888   3.507  12.606  0.00  0.00    +0.000 C 
ATOM     16  F   UNL     1       6.080   2.165  12.545  0.00  0.00    +0.000 F 
ATOM     17  F   UNL     1       4.576   3.727  12.336  0.00  0.00    +0.000 F 
ATOM     18  F   UNL     1       6.593   4.048  11.577  0.00  0.00    +0.000 F 
ENDBRANCH   9  15
ENDBRANCH   4   7
BRANCH   3  19
ATOM     19  C   UNL     1       2.476   3.650  19.812  0.00  0.00    +0.000 C 
BRANCH  19  20
ATOM     20  C   UNL     1       2.327   4.960  20.612  0.00  0.00    +0.000 C 
BRANCH  20  21
ATOM     21  N   UNL     1       2.970   6.103  19.970  0.00  0.00    +0.000 N 
ATOM     22  C   UNL     1       2.175   7.257  19.925  0.00  0.00    +0.000 A 
ATOM     23  C   UNL     1       1.382   7.673  20.994  0.00  0.00    +0.000 A 
ATOM     24  C   UNL     1       0.646   8.851  20.896  0.00  0.00    +0.000 A 
ATOM     25  C   UNL     1       0.738   9.605  19.739  0.00  0.00    +0.000 A 
ATOM     26  C   UNL     1       1.551   9.131  18.723  0.00  0.00    +0.000 A 
ATOM     27  N   UNL     1       2.258   7.978  18.790  0.00  0.00    +0.000 NA
ATOM     28  H   UNL     1       3.242   5.950  18.999  0.00  0.00    +0.000 HD
ENDBRANCH  20  21
ENDBRANCH  19  20
ENDBRANCH   3  19
TORSDOF 5
ENDMDL
MODEL 2
REMARK VINA RESULT:      -8.0      0.776      1.154
REMARK  Name = 
REMARK  5 active torsions:
REMARK  status: ('A' for Active; 'I' for Inactive)
REMARK    1  A    between atoms: N_3  and  C_4
REMARK    2  A    between atoms: C_4  and  C_5
REMARK    3  A    between atoms: C_5  and  N_6
REMARK    4  A    between atoms: N_13  and  C_14
REMARK    5  A    between atoms: C_16  and  C_17
REMARK                            x       y       z     vdW  Elec       q    Type
REMARK                         _______ _______ _______ _____ _____    ______ ____
ROOT
ATOM      1  O   UNL     1       3.696   4.995  17.205  0.00  0.00    +0.000 OA
ATOM      2  C   UNL     1       4.402   4.148  17.735  0.00  0.00    +0.000 C 
ATOM      3  N   UNL     1       4.090   3.578  18.945  0.00  0.00    +0.000 N 
ATOM      4  N   UNL     1       5.544   3.645  17.167  0.00  0.00    +0.000 N 
ATOM      5  H   UNL     1       4.863   3.203  19.474  0.00  0.00    +0.000 HD
ATOM      6  H   UNL     1       6.037   2.897  17.641  0.00  0.00    +0.000 HD
ENDROOT
BRANCH   4   7
ATOM      7  C   UNL     1       6.067   4.003  15.936  0.00  0.00    +0.000 A 
ATOM      8  C   UNL     1       5.662   3.548  14.736  0.00  0.00    +0.000 A 
ATOM      9  C   UNL     1       6.286   3.945  13.485  0.00  0.00    +0.000 A 
ATOM     10  C   UNL     1       7.303   4.829  13.534  0.00  0.00    +0.000 A 
ATOM     11  N   UNL     1       7.737   5.334  14.735  0.00  0.00    +0.000 N 
ATOM     12  C   UNL     1       7.206   4.990  15.957  0.00  0.00    +0.000 A 
ATOM     13  O   UNL     1       7.623   5.453  17.016  0.00  0.00    +0.000 OA
ATOM     14  H   UNL     1       8.504   5.998  14.761  0.00  0.00    +0.000 HD
BRANCH   9  15
ATOM     15  C   UNL     1       5.795   3.350  12.198  0.00  0.00    +0.000 C 
ATOM     16  F   UNL     1       5.902   1.998  12.149  0.00  0.00    +0.000 F 
ATOM     17  F   UNL     1       4.488   3.647  11.979  0.00  0.00    +0.000 F 
ATOM     18  F   UNL     1       6.487   3.834  11.133  0.00  0.00    +0.000 F 
ENDBRANCH   9  15
ENDBRANCH   4   7
BRANCH   3  19
ATOM     19  C   UNL     1       2.929   4.026  19.727  0.00  0.00    +0.000 C 
BRANCH  19  20
ATOM     20  C   UNL     1       3.107   5.373  20.456  0.00  0.00    +0.000 C 
BRANCH  20  21
ATOM     21  N   UNL     1       1.854   6.103  20.633  0.00  0.00    +0.000 N 
ATOM     22  C   UNL     1       1.784   7.306  19.917  0.00  0.00    +0.000 A 
ATOM     23  C   UNL     1       2.250   7.436  18.609  0.00  0.00    +0.000 A 
ATOM     24  C   UNL     1       2.115   8.651  17.941  0.00  0.00    +0.000 A 
ATOM     25  C   UNL     1       1.492   9.705  18.587  0.00  0.00    +0.000 A 
ATOM     26  C   UNL     1       1.050   9.497  19.882  0.00  0.00    +0.000 A 
ATOM     27  N   UNL     1       1.190   8.331  20.557  0.00  0.00    +0.000 NA
ATOM     28  H   UNL     1       1.650   6.374  21.595  0.00  0.00    +0.000 HD
ENDBRANCH  20  21
ENDBRANCH  19  20
ENDBRANCH   3  19
TORSDOF 5
ENDMDL
MODEL 3
REMARK VINA RESULT:      -8.0      5.892      7.529
REMARK  Name = 
REMARK  5 active torsions:
REMARK  status: ('A' for Active; 'I' for Inactive)
REMARK    1  A    between atoms: N_3  and  C_4
REMARK    2  A    between atoms: C_4  and  C_5
REMARK    3  A    between atoms: C_5  and  N_6
REMARK    4  A    between atoms: N_13  and  C_14
REMARK    5  A    between atoms: C_16  and  C_17
REMARK                            x       y       z     vdW  Elec       q    Type
REMARK                         _______ _______ _______ _____ _____    ______ ____
ROOT
ATOM      1  O   UNL     1       7.042   8.205  17.009  0.00  0.00    +0.000 OA
ATOM      2  C   UNL     1       7.600   7.689  17.967  0.00  0.00    +0.000 C 
ATOM      3  N   UNL     1       8.550   8.344  18.711  0.00  0.00    +0.000 N 
ATOM      4  N   UNL     1       7.308   6.431  18.429  0.00  0.00    +0.000 N 
ATOM      5  H   UNL     1       9.208   7.761  19.208  0.00  0.00    +0.000 HD
ATOM      6  H   UNL     1       7.768   6.101  19.270  0.00  0.00    +0.000 HD
ENDROOT
BRANCH   4   7
ATOM      7  C   UNL     1       6.362   5.569  17.903  0.00  0.00    +0.000 A 
ATOM      8  C   UNL     1       5.040   5.591  18.149  0.00  0.00    +0.000 A 
ATOM      9  C   UNL     1       4.111   4.626  17.584  0.00  0.00    +0.000 A 
ATOM     10  C   UNL     1       4.601   3.682  16.756  0.00  0.00    +0.000 A 
ATOM     11  N   UNL     1       5.941   3.633  16.462  0.00  0.00    +0.000 N 
ATOM     12  C   UNL     1       6.879   4.500  16.973  0.00  0.00    +0.000 A 
ATOM     13  O   UNL     1       8.074   4.424  16.698  0.00  0.00    +0.000 OA
ATOM     14  H   UNL     1       6.299   2.917  15.838  0.00  0.00    +0.000 HD
BRANCH   9  15
ATOM     15  C   UNL     1       2.658   4.702  17.952  0.00  0.00    +0.000 C 
ATOM     16  F   UNL     1       2.121   5.938  17.791  0.00  0.00    +0.000 F 
ATOM     17  F   UNL     1       1.911   3.850  17.205  0.00  0.00    +0.000 F 
ATOM     18  F   UNL     1       2.457   4.358  19.252  0.00  0.00    +0.000 F 
ENDBRANCH   9  15
ENDBRANCH   4   7
BRANCH   3  19
ATOM     19  C   UNL     1       9.029   9.683  18.337  0.00  0.00    +0.000 C 
BRANCH  19  20
ATOM     20  C   UNL     1       9.406  10.600  19.518  0.00  0.00    +0.000 C 
BRANCH  20  21
ATOM     21  N   UNL     1      10.752  11.155  19.410  0.00  0.00    +0.000 N 
ATOM     22  C   UNL     1      10.843  12.279  18.578  0.00  0.00    +0.000 A 
ATOM     23  C   UNL     1       9.888  13.296  18.572  0.00  0.00    +0.000 A 
ATOM     24  C   UNL     1      10.060  14.405  17.747  0.00  0.00    +0.000 A 
ATOM     25  C   UNL     1      11.198  14.489  16.965  0.00  0.00    +0.000 A 
ATOM     26  C   UNL     1      12.104  13.444  17.030  0.00  0.00    +0.000 A 
ATOM     27  N   UNL     1      11.946  12.347  17.808  0.00  0.00    +0.000 NA
ATOM     28  H   UNL     1      11.450  10.512  19.036  0.00  0.00    +0.000 HD
ENDBRANCH  20  21
ENDBRANCH  19  20
ENDBRANCH   3  19
TORSDOF 5
ENDMDL
MODEL 4
REMARK VINA RESULT:      -7.9      5.962      7.380
REMARK  Name = 
REMARK  5 active torsions:
REMARK  status: ('A' for Active; 'I' for Inactive)
REMARK    1  A    between atoms: N_3  and  C_4
REMARK    2  A    between atoms: C_4  and  C_5
REMARK    3  A    between atoms: C_5  and  N_6
REMARK    4  A    between atoms: N_13  and  C_14
REMARK    5  A    between atoms: C_16  and  C_17
REMARK                            x       y       z     vdW  Elec       q    Type
REMARK                         _______ _______ _______ _____ _____    ______ ____
ROOT
ATOM      1  O   UNL     1       7.962   6.920  18.570  0.00  0.00    +0.000 OA
ATOM      2  C   UNL     1       7.517   7.717  17.757  0.00  0.00    +0.000 C 
ATOM      3  N   UNL     1       7.928   9.026  17.703  0.00  0.00    +0.000 N 
ATOM      4  N   UNL     1       6.605   7.386  16.788  0.00  0.00    +0.000 N 
ATOM      5  H   UNL     1       7.278   9.681  17.295  0.00  0.00    +0.000 HD
ATOM      6  H   UNL     1       6.336   8.088  16.109  0.00  0.00    +0.000 HD
ENDROOT
BRANCH   4   7
ATOM      7  C   UNL     1       6.057   6.132  16.580  0.00  0.00    +0.000 A 
ATOM      8  C   UNL     1       4.961   5.632  17.179  0.00  0.00    +0.000 A 
ATOM      9  C   UNL     1       4.465   4.288  16.933  0.00  0.00    +0.000 A 
ATOM     10  C   UNL     1       5.125   3.520  16.044  0.00  0.00    +0.000 A 
ATOM     11  N   UNL     1       6.237   3.995  15.394  0.00  0.00    +0.000 N 
ATOM     12  C   UNL     1       6.773   5.247  15.590  0.00  0.00    +0.000 A 
ATOM     13  O   UNL     1       7.776   5.641  15.000  0.00  0.00    +0.000 OA
ATOM     14  H   UNL     1       6.727   3.408  14.727  0.00  0.00    +0.000 HD
BRANCH   9  15
ATOM     15  C   UNL     1       3.260   3.801  17.683  0.00  0.00    +0.000 C 
ATOM     16  F   UNL     1       2.138   4.523  17.438  0.00  0.00    +0.000 F 
ATOM     17  F   UNL     1       2.970   2.510  17.375  0.00  0.00    +0.000 F 
ATOM     18  F   UNL     1       3.462   3.843  19.027  0.00  0.00    +0.000 F 
ENDBRANCH   9  15
ENDBRANCH   4   7
BRANCH   3  19
ATOM     19  C   UNL     1       8.865   9.577  18.693  0.00  0.00    +0.000 C 
BRANCH  19  20
ATOM     20  C   UNL     1       9.680  10.797  18.218  0.00  0.00    +0.000 C 
BRANCH  20  21
ATOM     21  N   UNL     1       8.848  11.944  17.865  0.00  0.00    +0.000 N 
ATOM     22  C   UNL     1       9.555  13.147  17.732  0.00  0.00    +0.000 A 
ATOM     23  C   UNL     1      10.799  13.229  17.107  0.00  0.00    +0.000 A 
ATOM     24  C   UNL     1      11.431  14.463  16.975  0.00  0.00    +0.000 A 
ATOM     25  C   UNL     1      10.792  15.596  17.448  0.00  0.00    +0.000 A 
ATOM     26  C   UNL     1       9.557  15.437  18.051  0.00  0.00    +0.000 A 
ATOM     27  N   UNL     1       8.935  14.244  18.208  0.00  0.00    +0.000 NA
ATOM     28  H   UNL     1       8.112  12.161  18.538  0.00  0.00    +0.000 HD
ENDBRANCH  20  21
ENDBRANCH  19  20
ENDBRANCH   3  19
TORSDOF 5
ENDMDL
MODEL 5
REMARK VINA RESULT:      -7.8      6.024      7.723
REMARK  Name = 
REMARK  5 active torsions:
REMARK  status: ('A' for Active; 'I' for Inactive)
REMARK    1  A    between atoms: N_3  and  C_4
REMARK    2  A    between atoms: C_4  and  C_5
REMARK    3  A    between atoms: C_5  and  N_6
REMARK    4  A    between atoms: N_13  and  C_14
REMARK    5  A    between atoms: C_16  and  C_17
REMARK                            x       y       z     vdW  Elec       q    Type
REMARK                         _______ _______ _______ _____ _____    ______ ____
ROOT
ATOM      1  O   UNL     1       7.762   6.949  18.676  0.00  0.00    +0.000 OA
ATOM      2  C   UNL     1       7.438   7.631  17.715  0.00  0.00    +0.000 C 
ATOM      3  N   UNL     1       7.989   8.863  17.463  0.00  0.00    +0.000 N 
ATOM      4  N   UNL     1       6.534   7.228  16.766  0.00  0.00    +0.000 N 
ATOM      5  H   UNL     1       7.430   9.499  16.913  0.00  0.00    +0.000 HD
ATOM      6  H   UNL     1       6.368   7.824  15.964  0.00  0.00    +0.000 HD
ENDROOT
BRANCH   4   7
ATOM      7  C   UNL     1       5.862   6.018  16.743  0.00  0.00    +0.000 A 
ATOM      8  C   UNL     1       4.634   5.779  17.238  0.00  0.00    +0.000 A 
ATOM      9  C   UNL     1       4.007   4.468  17.207  0.00  0.00    +0.000 A 
ATOM     10  C   UNL     1       4.684   3.453  16.633  0.00  0.00    +0.000 A 
ATOM     11  N   UNL     1       5.932   3.655  16.098  0.00  0.00    +0.000 N 
ATOM     12  C   UNL     1       6.593   4.862  16.108  0.00  0.00    +0.000 A 
ATOM     13  O   UNL     1       7.715   5.009  15.629  0.00  0.00    +0.000 OA
ATOM     14  H   UNL     1       6.433   2.884  15.670  0.00  0.00    +0.000 HD
BRANCH   9  15
ATOM     15  C   UNL     1       2.652   4.287  17.825  0.00  0.00    +0.000 C 
ATOM     16  F   UNL     1       1.910   3.317  17.234  0.00  0.00    +0.000 F 
ATOM     17  F   UNL     1       2.744   3.962  19.141  0.00  0.00    +0.000 F 
ATOM     18  F   UNL     1       1.920   5.430  17.758  0.00  0.00    +0.000 F 
ENDBRANCH   9  15
ENDBRANCH   4   7
BRANCH   3  19
ATOM     19  C   UNL     1       8.941   9.483  18.396  0.00  0.00    +0.000 C 
BRANCH  19  20
ATOM     20  C   UNL     1       9.195  10.988  18.174  0.00  0.00    +0.000 C 
BRANCH  20  21
ATOM     21  N   UNL     1      10.497  11.270  17.575  0.00  0.00    +0.000 N 
ATOM     22  C   UNL     1      11.070  12.480  17.992  0.00  0.00    +0.000 A 
ATOM     23  C   UNL     1      11.029  12.921  19.315  0.00  0.00    +0.000 A 
ATOM     24  C   UNL     1      11.652  14.115  19.668  0.00  0.00    +0.000 A 
ATOM     25  C   UNL     1      12.327  14.832  18.696  0.00  0.00    +0.000 A 
ATOM     26  C   UNL     1      12.330  14.327  17.407  0.00  0.00    +0.000 A 
ATOM     27  N   UNL     1      11.713  13.179  17.038  0.00  0.00    +0.000 NA
ATOM     28  H   UNL     1      10.494  11.334  16.557  0.00  0.00    +0.000 HD
ENDBRANCH  20  21
ENDBRANCH  19  20
ENDBRANCH   3  19
TORSDOF 5
ENDMDL
MODEL 6
REMARK VINA RESULT:      -7.8      5.619      7.125
REMARK  Name = 
REMARK  5 active torsions:
REMARK  status: ('A' for Active; 'I' for Inactive)
REMARK    1  A    between atoms: N_3  and  C_4
REMARK    2  A    between atoms: C_4  and  C_5
REMARK    3  A    between atoms: C_5  and  N_6
REMARK    4  A    between atoms: N_13  and  C_14
REMARK    5  A    between atoms: C_16  and  C_17
REMARK                            x       y       z     vdW  Elec       q    Type
REMARK                         _______ _______ _______ _____ _____    ______ ____
ROOT
ATOM      1  O   UNL     1       7.284   8.479  17.076  0.00  0.00    +0.000 OA
ATOM      2  C   UNL     1       7.916   7.954  17.982  0.00  0.00    +0.000 C 
ATOM      3  N   UNL     1       8.740   8.666  18.818  0.00  0.00    +0.000 N 
ATOM      4  N   UNL     1       7.838   6.620  18.291  0.00  0.00    +0.000 N 
ATOM      5  H   UNL     1       9.484   8.147  19.260  0.00  0.00    +0.000 HD
ATOM      6  H   UNL     1       8.343   6.275  19.099  0.00  0.00    +0.000 HD
ENDROOT
BRANCH   4   7
ATOM      7  C   UNL     1       7.052   5.680  17.647  0.00  0.00    +0.000 A 
ATOM      8  C   UNL     1       7.018   5.441  16.323  0.00  0.00    +0.000 A 
ATOM      9  C   UNL     1       6.138   4.457  15.717  0.00  0.00    +0.000 A 
ATOM     10  C   UNL     1       5.337   3.735  16.526  0.00  0.00    +0.000 A 
ATOM     11  N   UNL     1       5.352   3.931  17.885  0.00  0.00    +0.000 N 
ATOM     12  C   UNL     1       6.145   4.856  18.526  0.00  0.00    +0.000 A 
ATOM     13  O   UNL     1       6.128   5.014  19.744  0.00  0.00    +0.000 OA
ATOM     14  H   UNL     1       4.744   3.383  18.485  0.00  0.00    +0.000 HD
BRANCH   9  15
ATOM     15  C   UNL     1       6.137   4.293  14.225  0.00  0.00    +0.000 C 
ATOM     16  F   UNL     1       4.935   4.550  13.651  0.00  0.00    +0.000 F 
ATOM     17  F   UNL     1       7.038   5.120  13.633  0.00  0.00    +0.000 F 
ATOM     18  F   UNL     1       6.477   3.027  13.865  0.00  0.00    +0.000 F 
ENDBRANCH   9  15
ENDBRANCH   4   7
BRANCH   3  19
ATOM     19  C   UNL     1       8.989  10.100  18.611  0.00  0.00    +0.000 C 
BRANCH  19  20
ATOM     20  C   UNL     1       9.610  10.841  19.813  0.00  0.00    +0.000 C 
BRANCH  20  21
ATOM     21  N   UNL     1      10.948  11.358  19.542  0.00  0.00    +0.000 N 
ATOM     22  C   UNL     1      10.974  12.453  18.667  0.00  0.00    +0.000 A 
ATOM     23  C   UNL     1      10.047  13.493  18.728  0.00  0.00    +0.000 A 
ATOM     24  C   UNL     1      10.154  14.570  17.852  0.00  0.00    +0.000 A 
ATOM     25  C   UNL     1      11.203  14.600  16.950  0.00  0.00    +0.000 A 
ATOM     26  C   UNL     1      12.087  13.535  16.954  0.00  0.00    +0.000 A 
ATOM     27  N   UNL     1      11.990  12.467  17.783  0.00  0.00    +0.000 NA
ATOM     28  H   UNL     1      11.588  10.686  19.119  0.00  0.00    +0.000 HD
ENDBRANCH  20  21
ENDBRANCH  19  20
ENDBRANCH   3  19
TORSDOF 5
ENDMDL
MODEL 7
REMARK VINA RESULT:      -7.8      5.653      7.622
REMARK  Name = 
REMARK  5 active torsions:
REMARK  status: ('A' for Active; 'I' for Inactive)
REMARK    1  A    between atoms: N_3  and  C_4
REMARK    2  A    between atoms: C_4  and  C_5
REMARK    3  A    between atoms: C_5  and  N_6
REMARK    4  A    between atoms: N_13  and  C_14
REMARK    5  A    between atoms: C_16  and  C_17
REMARK                            x       y       z     vdW  Elec       q    Type
REMARK                         _______ _______ _______ _____ _____    ______ ____
ROOT
ATOM      1  O   UNL     1       6.731   5.781  18.866  0.00  0.00    +0.000 OA
ATOM      2  C   UNL     1       6.170   6.388  17.965  0.00  0.00    +0.000 C 
ATOM      3  N   UNL     1       6.750   7.451  17.317  0.00  0.00    +0.000 N 
ATOM      4  N   UNL     1       4.935   6.051  17.474  0.00  0.00    +0.000 N 
ATOM      5  H   UNL     1       6.118   8.108  16.884  0.00  0.00    +0.000 HD
ATOM      6  H   UNL     1       4.568   6.563  16.681  0.00  0.00    +0.000 HD
ENDROOT
BRANCH   4   7
ATOM      7  C   UNL     1       4.146   4.998  17.906  0.00  0.00    +0.000 A 
ATOM      8  C   UNL     1       3.209   5.049  18.870  0.00  0.00    +0.000 A 
ATOM      9  C   UNL     1       2.443   3.888  19.293  0.00  0.00    +0.000 A 
ATOM     10  C   UNL     1       2.670   2.714  18.671  0.00  0.00    +0.000 A 
ATOM     11  N   UNL     1       3.604   2.620  17.669  0.00  0.00    +0.000 N 
ATOM     12  C   UNL     1       4.377   3.671  17.229  0.00  0.00    +0.000 A 
ATOM     13  O   UNL     1       5.212   3.553  16.335  0.00  0.00    +0.000 OA
ATOM     14  H   UNL     1       3.769   1.732  17.207  0.00  0.00    +0.000 HD
BRANCH   9  15
ATOM     15  C   UNL     1       1.450   4.031  20.409  0.00  0.00    +0.000 C 
ATOM     16  F   UNL     1       1.103   5.317  20.667  0.00  0.00    +0.000 F 
ATOM     17  F   UNL     1       0.299   3.362  20.140  0.00  0.00    +0.000 F 
ATOM     18  F   UNL     1       1.934   3.519  21.572  0.00  0.00    +0.000 F 
ENDBRANCH   9  15
ENDBRANCH   4   7
BRANCH   3  19
ATOM     19  C   UNL     1       8.052   7.988  17.737  0.00  0.00    +0.000 C 
BRANCH  19  20
ATOM     20  C   UNL     1       8.145   9.526  17.782  0.00  0.00    +0.000 C 
BRANCH  20  21
ATOM     21  N   UNL     1       8.941  10.023  18.901  0.00  0.00    +0.000 N 
ATOM     22  C   UNL     1       9.711  11.155  18.600  0.00  0.00    +0.000 A 
ATOM     23  C   UNL     1       9.231  12.213  17.828  0.00  0.00    +0.000 A 
ATOM     24  C   UNL     1      10.035  13.327  17.599  0.00  0.00    +0.000 A 
ATOM     25  C   UNL     1      11.295  13.372  18.169  0.00  0.00    +0.000 A 
ATOM     26  C   UNL     1      11.699  12.287  18.928  0.00  0.00    +0.000 A 
ATOM     27  N   UNL     1      10.941  11.186  19.146  0.00  0.00    +0.000 NA
ATOM     28  H   UNL     1       9.616   9.355  19.275  0.00  0.00    +0.000 HD
ENDBRANCH  20  21
ENDBRANCH  19  20
ENDBRANCH   3  19
TORSDOF 5
ENDMDL
MODEL 8
REMARK VINA RESULT:      -7.7      3.128      4.141
REMARK  Name = 
REMARK  5 active torsions:
REMARK  status: ('A' for Active; 'I' for Inactive)
REMARK    1  A    between atoms: N_3  and  C_4
REMARK    2  A    between atoms: C_4  and  C_5
REMARK    3  A    between atoms: C_5  and  N_6
REMARK    4  A    between atoms: N_13  and  C_14
REMARK    5  A    between atoms: C_16  and  C_17
REMARK                            x       y       z     vdW  Elec       q    Type
REMARK                         _______ _______ _______ _____ _____    ______ ____
ROOT
ATOM      1  O   UNL     1       6.045   6.126  16.097  0.00  0.00    +0.000 OA
ATOM      2  C   UNL     1       7.004   5.394  16.296  0.00  0.00    +0.000 C 
ATOM      3  N   UNL     1       7.549   5.214  17.544  0.00  0.00    +0.000 N 
ATOM      4  N   UNL     1       7.606   4.645  15.319  0.00  0.00    +0.000 N 
ATOM      5  H   UNL     1       8.516   4.927  17.571  0.00  0.00    +0.000 HD
ATOM      6  H   UNL     1       8.354   4.012  15.579  0.00  0.00    +0.000 HD
ENDROOT
BRANCH   4   7
ATOM      7  C   UNL     1       7.235   4.594  13.986  0.00  0.00    +0.000 A 
ATOM      8  C   UNL     1       6.192   3.915  13.475  0.00  0.00    +0.000 A 
ATOM      9  C   UNL     1       5.886   3.882  12.055  0.00  0.00    +0.000 A 
ATOM     10  C   UNL     1       6.673   4.588  11.218  0.00  0.00    +0.000 A 
ATOM     11  N   UNL     1       7.737   5.311  11.698  0.00  0.00    +0.000 N 
ATOM     12  C   UNL     1       8.096   5.373  13.025  0.00  0.00    +0.000 A 
ATOM     13  O   UNL     1       9.060   6.023  13.422  0.00  0.00    +0.000 OA
ATOM     14  H   UNL     1       8.324   5.838  11.059  0.00  0.00    +0.000 HD
BRANCH   9  15
ATOM     15  C   UNL     1       4.728   3.059  11.571  0.00  0.00    +0.000 C 
ATOM     16  F   UNL     1       5.067   1.789  11.234  0.00  0.00    +0.000 F 
ATOM     17  F   UNL     1       3.756   2.967  12.515  0.00  0.00    +0.000 F 
ATOM     18  F   UNL     1       4.152   3.611  10.471  0.00  0.00    +0.000 F 
ENDBRANCH   9  15
ENDBRANCH   4   7
BRANCH   3  19
ATOM     19  C   UNL     1       7.068   5.973  18.708  0.00  0.00    +0.000 C 
BRANCH  19  20
ATOM     20  C   UNL     1       5.919   5.310  19.495  0.00  0.00    +0.000 C 
BRANCH  20  21
ATOM     21  N   UNL     1       5.724   3.903  19.155  0.00  0.00    +0.000 N 
ATOM     22  C   UNL     1       4.409   3.578  18.795  0.00  0.00    +0.000 A 
ATOM     23  C   UNL     1       3.621   4.395  17.984  0.00  0.00    +0.000 A 
ATOM     24  C   UNL     1       2.335   3.993  17.634  0.00  0.00    +0.000 A 
ATOM     25  C   UNL     1       1.871   2.767  18.078  0.00  0.00    +0.000 A 
ATOM     26  C   UNL     1       2.713   2.008  18.873  0.00  0.00    +0.000 A 
ATOM     27  N   UNL     1       3.959   2.390  19.243  0.00  0.00    +0.000 NA
ATOM     28  H   UNL     1       5.946   3.248  19.904  0.00  0.00    +0.000 HD
ENDBRANCH  20  21
ENDBRANCH  19  20
ENDBRANCH   3  19
TORSDOF 5
ENDMDL
MODEL 9
REMARK VINA RESULT:      -7.7      5.713      6.946
REMARK  Name = 
REMARK  5 active torsions:
REMARK  status: ('A' for Active; 'I' for Inactive)
REMARK    1  A    between atoms: N_3  and  C_4
REMARK    2  A    between atoms: C_4  and  C_5
REMARK    3  A    between atoms: C_5  and  N_6
REMARK    4  A    between atoms: N_13  and  C_14
REMARK    5  A    between atoms: C_16  and  C_17
REMARK                            x       y       z     vdW  Elec       q    Type
REMARK                         _______ _______ _______ _____ _____    ______ ____
ROOT
ATOM      1  O   UNL     1       8.074   6.916  18.662  0.00  0.00    +0.000 OA
ATOM      2  C   UNL     1       7.634   7.734  17.866  0.00  0.00    +0.000 C 
ATOM      3  N   UNL     1       8.076   9.034  17.823  0.00  0.00    +0.000 N 
ATOM      4  N   UNL     1       6.698   7.438  16.910  0.00  0.00    +0.000 N 
ATOM      5  H   UNL     1       7.435   9.710  17.435  0.00  0.00    +0.000 HD
ATOM      6  H   UNL     1       6.434   8.156  16.245  0.00  0.00    +0.000 HD
ENDROOT
BRANCH   4   7
ATOM      7  C   UNL     1       6.116   6.200  16.695  0.00  0.00    +0.000 A 
ATOM      8  C   UNL     1       5.031   5.710  17.322  0.00  0.00    +0.000 A 
ATOM      9  C   UNL     1       4.499   4.383  17.066  0.00  0.00    +0.000 A 
ATOM     10  C   UNL     1       5.110   3.620  16.138  0.00  0.00    +0.000 A 
ATOM     11  N   UNL     1       6.209   4.086  15.459  0.00  0.00    +0.000 N 
ATOM     12  C   UNL     1       6.778   5.323  15.662  0.00  0.00    +0.000 A 
ATOM     13  O   UNL     1       7.768   5.708  15.045  0.00  0.00    +0.000 OA
ATOM     14  H   UNL     1       6.663   3.504  14.763  0.00  0.00    +0.000 HD
BRANCH   9  15
ATOM     15  C   UNL     1       3.310   3.904  17.848  0.00  0.00    +0.000 C 
ATOM     16  F   UNL     1       3.582   2.852  18.660  0.00  0.00    +0.000 F 
ATOM     17  F   UNL     1       2.805   4.888  18.636  0.00  0.00    +0.000 F 
ATOM     18  F   UNL     1       2.302   3.510  17.025  0.00  0.00    +0.000 F 
ENDBRANCH   9  15
ENDBRANCH   4   7
BRANCH   3  19
ATOM     19  C   UNL     1       9.043   9.549  18.803  0.00  0.00    +0.000 C 
BRANCH  19  20
ATOM     20  C   UNL     1       9.400  11.041  18.652  0.00  0.00    +0.000 C 
BRANCH  20  21
ATOM     21  N   UNL     1       8.498  11.762  17.758  0.00  0.00    +0.000 N 
ATOM     22  C   UNL     1       8.614  13.158  17.830  0.00  0.00    +0.000 A 
ATOM     23  C   UNL     1       9.843  13.812  17.924  0.00  0.00    +0.000 A 
ATOM     24  C   UNL     1       9.888  15.203  17.953  0.00  0.00    +0.000 A 
ATOM     25  C   UNL     1       8.705  15.914  17.860  0.00  0.00    +0.000 A 
ATOM     26  C   UNL     1       7.526  15.196  17.762  0.00  0.00    +0.000 A 
ATOM     27  N   UNL     1       7.457  13.843  17.754  0.00  0.00    +0.000 NA
ATOM     28  H   UNL     1       7.506  11.587  17.920  0.00  0.00    +0.000 HD
ENDBRANCH  20  21
ENDBRANCH  19  20
ENDBRANCH   3  19
TORSDOF 5
ENDMDL
