MODEL 1
REMARK VINA RESULT:      -6.1      0.000      0.000
REMARK  Name = 
REMARK  6 active torsions:
REMARK  status: ('A' for Active; 'I' for Inactive)
REMARK    1  A    between atoms: C_1  and  O_2
REMARK    2  A    between atoms: O_2  and  C_3
REMARK    3  A    between atoms: C_3  and  C_5
REMARK    4  A    between atoms: C_9  and  N_10
REMARK    5  A    between atoms: N_10  and  C_11
REMARK    6  A    between atoms: C_11  and  N_12
REMARK                            x       y       z     vdW  Elec       q    Type
REMARK                         _______ _______ _______ _____ _____    ______ ____
ROOT
ATOM      1  C   UNL     1       2.260   3.989  18.421  0.00  0.00    +0.000 A 
ATOM      2  C   UNL     1       2.169   5.386  18.455  0.00  0.00    +0.000 A 
ATOM      3  C   UNL     1       3.207   6.165  17.946  0.00  0.00    +0.000 A 
ATOM      4  C   UNL     1       4.324   5.551  17.376  0.00  0.00    +0.000 A 
ATOM      5  C   UNL     1       4.408   4.157  17.291  0.00  0.00    +0.000 A 
ATOM      6  C   UNL     1       3.395   3.382  17.859  0.00  0.00    +0.000 A 
ENDROOT
BRANCH   1   7
ATOM      7  C   UNL     1       1.122   3.191  18.956  0.00  0.00    +0.000 C 
ATOM      8  O   UNL     1       0.613   2.255  18.360  0.00  0.00    +0.000 OA
BRANCH   7  10
ATOM      9  C   UNL     1       1.419   2.937  21.266  0.00  0.00    +0.000 C 
ATOM     10  O   UNL     1       0.781   3.628  20.192  0.00  0.00    +0.000 OA
ENDBRANCH   7  10
ENDBRANCH   1   7
BRANCH   5  11
ATOM     11  N   UNL     1       5.535   3.618  16.640  0.00  0.00    +0.000 N 
ATOM     12  H   UNL     1       5.561   2.607  16.559  0.00  0.00    +0.000 HD
BRANCH  11  13
ATOM     13  C   UNL     1       6.642   4.209  16.128  0.00  0.00    +0.000 C 
ATOM     14  S   UNL     1       6.669   4.711  14.544  0.00  0.00    +0.000 S 
BRANCH  13  15
ATOM     15  N   UNL     1       7.745   4.341  16.890  0.00  0.00    +0.000 N 
ATOM     16  H   UNL     1       8.152   3.506  17.293  0.00  0.00    +0.000 HD
ATOM     17  H   UNL     1       8.420   5.033  16.579  0.00  0.00    +0.000 HD
ENDBRANCH  13  15
ENDBRANCH  11  13
ENDBRANCH   5  11
TORSDOF 5
ENDMDL
MODEL 2
REMARK VINA RESULT:      -6.1      1.867      2.280
REMARK  Name = 
REMARK  6 active torsions:
REMARK  status: ('A' for Active; 'I' for Inactive)
REMARK    1  A    between atoms: C_1  and  O_2
REMARK    2  A    between atoms: O_2  and  C_3
REMARK    3  A    between atoms: C_3  and  C_5
REMARK    4  A    between atoms: C_9  and  N_10
REMARK    5  A    between atoms: N_10  and  C_11
REMARK    6  A    between atoms: C_11  and  N_12
REMARK                            x       y       z     vdW  Elec       q    Type
REMARK                         _______ _______ _______ _____ _____    ______ ____
ROOT
ATOM      1  C   UNL     1       2.594   4.433  19.239  0.00  0.00    +0.000 A 
ATOM      2  C   UNL     1       2.039   3.945  18.050  0.00  0.00    +0.000 A 
ATOM      3  C   UNL     1       2.872   3.538  17.009  0.00  0.00    +0.000 A 
ATOM      4  C   UNL     1       4.258   3.590  17.163  0.00  0.00    +0.000 A 
ATOM      5  C   UNL     1       4.827   4.030  18.363  0.00  0.00    +0.000 A 
ATOM      6  C   UNL     1       3.990   4.496  19.379  0.00  0.00    +0.000 A 
ENDROOT
BRANCH   1   7
ATOM      7  C   UNL     1       1.672   4.840  20.336  0.00  0.00    +0.000 C 
ATOM      8  O   UNL     1       1.628   5.969  20.798  0.00  0.00    +0.000 OA
BRANCH   7  10
ATOM      9  C   UNL     1       1.510   2.843  21.551  0.00  0.00    +0.000 C 
ATOM     10  O   UNL     1       0.883   3.799  20.697  0.00  0.00    +0.000 OA
ENDBRANCH   7  10
ENDBRANCH   1   7
BRANCH   5  11
ATOM     11  N   UNL     1       6.232   3.987  18.463  0.00  0.00    +0.000 N 
ATOM     12  H   UNL     1       6.612   3.297  19.103  0.00  0.00    +0.000 HD
BRANCH  11  13
ATOM     13  C   UNL     1       7.195   4.744  17.883  0.00  0.00    +0.000 C 
ATOM     14  S   UNL     1       7.566   6.244  18.494  0.00  0.00    +0.000 S 
BRANCH  13  15
ATOM     15  N   UNL     1       7.816   4.302  16.772  0.00  0.00    +0.000 N 
ATOM     16  H   UNL     1       7.399   4.512  15.874  0.00  0.00    +0.000 HD
ATOM     17  H   UNL     1       8.830   4.337  16.787  0.00  0.00    +0.000 HD
ENDBRANCH  13  15
ENDBRANCH  11  13
ENDBRANCH   5  11
TORSDOF 5
ENDMDL
MODEL 3
REMARK VINA RESULT:      -6.0      4.027      5.569
REMARK  Name = 
REMARK  6 active torsions:
REMARK  status: ('A' for Active; 'I' for Inactive)
REMARK    1  A    between atoms: C_1  and  O_2
REMARK    2  A    between atoms: O_2  and  C_3
REMARK    3  A    between atoms: C_3  and  C_5
REMARK    4  A    between atoms: C_9  and  N_10
REMARK    5  A    between atoms: N_10  and  C_11
REMARK    6  A    between atoms: C_11  and  N_12
REMARK                            x       y       z     vdW  Elec       q    Type
REMARK                         _______ _______ _______ _____ _____    ______ ____
ROOT
ATOM      1  C   UNL     1       5.889   5.111  15.919  0.00  0.00    +0.000 A 
ATOM      2  C   UNL     1       5.226   6.343  15.956  0.00  0.00    +0.000 A 
ATOM      3  C   UNL     1       4.480   6.699  17.079  0.00  0.00    +0.000 A 
ATOM      4  C   UNL     1       4.418   5.839  18.177  0.00  0.00    +0.000 A 
ATOM      5  C   UNL     1       5.115   4.625  18.173  0.00  0.00    +0.000 A 
ATOM      6  C   UNL     1       5.808   4.246  17.022  0.00  0.00    +0.000 A 
ENDROOT
BRANCH   1   7
ATOM      7  C   UNL     1       6.693   4.775  14.711  0.00  0.00    +0.000 C 
ATOM      8  O   UNL     1       7.675   5.407  14.355  0.00  0.00    +0.000 OA
BRANCH   7  10
ATOM      9  C   UNL     1       6.328   3.643  12.692  0.00  0.00    +0.000 C 
ATOM     10  O   UNL     1       6.202   3.662  14.114  0.00  0.00    +0.000 OA
ENDBRANCH   7  10
ENDBRANCH   1   7
BRANCH   5  11
ATOM     11  N   UNL     1       5.056   3.846  19.346  0.00  0.00    +0.000 N 
ATOM     12  H   UNL     1       5.565   4.207  20.145  0.00  0.00    +0.000 HD
BRANCH  11  13
ATOM     13  C   UNL     1       4.467   2.653  19.600  0.00  0.00    +0.000 C 
ATOM     14  S   UNL     1       2.887   2.385  19.160  0.00  0.00    +0.000 S 
BRANCH  13  15
ATOM     15  N   UNL     1       5.147   1.697  20.262  0.00  0.00    +0.000 N 
ATOM     16  H   UNL     1       5.475   1.903  21.197  0.00  0.00    +0.000 HD
ATOM     17  H   UNL     1       4.822   0.745  20.127  0.00  0.00    +0.000 HD
ENDBRANCH  13  15
ENDBRANCH  11  13
ENDBRANCH   5  11
TORSDOF 5
ENDMDL
MODEL 4
REMARK VINA RESULT:      -5.9      1.629      1.629
REMARK  Name = 
REMARK  6 active torsions:
REMARK  status: ('A' for Active; 'I' for Inactive)
REMARK    1  A    between atoms: C_1  and  O_2
REMARK    2  A    between atoms: O_2  and  C_3
REMARK    3  A    between atoms: C_3  and  C_5
REMARK    4  A    between atoms: C_9  and  N_10
REMARK    5  A    between atoms: N_10  and  C_11
REMARK    6  A    between atoms: C_11  and  N_12
REMARK                            x       y       z     vdW  Elec       q    Type
REMARK                         _______ _______ _______ _____ _____    ______ ____
ROOT
ATOM      1  C   UNL     1       2.422   3.589  18.752  0.00  0.00    +0.000 A 
ATOM      2  C   UNL     1       2.021   4.798  18.170  0.00  0.00    +0.000 A 
ATOM      3  C   UNL     1       2.978   5.722  17.753  0.00  0.00    +0.000 A 
ATOM      4  C   UNL     1       4.336   5.430  17.889  0.00  0.00    +0.000 A 
ATOM      5  C   UNL     1       4.753   4.206  18.424  0.00  0.00    +0.000 A 
ATOM      6  C   UNL     1       3.791   3.311  18.899  0.00  0.00    +0.000 A 
ENDROOT
BRANCH   1   7
ATOM      7  C   UNL     1       1.371   2.619  19.166  0.00  0.00    +0.000 C 
ATOM      8  O   UNL     1       0.385   2.363  18.495  0.00  0.00    +0.000 OA
BRANCH   7  10
ATOM      9  C   UNL     1       1.337   2.812  21.501  0.00  0.00    +0.000 C 
ATOM     10  O   UNL     1       1.699   2.048  20.351  0.00  0.00    +0.000 OA
ENDBRANCH   7  10
ENDBRANCH   1   7
BRANCH   5  11
ATOM     11  N   UNL     1       6.139   3.960  18.465  0.00  0.00    +0.000 N 
ATOM     12  H   UNL     1       6.428   3.117  18.951  0.00  0.00    +0.000 HD
BRANCH  11  13
ATOM     13  C   UNL     1       7.191   4.678  18.002  0.00  0.00    +0.000 C 
ATOM     14  S   UNL     1       7.753   5.989  18.856  0.00  0.00    +0.000 S 
BRANCH  13  15
ATOM     15  N   UNL     1       7.749   4.364  16.817  0.00  0.00    +0.000 N 
ATOM     16  H   UNL     1       8.756   4.412  16.734  0.00  0.00    +0.000 HD
ATOM     17  H   UNL     1       7.318   3.596  16.313  0.00  0.00    +0.000 HD
ENDBRANCH  13  15
ENDBRANCH  11  13
ENDBRANCH   5  11
TORSDOF 5
ENDMDL
MODEL 5
REMARK VINA RESULT:      -5.9      4.105      5.842
REMARK  Name = 
REMARK  6 active torsions:
REMARK  status: ('A' for Active; 'I' for Inactive)
REMARK    1  A    between atoms: C_1  and  O_2
REMARK    2  A    between atoms: O_2  and  C_3
REMARK    3  A    between atoms: C_3  and  C_5
REMARK    4  A    between atoms: C_9  and  N_10
REMARK    5  A    between atoms: N_10  and  C_11
REMARK    6  A    between atoms: C_11  and  N_12
REMARK                            x       y       z     vdW  Elec       q    Type
REMARK                         _______ _______ _______ _____ _____    ______ ____
ROOT
ATOM      1  C   UNL     1       5.778   4.904  15.575  0.00  0.00    +0.000 A 
ATOM      2  C   UNL     1       5.288   6.182  15.868  0.00  0.00    +0.000 A 
ATOM      3  C   UNL     1       4.488   6.381  16.992  0.00  0.00    +0.000 A 
ATOM      4  C   UNL     1       4.200   5.311  17.841  0.00  0.00    +0.000 A 
ATOM      5  C   UNL     1       4.722   4.038  17.588  0.00  0.00    +0.000 A 
ATOM      6  C   UNL     1       5.470   3.831  16.427  0.00  0.00    +0.000 A 
ENDROOT
BRANCH   1   7
ATOM      7  C   UNL     1       6.646   4.735  14.376  0.00  0.00    +0.000 C 
ATOM      8  O   UNL     1       7.619   5.434  14.142  0.00  0.00    +0.000 OA
BRANCH   7  10
ATOM      9  C   UNL     1       6.643   3.710  12.269  0.00  0.00    +0.000 C 
ATOM     10  O   UNL     1       6.221   3.684  13.632  0.00  0.00    +0.000 OA
ENDBRANCH   7  10
ENDBRANCH   1   7
BRANCH   5  11
ATOM     11  N   UNL     1       4.441   3.028  18.529  0.00  0.00    +0.000 N 
ATOM     12  H   UNL     1       5.246   2.583  18.958  0.00  0.00    +0.000 HD
BRANCH  11  13
ATOM     13  C   UNL     1       3.268   2.496  18.949  0.00  0.00    +0.000 C 
ATOM     14  S   UNL     1       2.711   2.799  20.486  0.00  0.00    +0.000 S 
BRANCH  13  15
ATOM     15  N   UNL     1       2.576   1.673  18.138  0.00  0.00    +0.000 N 
ATOM     16  H   UNL     1       2.519   1.906  17.154  0.00  0.00    +0.000 HD
ATOM     17  H   UNL     1       2.660   0.681  18.334  0.00  0.00    +0.000 HD
ENDBRANCH  13  15
ENDBRANCH  11  13
ENDBRANCH   5  11
TORSDOF 5
ENDMDL
MODEL 6
REMARK VINA RESULT:      -5.8      4.140      5.752
REMARK  Name = 
REMARK  6 active torsions:
REMARK  status: ('A' for Active; 'I' for Inactive)
REMARK    1  A    between atoms: C_1  and  O_2
REMARK    2  A    between atoms: O_2  and  C_3
REMARK    3  A    between atoms: C_3  and  C_5
REMARK    4  A    between atoms: C_9  and  N_10
REMARK    5  A    between atoms: N_10  and  C_11
REMARK    6  A    between atoms: C_11  and  N_12
REMARK                            x       y       z     vdW  Elec       q    Type
REMARK                         _______ _______ _______ _____ _____    ______ ____
ROOT
ATOM      1  C   UNL     1       5.913   4.979  15.708  0.00  0.00    +0.000 A 
ATOM      2  C   UNL     1       5.309   6.239  15.793  0.00  0.00    +0.000 A 
ATOM      3  C   UNL     1       4.681   6.633  16.974  0.00  0.00    +0.000 A 
ATOM      4  C   UNL     1       4.681   5.782  18.080  0.00  0.00    +0.000 A 
ATOM      5  C   UNL     1       5.322   4.540  18.026  0.00  0.00    +0.000 A 
ATOM      6  C   UNL     1       5.893   4.124  16.822  0.00  0.00    +0.000 A 
ENDROOT
BRANCH   1   7
ATOM      7  C   UNL     1       6.590   4.602  14.436  0.00  0.00    +0.000 C 
ATOM      8  O   UNL     1       6.207   3.701  13.707  0.00  0.00    +0.000 OA
BRANCH   7  10
ATOM      9  C   UNL     1       8.112   5.422  12.854  0.00  0.00    +0.000 C 
ATOM     10  O   UNL     1       7.642   5.424  14.202  0.00  0.00    +0.000 OA
ENDBRANCH   7  10
ENDBRANCH   1   7
BRANCH   5  11
ATOM     11  N   UNL     1       5.335   3.770  19.206  0.00  0.00    +0.000 N 
ATOM     12  H   UNL     1       6.094   3.960  19.853  0.00  0.00    +0.000 HD
BRANCH  11  13
ATOM     13  C   UNL     1       4.528   2.768  19.632  0.00  0.00    +0.000 C 
ATOM     14  S   UNL     1       2.912   3.047  19.898  0.00  0.00    +0.000 S 
BRANCH  13  15
ATOM     15  N   UNL     1       5.049   1.554  19.894  0.00  0.00    +0.000 N 
ATOM     16  H   UNL     1       6.053   1.474  19.993  0.00  0.00    +0.000 HD
ATOM     17  H   UNL     1       4.513   0.968  20.526  0.00  0.00    +0.000 HD
ENDBRANCH  13  15
ENDBRANCH  11  13
ENDBRANCH   5  11
TORSDOF 5
ENDMDL
MODEL 7
REMARK VINA RESULT:      -5.8      4.178      5.820
REMARK  Name = 
REMARK  6 active torsions:
REMARK  status: ('A' for Active; 'I' for Inactive)
REMARK    1  A    between atoms: C_1  and  O_2
REMARK    2  A    between atoms: O_2  and  C_3
REMARK    3  A    between atoms: C_3  and  C_5
REMARK    4  A    between atoms: C_9  and  N_10
REMARK    5  A    between atoms: N_10  and  C_11
REMARK    6  A    between atoms: C_11  and  N_12
REMARK                            x       y       z     vdW  Elec       q    Type
REMARK                         _______ _______ _______ _____ _____    ______ ____
ROOT
ATOM      1  C   UNL     1       6.419   4.969  16.329  0.00  0.00    +0.000 A 
ATOM      2  C   UNL     1       7.275   5.701  17.161  0.00  0.00    +0.000 A 
ATOM      3  C   UNL     1       6.997   5.811  18.522  0.00  0.00    +0.000 A 
ATOM      4  C   UNL     1       5.882   5.166  19.061  0.00  0.00    +0.000 A 
ATOM      5  C   UNL     1       5.045   4.391  18.251  0.00  0.00    +0.000 A 
ATOM      6  C   UNL     1       5.291   4.337  16.877  0.00  0.00    +0.000 A 
ENDROOT
BRANCH   1   7
ATOM      7  C   UNL     1       6.760   4.859  14.883  0.00  0.00    +0.000 C 
ATOM      8  O   UNL     1       7.731   5.396  14.374  0.00  0.00    +0.000 OA
BRANCH   7  10
ATOM      9  C   UNL     1       6.267   3.642  12.942  0.00  0.00    +0.000 C 
ATOM     10  O   UNL     1       5.873   4.052  14.251  0.00  0.00    +0.000 OA
ENDBRANCH   7  10
ENDBRANCH   1   7
BRANCH   5  11
ATOM     11  N   UNL     1       3.980   3.719  18.883  0.00  0.00    +0.000 N 
ATOM     12  H   UNL     1       3.047   3.997  18.599  0.00  0.00    +0.000 HD
BRANCH  11  13
ATOM     13  C   UNL     1       3.968   2.776  19.856  0.00  0.00    +0.000 C 
ATOM     14  S   UNL     1       2.767   2.770  21.004  0.00  0.00    +0.000 S 
BRANCH  13  15
ATOM     15  N   UNL     1       4.964   1.872  19.926  0.00  0.00    +0.000 N 
ATOM     16  H   UNL     1       4.726   0.890  19.860  0.00  0.00    +0.000 HD
ATOM     17  H   UNL     1       5.831   2.129  19.466  0.00  0.00    +0.000 HD
ENDBRANCH  13  15
ENDBRANCH  11  13
ENDBRANCH   5  11
TORSDOF 5
ENDMDL
MODEL 8
REMARK VINA RESULT:      -5.8      3.992      5.572
REMARK  Name = 
REMARK  6 active torsions:
REMARK  status: ('A' for Active; 'I' for Inactive)
REMARK    1  A    between atoms: C_1  and  O_2
REMARK    2  A    between atoms: O_2  and  C_3
REMARK    3  A    between atoms: C_3  and  C_5
REMARK    4  A    between atoms: C_9  and  N_10
REMARK    5  A    between atoms: N_10  and  C_11
REMARK    6  A    between atoms: C_11  and  N_12
REMARK                            x       y       z     vdW  Elec       q    Type
REMARK                         _______ _______ _______ _____ _____    ______ ____
ROOT
ATOM      1  C   UNL     1       5.806   5.084  16.880  0.00  0.00    +0.000 A 
ATOM      2  C   UNL     1       5.402   6.389  17.187  0.00  0.00    +0.000 A 
ATOM      3  C   UNL     1       4.094   6.635  17.599  0.00  0.00    +0.000 A 
ATOM      4  C   UNL     1       3.194   5.576  17.733  0.00  0.00    +0.000 A 
ATOM      5  C   UNL     1       3.597   4.260  17.477  0.00  0.00    +0.000 A 
ATOM      6  C   UNL     1       4.890   4.027  17.004  0.00  0.00    +0.000 A 
ENDROOT
BRANCH   1   7
ATOM      7  C   UNL     1       7.218   4.859  16.463  0.00  0.00    +0.000 C 
ATOM      8  O   UNL     1       8.013   4.187  17.101  0.00  0.00    +0.000 OA
BRANCH   7  10
ATOM      9  C   UNL     1       6.966   4.758  14.135  0.00  0.00    +0.000 C 
ATOM     10  O   UNL     1       7.460   5.463  15.274  0.00  0.00    +0.000 OA
ENDBRANCH   7  10
ENDBRANCH   1   7
BRANCH   5  11
ATOM     11  N   UNL     1       2.649   3.242  17.701  0.00  0.00    +0.000 N 
ATOM     12  H   UNL     1       2.001   3.062  16.942  0.00  0.00    +0.000 HD
BRANCH  11  13
ATOM     13  C   UNL     1       2.407   2.467  18.786  0.00  0.00    +0.000 C 
ATOM     14  S   UNL     1       3.452   2.481  20.078  0.00  0.00    +0.000 S 
BRANCH  13  15
ATOM     15  N   UNL     1       1.345   1.639  18.794  0.00  0.00    +0.000 N 
ATOM     16  H   UNL     1       1.475   0.695  19.136  0.00  0.00    +0.000 HD
ATOM     17  H   UNL     1       0.455   2.059  19.042  0.00  0.00    +0.000 HD
ENDBRANCH  13  15
ENDBRANCH  11  13
ENDBRANCH   5  11
TORSDOF 5
ENDMDL
MODEL 9
REMARK VINA RESULT:      -5.8      4.031      5.485
REMARK  Name = 
REMARK  6 active torsions:
REMARK  status: ('A' for Active; 'I' for Inactive)
REMARK    1  A    between atoms: C_1  and  O_2
REMARK    2  A    between atoms: O_2  and  C_3
REMARK    3  A    between atoms: C_3  and  C_5
REMARK    4  A    between atoms: C_9  and  N_10
REMARK    5  A    between atoms: N_10  and  C_11
REMARK    6  A    between atoms: C_11  and  N_12
REMARK                            x       y       z     vdW  Elec       q    Type
REMARK                         _______ _______ _______ _____ _____    ______ ____
ROOT
ATOM      1  C   UNL     1       5.170   4.915  16.796  0.00  0.00    +0.000 A 
ATOM      2  C   UNL     1       5.134   6.277  17.117  0.00  0.00    +0.000 A 
ATOM      3  C   UNL     1       3.982   6.832  17.673  0.00  0.00    +0.000 A 
ATOM      4  C   UNL     1       2.875   6.022  17.935  0.00  0.00    +0.000 A 
ATOM      5  C   UNL     1       2.913   4.650  17.664  0.00  0.00    +0.000 A 
ATOM      6  C   UNL     1       4.046   4.112  17.050  0.00  0.00    +0.000 A 
ENDROOT
BRANCH   1   7
ATOM      7  C   UNL     1       6.426   4.355  16.223  0.00  0.00    +0.000 C 
ATOM      8  O   UNL     1       7.539   4.616  16.651  0.00  0.00    +0.000 OA
BRANCH   7  10
ATOM      9  C   UNL     1       6.288   4.053  13.903  0.00  0.00    +0.000 C 
ATOM     10  O   UNL     1       6.141   3.500  15.211  0.00  0.00    +0.000 OA
ENDBRANCH   7  10
ENDBRANCH   1   7
BRANCH   5  11
ATOM     11  N   UNL     1       1.781   3.892  18.020  0.00  0.00    +0.000 N 
ATOM     12  H   UNL     1       0.919   4.126  17.539  0.00  0.00    +0.000 HD
BRANCH  11  13
ATOM     13  C   UNL     1       1.612   2.912  18.941  0.00  0.00    +0.000 C 
ATOM     14  S   UNL     1       1.235   3.294  20.514  0.00  0.00    +0.000 S 
BRANCH  13  15
ATOM     15  N   UNL     1       1.805   1.625  18.593  0.00  0.00    +0.000 N 
ATOM     16  H   UNL     1       1.025   0.984  18.675  0.00  0.00    +0.000 HD
ATOM     17  H   UNL     1       2.401   1.466  17.788  0.00  0.00    +0.000 HD
ENDBRANCH  13  15
ENDBRANCH  11  13
ENDBRANCH   5  11
TORSDOF 5
ENDMDL
