MODEL 1
REMARK VINA RESULT:      -7.6      0.000      0.000
REMARK  Name = 
REMARK  6 active torsions:
REMARK  status: ('A' for Active; 'I' for Inactive)
REMARK    1  A    between atoms: C_1  and  N_2
REMARK    2  A    between atoms: N_2  and  C_16
REMARK    3  A    between atoms: C_3  and  C_5
REMARK    4  A    between atoms: C_10  and  N_11
REMARK    5  A    between atoms: N_20  and  C_21
REMARK    6  A    between atoms: C_21  and  C_22
REMARK                            x       y       z     vdW  Elec       q    Type
REMARK                         _______ _______ _______ _____ _____    ______ ____
ROOT
ATOM      1  C   UNL     1       1.160   9.050  22.732  0.00  0.00    +0.000 C 
ATOM      2  N   UNL     1       0.797   9.741  21.494  0.00  0.00    +0.000 N 
ATOM      3  C   UNL     1       0.098  10.961  21.633  0.00  0.00    +0.000 C 
ATOM      4  O   UNL     1      -0.221  11.406  22.735  0.00  0.00    +0.000 OA
ENDROOT
BRANCH   3   5
ATOM      5  C   UNL     1      -0.243  11.822  20.460  0.00  0.00    +0.000 A 
ATOM      6  C   UNL     1      -1.378  11.506  19.690  0.00  0.00    +0.000 A 
ATOM      7  C   UNL     1      -1.704  12.203  18.528  0.00  0.00    +0.000 A 
ATOM      8  C   UNL     1      -0.998  13.346  18.196  0.00  0.00    +0.000 A 
ATOM      9  C   UNL     1       0.018  13.791  19.039  0.00  0.00    +0.000 A 
ATOM     10  C   UNL     1       0.424  13.029  20.160  0.00  0.00    +0.000 A 
BRANCH  10  11
ATOM     11  N   UNL     1       1.489  13.568  20.926  0.00  0.00    +0.000 N 
ATOM     12  C   UNL     1       2.849  13.515  20.749  0.00  0.00    +0.000 A 
ATOM     13  N   UNL     1       3.442  14.209  21.696  0.00  0.00    +0.000 NA
ATOM     14  N   UNL     1       2.435  14.721  22.467  0.00  0.00    +0.000 NA
ATOM     15  N   UNL     1       1.249  14.396  21.977  0.00  0.00    +0.000 NA
ENDBRANCH  10  11
ENDBRANCH   3   5
BRANCH   2  16
ATOM     16  C   UNL     1       1.111   9.058  20.211  0.00  0.00    +0.000 C 
ATOM     17  C   UNL     1       1.592  10.021  19.119  0.00  0.00    +0.000 C 
ATOM     18  C   UNL     1       1.718   9.269  17.796  0.00  0.00    +0.000 C 
ATOM     19  C   UNL     1       2.639   8.052  17.935  0.00  0.00    +0.000 C 
ATOM     20  N   UNL     1       2.176   7.143  18.998  0.00  0.00    +0.000 NA
ATOM     21  C   UNL     1       2.081   7.854  20.293  0.00  0.00    +0.000 C 
BRANCH  20  22
ATOM     22  C   UNL     1       3.066   5.979  19.179  0.00  0.00    +0.000 C 
BRANCH  22  23
ATOM     23  C   UNL     1       2.402   4.624  19.062  0.00  0.00    +0.000 A 
ATOM     24  C   UNL     1       1.414   4.259  19.984  0.00  0.00    +0.000 A 
ATOM     25  C   UNL     1       0.757   3.037  19.866  0.00  0.00    +0.000 A 
ATOM     26  C   UNL     1       1.087   2.169  18.826  0.00  0.00    +0.000 A 
ATOM     27  C   UNL     1       2.074   2.521  17.907  0.00  0.00    +0.000 A 
ATOM     28  C   UNL     1       2.735   3.744  18.020  0.00  0.00    +0.000 A 
ENDBRANCH  22  23
ENDBRANCH  20  22
ENDBRANCH   2  16
TORSDOF 5
ENDMDL
MODEL 2
REMARK VINA RESULT:      -7.5      1.891      3.208
REMARK  Name = 
REMARK  6 active torsions:
REMARK  status: ('A' for Active; 'I' for Inactive)
REMARK    1  A    between atoms: C_1  and  N_2
REMARK    2  A    between atoms: N_2  and  C_16
REMARK    3  A    between atoms: C_3  and  C_5
REMARK    4  A    between atoms: C_10  and  N_11
REMARK    5  A    between atoms: N_20  and  C_21
REMARK    6  A    between atoms: C_21  and  C_22
REMARK                            x       y       z     vdW  Elec       q    Type
REMARK                         _______ _______ _______ _____ _____    ______ ____
ROOT
ATOM      1  C   UNL     1      -1.612  10.369  18.451  0.00  0.00    +0.000 C 
ATOM      2  N   UNL     1      -0.314  10.907  18.860  0.00  0.00    +0.000 N 
ATOM      3  C   UNL     1      -0.108  12.289  18.650  0.00  0.00    +0.000 C 
ATOM      4  O   UNL     1      -0.961  13.000  18.120  0.00  0.00    +0.000 OA
ENDROOT
BRANCH   3   5
ATOM      5  C   UNL     1       1.127  12.990  19.114  0.00  0.00    +0.000 A 
ATOM      6  C   UNL     1       2.097  13.360  18.164  0.00  0.00    +0.000 A 
ATOM      7  C   UNL     1       3.316  13.929  18.531  0.00  0.00    +0.000 A 
ATOM      8  C   UNL     1       3.528  14.300  19.847  0.00  0.00    +0.000 A 
ATOM      9  C   UNL     1       2.513  14.114  20.782  0.00  0.00    +0.000 A 
ATOM     10  C   UNL     1       1.317  13.439  20.439  0.00  0.00    +0.000 A 
BRANCH  10  11
ATOM     11  N   UNL     1       0.369  13.282  21.482  0.00  0.00    +0.000 N 
ATOM     12  C   UNL     1      -0.601  14.126  21.959  0.00  0.00    +0.000 A 
ATOM     13  N   UNL     1      -1.278  13.524  22.912  0.00  0.00    +0.000 NA
ATOM     14  N   UNL     1      -0.734  12.273  23.020  0.00  0.00    +0.000 NA
ATOM     15  N   UNL     1       0.219  12.091  22.119  0.00  0.00    +0.000 NA
ENDBRANCH  10  11
ENDBRANCH   3   5
BRANCH   2  16
ATOM     16  C   UNL     1       0.697   9.943  19.369  0.00  0.00    +0.000 C 
ATOM     17  C   UNL     1       0.202   9.134  20.574  0.00  0.00    +0.000 C 
ATOM     18  C   UNL     1       1.355   8.306  21.140  0.00  0.00    +0.000 C 
ATOM     19  C   UNL     1       1.975   7.410  20.062  0.00  0.00    +0.000 C 
ATOM     20  N   UNL     1       2.430   8.196  18.902  0.00  0.00    +0.000 NA
ATOM     21  C   UNL     1       1.313   8.978  18.327  0.00  0.00    +0.000 C 
BRANCH  20  22
ATOM     22  C   UNL     1       2.999   7.354  17.832  0.00  0.00    +0.000 C 
BRANCH  22  23
ATOM     23  C   UNL     1       3.095   5.876  18.145  0.00  0.00    +0.000 A 
ATOM     24  C   UNL     1       2.016   5.037  17.847  0.00  0.00    +0.000 A 
ATOM     25  C   UNL     1       2.101   3.667  18.083  0.00  0.00    +0.000 A 
ATOM     26  C   UNL     1       3.267   3.127  18.624  0.00  0.00    +0.000 A 
ATOM     27  C   UNL     1       4.345   3.956  18.929  0.00  0.00    +0.000 A 
ATOM     28  C   UNL     1       4.266   5.329  18.695  0.00  0.00    +0.000 A 
ENDBRANCH  22  23
ENDBRANCH  20  22
ENDBRANCH   2  16
TORSDOF 5
ENDMDL
MODEL 3
REMARK VINA RESULT:      -7.4      3.337      8.119
REMARK  Name = 
REMARK  6 active torsions:
REMARK  status: ('A' for Active; 'I' for Inactive)
REMARK    1  A    between atoms: C_1  and  N_2
REMARK    2  A    between atoms: N_2  and  C_16
REMARK    3  A    between atoms: C_3  and  C_5
REMARK    4  A    between atoms: C_10  and  N_11
REMARK    5  A    between atoms: N_20  and  C_21
REMARK    6  A    between atoms: C_21  and  C_22
REMARK                            x       y       z     vdW  Elec       q    Type
REMARK                         _______ _______ _______ _____ _____    ______ ____
ROOT
ATOM      1  C   UNL     1       3.614   9.080  17.430  0.00  0.00    +0.000 C 
ATOM      2  N   UNL     1       3.031   7.857  17.982  0.00  0.00    +0.000 N 
ATOM      3  C   UNL     1       3.581   6.636  17.534  0.00  0.00    +0.000 C 
ATOM      4  O   UNL     1       4.481   6.597  16.695  0.00  0.00    +0.000 OA
ENDROOT
BRANCH   3   5
ATOM      5  C   UNL     1       3.153   5.316  18.090  0.00  0.00    +0.000 A 
ATOM      6  C   UNL     1       1.822   4.898  17.905  0.00  0.00    +0.000 A 
ATOM      7  C   UNL     1       1.326   3.727  18.477  0.00  0.00    +0.000 A 
ATOM      8  C   UNL     1       2.195   2.855  19.111  0.00  0.00    +0.000 A 
ATOM      9  C   UNL     1       3.555   3.153  19.152  0.00  0.00    +0.000 A 
ATOM     10  C   UNL     1       4.047   4.389  18.669  0.00  0.00    +0.000 A 
BRANCH  10  11
ATOM     11  N   UNL     1       5.445   4.594  18.792  0.00  0.00    +0.000 N 
ATOM     12  C   UNL     1       6.474   4.370  17.913  0.00  0.00    +0.000 A 
ATOM     13  N   UNL     1       7.607   4.761  18.454  0.00  0.00    +0.000 NA
ATOM     14  N   UNL     1       7.279   5.255  19.686  0.00  0.00    +0.000 NA
ATOM     15  N   UNL     1       5.969   5.220  19.878  0.00  0.00    +0.000 NA
ENDBRANCH  10  11
ENDBRANCH   3   5
BRANCH   2  16
ATOM     16  C   UNL     1       1.860   8.005  18.887  0.00  0.00    +0.000 C 
ATOM     17  C   UNL     1       2.184   7.670  20.348  0.00  0.00    +0.000 C 
ATOM     18  C   UNL     1       0.895   7.673  21.169  0.00  0.00    +0.000 C 
ATOM     19  C   UNL     1       0.156   9.009  21.036  0.00  0.00    +0.000 C 
ATOM     20  N   UNL     1      -0.134   9.328  19.628  0.00  0.00    +0.000 NA
ATOM     21  C   UNL     1       1.112   9.359  18.829  0.00  0.00    +0.000 C 
BRANCH  20  22
ATOM     22  C   UNL     1      -0.813  10.629  19.467  0.00  0.00    +0.000 C 
BRANCH  22  23
ATOM     23  C   UNL     1      -1.900  10.672  18.415  0.00  0.00    +0.000 A 
ATOM     24  C   UNL     1      -3.010  11.502  18.605  0.00  0.00    +0.000 A 
ATOM     25  C   UNL     1      -3.999  11.593  17.628  0.00  0.00    +0.000 A 
ATOM     26  C   UNL     1      -3.885  10.849  16.454  0.00  0.00    +0.000 A 
ATOM     27  C   UNL     1      -2.785  10.016  16.259  0.00  0.00    +0.000 A 
ATOM     28  C   UNL     1      -1.792   9.921  17.234  0.00  0.00    +0.000 A 
ENDBRANCH  22  23
ENDBRANCH  20  22
ENDBRANCH   2  16
TORSDOF 5
ENDMDL
MODEL 4
REMARK VINA RESULT:      -7.4      1.582      2.188
REMARK  Name = 
REMARK  6 active torsions:
REMARK  status: ('A' for Active; 'I' for Inactive)
REMARK    1  A    between atoms: C_1  and  N_2
REMARK    2  A    between atoms: N_2  and  C_16
REMARK    3  A    between atoms: C_3  and  C_5
REMARK    4  A    between atoms: C_10  and  N_11
REMARK    5  A    between atoms: N_20  and  C_21
REMARK    6  A    between atoms: C_21  and  C_22
REMARK                            x       y       z     vdW  Elec       q    Type
REMARK                         _______ _______ _______ _____ _____    ______ ____
ROOT
ATOM      1  C   UNL     1       1.014   9.794  22.040  0.00  0.00    +0.000 C 
ATOM      2  N   UNL     1       0.453   9.806  20.689  0.00  0.00    +0.000 N 
ATOM      3  C   UNL     1      -0.680  10.625  20.482  0.00  0.00    +0.000 C 
ATOM      4  O   UNL     1      -1.191  11.269  21.397  0.00  0.00    +0.000 OA
ENDROOT
BRANCH   3   5
ATOM      5  C   UNL     1      -1.292  10.812  19.131  0.00  0.00    +0.000 A 
ATOM      6  C   UNL     1      -2.274   9.903  18.696  0.00  0.00    +0.000 A 
ATOM      7  C   UNL     1      -2.819   9.957  17.414  0.00  0.00    +0.000 A 
ATOM      8  C   UNL     1      -2.519  11.026  16.589  0.00  0.00    +0.000 A 
ATOM      9  C   UNL     1      -1.690  12.042  17.059  0.00  0.00    +0.000 A 
ATOM     10  C   UNL     1      -1.049  11.939  18.317  0.00  0.00    +0.000 A 
BRANCH  10  11
ATOM     11  N   UNL     1      -0.204  13.020  18.675  0.00  0.00    +0.000 N 
ATOM     12  C   UNL     1       1.138  13.226  18.476  0.00  0.00    +0.000 A 
ATOM     13  N   UNL     1       1.475  14.408  18.943  0.00  0.00    +0.000 NA
ATOM     14  N   UNL     1       0.320  14.960  19.425  0.00  0.00    +0.000 NA
ATOM     15  N   UNL     1      -0.713  14.160  19.212  0.00  0.00    +0.000 NA
ENDBRANCH  10  11
ENDBRANCH   3   5
BRANCH   2  16
ATOM     16  C   UNL     1       1.062   8.891  19.687  0.00  0.00    +0.000 C 
ATOM     17  C   UNL     1       1.902   9.626  18.634  0.00  0.00    +0.000 C 
ATOM     18  C   UNL     1       2.337   8.641  17.551  0.00  0.00    +0.000 C 
ATOM     19  C   UNL     1       3.088   7.449  18.154  0.00  0.00    +0.000 C 
ATOM     20  N   UNL     1       2.278   6.762  19.175  0.00  0.00    +0.000 NA
ATOM     21  C   UNL     1       1.877   7.701  20.248  0.00  0.00    +0.000 C 
BRANCH  20  22
ATOM     22  C   UNL     1       2.991   5.631  19.800  0.00  0.00    +0.000 C 
BRANCH  22  23
ATOM     23  C   UNL     1       2.780   4.283  19.144  0.00  0.00    +0.000 A 
ATOM     24  C   UNL     1       3.832   3.688  18.440  0.00  0.00    +0.000 A 
ATOM     25  C   UNL     1       3.675   2.427  17.868  0.00  0.00    +0.000 A 
ATOM     26  C   UNL     1       2.459   1.755  17.995  0.00  0.00    +0.000 A 
ATOM     27  C   UNL     1       1.404   2.343  18.689  0.00  0.00    +0.000 A 
ATOM     28  C   UNL     1       1.556   3.605  19.264  0.00  0.00    +0.000 A 
ENDBRANCH  22  23
ENDBRANCH  20  22
ENDBRANCH   2  16
TORSDOF 5
ENDMDL
MODEL 5
REMARK VINA RESULT:      -7.3      5.552      9.705
REMARK  Name = 
REMARK  6 active torsions:
REMARK  status: ('A' for Active; 'I' for Inactive)
REMARK    1  A    between atoms: C_1  and  N_2
REMARK    2  A    between atoms: N_2  and  C_16
REMARK    3  A    between atoms: C_3  and  C_5
REMARK    4  A    between atoms: C_10  and  N_11
REMARK    5  A    between atoms: N_20  and  C_21
REMARK    6  A    between atoms: C_21  and  C_22
REMARK                            x       y       z     vdW  Elec       q    Type
REMARK                         _______ _______ _______ _____ _____    ______ ____
ROOT
ATOM      1  C   UNL     1       6.748   4.853  15.723  0.00  0.00    +0.000 C 
ATOM      2  N   UNL     1       5.966   5.414  16.825  0.00  0.00    +0.000 N 
ATOM      3  C   UNL     1       4.581   5.138  16.821  0.00  0.00    +0.000 C 
ATOM      4  O   UNL     1       4.049   4.488  15.920  0.00  0.00    +0.000 OA
ENDROOT
BRANCH   3   5
ATOM      5  C   UNL     1       3.681   5.559  17.938  0.00  0.00    +0.000 A 
ATOM      6  C   UNL     1       3.096   6.838  17.895  0.00  0.00    +0.000 A 
ATOM      7  C   UNL     1       2.325   7.336  18.945  0.00  0.00    +0.000 A 
ATOM      8  C   UNL     1       1.978   6.502  19.994  0.00  0.00    +0.000 A 
ATOM      9  C   UNL     1       2.391   5.172  19.975  0.00  0.00    +0.000 A 
ATOM     10  C   UNL     1       3.262   4.691  18.969  0.00  0.00    +0.000 A 
BRANCH  10  11
ATOM     11  N   UNL     1       3.639   3.327  19.071  0.00  0.00    +0.000 N 
ATOM     12  C   UNL     1       3.102   2.195  18.512  0.00  0.00    +0.000 A 
ATOM     13  N   UNL     1       3.825   1.151  18.855  0.00  0.00    +0.000 NA
ATOM     14  N   UNL     1       4.842   1.641  19.627  0.00  0.00    +0.000 NA
ATOM     15  N   UNL     1       4.779   2.961  19.713  0.00  0.00    +0.000 NA
ENDBRANCH  10  11
ENDBRANCH   3   5
BRANCH   2  16
ATOM     16  C   UNL     1       6.677   6.294  17.790  0.00  0.00    +0.000 C 
ATOM     17  C   UNL     1       7.766   5.560  18.582  0.00  0.00    +0.000 C 
ATOM     18  C   UNL     1       8.317   6.484  19.667  0.00  0.00    +0.000 C 
ATOM     19  C   UNL     1       8.829   7.798  19.069  0.00  0.00    +0.000 C 
ATOM     20  N   UNL     1       7.779   8.485  18.296  0.00  0.00    +0.000 NA
ATOM     21  C   UNL     1       7.260   7.610  17.221  0.00  0.00    +0.000 C 
BRANCH  20  22
ATOM     22  C   UNL     1       8.255   9.738  17.677  0.00  0.00    +0.000 C 
BRANCH  22  23
ATOM     23  C   UNL     1       9.296  10.502  18.467  0.00  0.00    +0.000 A 
ATOM     24  C   UNL     1      10.400  11.048  17.804  0.00  0.00    +0.000 A 
ATOM     25  C   UNL     1      11.344  11.796  18.504  0.00  0.00    +0.000 A 
ATOM     26  C   UNL     1      11.191  11.998  19.875  0.00  0.00    +0.000 A 
ATOM     27  C   UNL     1      10.098  11.453  20.545  0.00  0.00    +0.000 A 
ATOM     28  C   UNL     1       9.149  10.704  19.849  0.00  0.00    +0.000 A 
ENDBRANCH  22  23
ENDBRANCH  20  22
ENDBRANCH   2  16
TORSDOF 5
ENDMDL
MODEL 6
REMARK VINA RESULT:      -7.3      0.675      1.214
REMARK  Name = 
REMARK  6 active torsions:
REMARK  status: ('A' for Active; 'I' for Inactive)
REMARK    1  A    between atoms: C_1  and  N_2
REMARK    2  A    between atoms: N_2  and  C_16
REMARK    3  A    between atoms: C_3  and  C_5
REMARK    4  A    between atoms: C_10  and  N_11
REMARK    5  A    between atoms: N_20  and  C_21
REMARK    6  A    between atoms: C_21  and  C_22
REMARK                            x       y       z     vdW  Elec       q    Type
REMARK                         _______ _______ _______ _____ _____    ______ ____
ROOT
ATOM      1  C   UNL     1       0.876   9.171  22.882  0.00  0.00    +0.000 C 
ATOM      2  N   UNL     1       0.600   9.774  21.578  0.00  0.00    +0.000 N 
ATOM      3  C   UNL     1      -0.087  11.008  21.584  0.00  0.00    +0.000 C 
ATOM      4  O   UNL     1      -0.466  11.535  22.629  0.00  0.00    +0.000 OA
ENDROOT
BRANCH   3   5
ATOM      5  C   UNL     1      -0.342  11.785  20.333  0.00  0.00    +0.000 A 
ATOM      6  C   UNL     1      -1.397  11.389  19.489  0.00  0.00    +0.000 A 
ATOM      7  C   UNL     1      -1.634  12.005  18.260  0.00  0.00    +0.000 A 
ATOM      8  C   UNL     1      -0.927  13.144  17.919  0.00  0.00    +0.000 A 
ATOM      9  C   UNL     1      -0.000  13.669  18.817  0.00  0.00    +0.000 A 
ATOM     10  C   UNL     1       0.322  12.990  20.016  0.00  0.00    +0.000 A 
BRANCH  10  11
ATOM     11  N   UNL     1       1.302  13.604  20.836  0.00  0.00    +0.000 N 
ATOM     12  C   UNL     1       1.207  14.616  21.758  0.00  0.00    +0.000 A 
ATOM     13  N   UNL     1       2.383  14.818  22.312  0.00  0.00    +0.000 NA
ATOM     14  N   UNL     1       3.224  13.903  21.739  0.00  0.00    +0.000 NA
ATOM     15  N   UNL     1       2.571  13.121  20.894  0.00  0.00    +0.000 NA
ENDBRANCH  10  11
ENDBRANCH   3   5
BRANCH   2  16
ATOM     16  C   UNL     1       0.983   8.995  20.370  0.00  0.00    +0.000 C 
ATOM     17  C   UNL     1       1.478   9.878  19.218  0.00  0.00    +0.000 C 
ATOM     18  C   UNL     1       1.676   9.022  17.968  0.00  0.00    +0.000 C 
ATOM     19  C   UNL     1       2.624   7.849  18.243  0.00  0.00    +0.000 C 
ATOM     20  N   UNL     1       2.146   7.019  19.362  0.00  0.00    +0.000 NA
ATOM     21  C   UNL     1       1.982   7.834  20.588  0.00  0.00    +0.000 C 
BRANCH  20  22
ATOM     22  C   UNL     1       3.060   5.903  19.674  0.00  0.00    +0.000 C 
BRANCH  22  23
ATOM     23  C   UNL     1       2.723   4.580  19.019  0.00  0.00    +0.000 A 
ATOM     24  C   UNL     1       3.715   3.884  18.320  0.00  0.00    +0.000 A 
ATOM     25  C   UNL     1       3.437   2.643  17.751  0.00  0.00    +0.000 A 
ATOM     26  C   UNL     1       2.163   2.092  17.875  0.00  0.00    +0.000 A 
ATOM     27  C   UNL     1       1.167   2.781  18.565  0.00  0.00    +0.000 A 
ATOM     28  C   UNL     1       1.439   4.024  19.137  0.00  0.00    +0.000 A 
ENDBRANCH  22  23
ENDBRANCH  20  22
ENDBRANCH   2  16
TORSDOF 5
ENDMDL
MODEL 7
REMARK VINA RESULT:      -7.2      3.325      8.369
REMARK  Name = 
REMARK  6 active torsions:
REMARK  status: ('A' for Active; 'I' for Inactive)
REMARK    1  A    between atoms: C_1  and  N_2
REMARK    2  A    between atoms: N_2  and  C_16
REMARK    3  A    between atoms: C_3  and  C_5
REMARK    4  A    between atoms: C_10  and  N_11
REMARK    5  A    between atoms: N_20  and  C_21
REMARK    6  A    between atoms: C_21  and  C_22
REMARK                            x       y       z     vdW  Elec       q    Type
REMARK                         _______ _______ _______ _____ _____    ______ ____
ROOT
ATOM      1  C   UNL     1       3.733   8.569  17.155  0.00  0.00    +0.000 C 
ATOM      2  N   UNL     1       3.272   7.327  17.774  0.00  0.00    +0.000 N 
ATOM      3  C   UNL     1       3.796   6.126  17.248  0.00  0.00    +0.000 C 
ATOM      4  O   UNL     1       4.575   6.119  16.295  0.00  0.00    +0.000 OA
ENDROOT
BRANCH   3   5
ATOM      5  C   UNL     1       3.492   4.792  17.849  0.00  0.00    +0.000 A 
ATOM      6  C   UNL     1       2.249   4.190  17.578  0.00  0.00    +0.000 A 
ATOM      7  C   UNL     1       1.857   2.994  18.180  0.00  0.00    +0.000 A 
ATOM      8  C   UNL     1       2.767   2.281  18.940  0.00  0.00    +0.000 A 
ATOM      9  C   UNL     1       4.067   2.761  19.078  0.00  0.00    +0.000 A 
ATOM     10  C   UNL     1       4.439   4.025  18.561  0.00  0.00    +0.000 A 
BRANCH  10  11
ATOM     11  N   UNL     1       5.782   4.421  18.791  0.00  0.00    +0.000 N 
ATOM     12  C   UNL     1       6.892   4.367  17.986  0.00  0.00    +0.000 A 
ATOM     13  N   UNL     1       7.917   4.900  18.615  0.00  0.00    +0.000 NA
ATOM     14  N   UNL     1       7.434   5.312  19.827  0.00  0.00    +0.000 NA
ATOM     15  N   UNL     1       6.132   5.088  19.921  0.00  0.00    +0.000 NA
ENDBRANCH  10  11
ENDBRANCH   3   5
BRANCH   2  16
ATOM     16  C   UNL     1       2.230   7.435  18.831  0.00  0.00    +0.000 C 
ATOM     17  C   UNL     1       2.583   6.656  20.104  0.00  0.00    +0.000 C 
ATOM     18  C   UNL     1       1.390   6.672  21.058  0.00  0.00    +0.000 C 
ATOM     19  C   UNL     1       0.946   8.106  21.366  0.00  0.00    +0.000 C 
ATOM     20  N   UNL     1       0.626   8.848  20.135  0.00  0.00    +0.000 NA
ATOM     21  C   UNL     1       1.786   8.867  19.216  0.00  0.00    +0.000 C 
BRANCH  20  22
ATOM     22  C   UNL     1       0.229  10.245  20.399  0.00  0.00    +0.000 C 
BRANCH  22  23
ATOM     23  C   UNL     1      -0.982  10.736  19.635  0.00  0.00    +0.000 A 
ATOM     24  C   UNL     1      -1.391  10.057  18.483  0.00  0.00    +0.000 A 
ATOM     25  C   UNL     1      -2.531  10.464  17.792  0.00  0.00    +0.000 A 
ATOM     26  C   UNL     1      -3.266  11.557  18.248  0.00  0.00    +0.000 A 
ATOM     27  C   UNL     1      -2.862  12.243  19.392  0.00  0.00    +0.000 A 
ATOM     28  C   UNL     1      -1.722  11.840  20.088  0.00  0.00    +0.000 A 
ENDBRANCH  22  23
ENDBRANCH  20  22
ENDBRANCH   2  16
TORSDOF 5
ENDMDL
MODEL 8
REMARK VINA RESULT:      -7.2      3.603      8.559
REMARK  Name = 
REMARK  6 active torsions:
REMARK  status: ('A' for Active; 'I' for Inactive)
REMARK    1  A    between atoms: C_1  and  N_2
REMARK    2  A    between atoms: N_2  and  C_16
REMARK    3  A    between atoms: C_3  and  C_5
REMARK    4  A    between atoms: C_10  and  N_11
REMARK    5  A    between atoms: N_20  and  C_21
REMARK    6  A    between atoms: C_21  and  C_22
REMARK                            x       y       z     vdW  Elec       q    Type
REMARK                         _______ _______ _______ _____ _____    ______ ____
ROOT
ATOM      1  C   UNL     1       4.355   7.723  16.093  0.00  0.00    +0.000 C 
ATOM      2  N   UNL     1       3.873   6.643  16.954  0.00  0.00    +0.000 N 
ATOM      3  C   UNL     1       4.357   5.347  16.673  0.00  0.00    +0.000 C 
ATOM      4  O   UNL     1       5.118   5.127  15.730  0.00  0.00    +0.000 OA
ENDROOT
BRANCH   3   5
ATOM      5  C   UNL     1       4.030   4.169  17.533  0.00  0.00    +0.000 A 
ATOM      6  C   UNL     1       2.901   3.390  17.220  0.00  0.00    +0.000 A 
ATOM      7  C   UNL     1       2.479   2.336  18.031  0.00  0.00    +0.000 A 
ATOM      8  C   UNL     1       3.273   1.927  19.087  0.00  0.00    +0.000 A 
ATOM      9  C   UNL     1       4.491   2.563  19.314  0.00  0.00    +0.000 A 
ATOM     10  C   UNL     1       4.873   3.700  18.563  0.00  0.00    +0.000 A 
BRANCH  10  11
ATOM     11  N   UNL     1       6.121   4.281  18.904  0.00  0.00    +0.000 N 
ATOM     12  C   UNL     1       7.286   4.409  18.191  0.00  0.00    +0.000 A 
ATOM     13  N   UNL     1       8.170   5.070  18.907  0.00  0.00    +0.000 NA
ATOM     14  N   UNL     1       7.540   5.377  20.082  0.00  0.00    +0.000 NA
ATOM     15  N   UNL     1       6.282   4.963  20.068  0.00  0.00    +0.000 NA
ENDBRANCH  10  11
ENDBRANCH   3   5
BRANCH   2  16
ATOM     16  C   UNL     1       2.854   6.990  17.981  0.00  0.00    +0.000 C 
ATOM     17  C   UNL     1       3.193   6.441  19.373  0.00  0.00    +0.000 C 
ATOM     18  C   UNL     1       2.017   6.686  20.317  0.00  0.00    +0.000 C 
ATOM     19  C   UNL     1       1.641   8.171  20.361  0.00  0.00    +0.000 C 
ATOM     20  N   UNL     1       1.334   8.690  19.016  0.00  0.00    +0.000 NA
ATOM     21  C   UNL     1       2.480   8.487  18.101  0.00  0.00    +0.000 C 
BRANCH  20  22
ATOM     22  C   UNL     1       1.003  10.128  19.024  0.00  0.00    +0.000 C 
BRANCH  22  23
ATOM     23  C   UNL     1      -0.429  10.471  18.674  0.00  0.00    +0.000 A 
ATOM     24  C   UNL     1      -1.090  11.478  19.386  0.00  0.00    +0.000 A 
ATOM     25  C   UNL     1      -2.392  11.841  19.050  0.00  0.00    +0.000 A 
ATOM     26  C   UNL     1      -3.043  11.195  18.000  0.00  0.00    +0.000 A 
ATOM     27  C   UNL     1      -2.395  10.187  17.290  0.00  0.00    +0.000 A 
ATOM     28  C   UNL     1      -1.091   9.819  17.622  0.00  0.00    +0.000 A 
ENDBRANCH  22  23
ENDBRANCH  20  22
ENDBRANCH   2  16
TORSDOF 5
ENDMDL
MODEL 9
REMARK VINA RESULT:      -7.2      2.517      3.910
REMARK  Name = 
REMARK  6 active torsions:
REMARK  status: ('A' for Active; 'I' for Inactive)
REMARK    1  A    between atoms: C_1  and  N_2
REMARK    2  A    between atoms: N_2  and  C_16
REMARK    3  A    between atoms: C_3  and  C_5
REMARK    4  A    between atoms: C_10  and  N_11
REMARK    5  A    between atoms: N_20  and  C_21
REMARK    6  A    between atoms: C_21  and  C_22
REMARK                            x       y       z     vdW  Elec       q    Type
REMARK                         _______ _______ _______ _____ _____    ______ ____
ROOT
ATOM      1  C   UNL     1      -1.377  10.260  17.998  0.00  0.00    +0.000 C 
ATOM      2  N   UNL     1      -0.186  10.814  18.642  0.00  0.00    +0.000 N 
ATOM      3  C   UNL     1      -0.017  12.214  18.560  0.00  0.00    +0.000 C 
ATOM      4  O   UNL     1      -0.810  12.931  17.949  0.00  0.00    +0.000 OA
ENDROOT
BRANCH   3   5
ATOM      5  C   UNL     1       1.097  12.925  19.259  0.00  0.00    +0.000 A 
ATOM      6  C   UNL     1       2.191  13.386  18.503  0.00  0.00    +0.000 A 
ATOM      7  C   UNL     1       3.309  13.971  19.097  0.00  0.00    +0.000 A 
ATOM      8  C   UNL     1       3.290  14.263  20.449  0.00  0.00    +0.000 A 
ATOM      9  C   UNL     1       2.146  13.984  21.193  0.00  0.00    +0.000 A 
ATOM     10  C   UNL     1       1.051  13.294  20.621  0.00  0.00    +0.000 A 
BRANCH  10  11
ATOM     11  N   UNL     1      -0.045  13.039  21.484  0.00  0.00    +0.000 N 
ATOM     12  C   UNL     1      -1.330  13.519  21.482  0.00  0.00    +0.000 A 
ATOM     13  N   UNL     1      -2.011  12.957  22.456  0.00  0.00    +0.000 NA
ATOM     14  N   UNL     1      -1.141  12.095  23.067  0.00  0.00    +0.000 NA
ATOM     15  N   UNL     1       0.030  12.086  22.450  0.00  0.00    +0.000 NA
ENDBRANCH  10  11
ENDBRANCH   3   5
BRANCH   2  16
ATOM     16  C   UNL     1       0.778   9.853  19.240  0.00  0.00    +0.000 C 
ATOM     17  C   UNL     1       0.306   9.286  20.584  0.00  0.00    +0.000 C 
ATOM     18  C   UNL     1       1.427   8.455  21.208  0.00  0.00    +0.000 C 
ATOM     19  C   UNL     1       1.897   7.353  20.253  0.00  0.00    +0.000 C 
ATOM     20  N   UNL     1       2.332   7.908  18.959  0.00  0.00    +0.000 NA
ATOM     21  C   UNL     1       1.242   8.690  18.331  0.00  0.00    +0.000 C 
BRANCH  20  22
ATOM     22  C   UNL     1       2.756   6.865  18.006  0.00  0.00    +0.000 C 
BRANCH  22  23
ATOM     23  C   UNL     1       4.218   6.477  18.070  0.00  0.00    +0.000 A 
ATOM     24  C   UNL     1       4.642   5.543  19.022  0.00  0.00    +0.000 A 
ATOM     25  C   UNL     1       5.974   5.137  19.067  0.00  0.00    +0.000 A 
ATOM     26  C   UNL     1       6.891   5.667  18.161  0.00  0.00    +0.000 A 
ATOM     27  C   UNL     1       6.479   6.601  17.213  0.00  0.00    +0.000 A 
ATOM     28  C   UNL     1       5.147   7.012  17.163  0.00  0.00    +0.000 A 
ENDBRANCH  22  23
ENDBRANCH  20  22
ENDBRANCH   2  16
TORSDOF 5
ENDMDL
