MODEL 1
REMARK VINA RESULT:      -7.5      0.000      0.000
REMARK  Name = 
REMARK  4 active torsions:
REMARK  status: ('A' for Active; 'I' for Inactive)
REMARK    1  A    between atoms: C_1  and  C_2
REMARK    2  A    between atoms: N_4  and  C_5
REMARK    3  A    between atoms: C_7  and  O_8
REMARK    4  A    between atoms: C_10  and  C_11
REMARK                            x       y       z     vdW  Elec       q    Type
REMARK                         _______ _______ _______ _____ _____    ______ ____
ROOT
ATOM      1  C   UNL     1       2.348   7.306  19.632  0.00  0.00    +0.000 C 
ATOM      2  C   UNL     1       2.333   5.825  19.643  0.00  0.00    +0.000 A 
ATOM      3  N   UNL     1       1.603   5.130  20.527  0.00  0.00    +0.000 NA
ATOM      4  N   UNL     1       1.851   3.839  20.209  0.00  0.00    +0.000 N 
ATOM      5  C   UNL     1       1.215   2.811  20.998  0.00  0.00    +0.000 C 
ATOM      6  C   UNL     1       2.709   3.680  19.155  0.00  0.00    +0.000 A 
ATOM      7  C   UNL     1       3.265   2.632  18.449  0.00  0.00    +0.000 A 
ATOM      8  N   UNL     1       4.109   2.900  17.438  0.00  0.00    +0.000 NA
ATOM      9  C   UNL     1       4.392   4.188  17.146  0.00  0.00    +0.000 A 
ATOM     10  N   UNL     1       3.884   5.261  17.770  0.00  0.00    +0.000 NA
ATOM     11  C   UNL     1       3.042   4.970  18.776  0.00  0.00    +0.000 A 
ENDROOT
BRANCH   9  12
ATOM     12  C   UNL     1       5.363   4.454  16.074  0.00  0.00    +0.000 A 
ATOM     13  C   UNL     1       5.267   3.886  14.795  0.00  0.00    +0.000 A 
ATOM     14  C   UNL     1       6.231   4.156  13.823  0.00  0.00    +0.000 A 
ATOM     15  C   UNL     1       7.282   4.996  14.151  0.00  0.00    +0.000 A 
ATOM     16  N   UNL     1       7.421   5.575  15.359  0.00  0.00    +0.000 NA
ATOM     17  C   UNL     1       6.464   5.291  16.280  0.00  0.00    +0.000 A 
ENDBRANCH   9  12
BRANCH   7  18
ATOM     18  O   UNL     1       3.044   1.300  18.678  0.00  0.00    +0.000 OA
ATOM     19  H   UNL     1       3.726   0.958  19.267  0.00  0.00    +0.000 HD
ENDBRANCH   7  18
TORSDOF 2
ENDMDL
MODEL 2
REMARK VINA RESULT:      -7.1      1.139      1.195
REMARK  Name = 
REMARK  4 active torsions:
REMARK  status: ('A' for Active; 'I' for Inactive)
REMARK    1  A    between atoms: C_1  and  C_2
REMARK    2  A    between atoms: N_4  and  C_5
REMARK    3  A    between atoms: C_7  and  O_8
REMARK    4  A    between atoms: C_10  and  C_11
REMARK                            x       y       z     vdW  Elec       q    Type
REMARK                         _______ _______ _______ _____ _____    ______ ____
ROOT
ATOM      1  C   UNL     1       2.496   8.083  18.214  0.00  0.00    +0.000 C 
ATOM      2  C   UNL     1       2.748   6.713  18.719  0.00  0.00    +0.000 A 
ATOM      3  N   UNL     1       2.214   6.272  19.867  0.00  0.00    +0.000 NA
ATOM      4  N   UNL     1       2.670   5.003  19.969  0.00  0.00    +0.000 N 
ATOM      5  C   UNL     1       2.283   4.233  21.127  0.00  0.00    +0.000 C 
ATOM      6  C   UNL     1       3.472   4.613  18.930  0.00  0.00    +0.000 A 
ATOM      7  C   UNL     1       4.160   3.478  18.550  0.00  0.00    +0.000 A 
ATOM      8  N   UNL     1       4.875   3.498  17.412  0.00  0.00    +0.000 NA
ATOM      9  C   UNL     1       4.901   4.629  16.675  0.00  0.00    +0.000 A 
ATOM     10  N   UNL     1       4.249   5.765  16.965  0.00  0.00    +0.000 NA
ATOM     11  C   UNL     1       3.541   5.724  18.106  0.00  0.00    +0.000 A 
ENDROOT
BRANCH   9  12
ATOM     12  C   UNL     1       5.736   4.644  15.465  0.00  0.00    +0.000 A 
ATOM     13  C   UNL     1       5.442   3.887  14.322  0.00  0.00    +0.000 A 
ATOM     14  C   UNL     1       6.283   3.922  13.210  0.00  0.00    +0.000 A 
ATOM     15  C   UNL     1       7.413   4.720  13.262  0.00  0.00    +0.000 A 
ATOM     16  N   UNL     1       7.741   5.474  14.328  0.00  0.00    +0.000 NA
ATOM     17  C   UNL     1       6.900   5.416  15.393  0.00  0.00    +0.000 A 
ENDBRANCH   9  12
BRANCH   7  18
ATOM     18  O   UNL     1       4.198   2.293  19.235  0.00  0.00    +0.000 OA
ATOM     19  H   UNL     1       3.327   2.105  19.601  0.00  0.00    +0.000 HD
ENDBRANCH   7  18
TORSDOF 2
ENDMDL
MODEL 3
REMARK VINA RESULT:      -6.7      3.927      6.404
REMARK  Name = 
REMARK  4 active torsions:
REMARK  status: ('A' for Active; 'I' for Inactive)
REMARK    1  A    between atoms: C_1  and  C_2
REMARK    2  A    between atoms: N_4  and  C_5
REMARK    3  A    between atoms: C_7  and  O_8
REMARK    4  A    between atoms: C_10  and  C_11
REMARK                            x       y       z     vdW  Elec       q    Type
REMARK                         _______ _______ _______ _____ _____    ______ ____
ROOT
ATOM      1  C   UNL     1      -0.092   9.578  23.155  0.00  0.00    +0.000 C 
ATOM      2  C   UNL     1       0.282   9.914  21.761  0.00  0.00    +0.000 A 
ATOM      3  N   UNL     1       0.013  11.113  21.225  0.00  0.00    +0.000 NA
ATOM      4  N   UNL     1       0.507  11.024  19.970  0.00  0.00    +0.000 N 
ATOM      5  C   UNL     1       0.364  12.168  19.101  0.00  0.00    +0.000 C 
ATOM      6  C   UNL     1       1.084   9.817  19.681  0.00  0.00    +0.000 A 
ATOM      7  C   UNL     1       1.717   9.225  18.606  0.00  0.00    +0.000 A 
ATOM      8  N   UNL     1       2.153   7.959  18.720  0.00  0.00    +0.000 NA
ATOM      9  C   UNL     1       1.955   7.301  19.882  0.00  0.00    +0.000 A 
ATOM     10  N   UNL     1       1.365   7.807  20.976  0.00  0.00    +0.000 NA
ATOM     11  C   UNL     1       0.938   9.073  20.841  0.00  0.00    +0.000 A 
ENDROOT
BRANCH   9  12
ATOM     12  C   UNL     1       2.389   5.899  19.963  0.00  0.00    +0.000 A 
ATOM     13  C   UNL     1       1.722   4.933  20.731  0.00  0.00    +0.000 A 
ATOM     14  C   UNL     1       2.193   3.621  20.790  0.00  0.00    +0.000 A 
ATOM     15  C   UNL     1       3.333   3.297  20.074  0.00  0.00    +0.000 A 
ATOM     16  N   UNL     1       4.010   4.179  19.315  0.00  0.00    +0.000 NA
ATOM     17  C   UNL     1       3.523   5.446  19.280  0.00  0.00    +0.000 A 
ENDBRANCH   9  12
BRANCH   7  18
ATOM     18  O   UNL     1       1.954   9.810  17.390  0.00  0.00    +0.000 OA
ATOM     19  H   UNL     1       1.300   9.501  16.753  0.00  0.00    +0.000 HD
ENDBRANCH   7  18
TORSDOF 2
ENDMDL
MODEL 4
REMARK VINA RESULT:      -6.7      1.959      2.878
REMARK  Name = 
REMARK  4 active torsions:
REMARK  status: ('A' for Active; 'I' for Inactive)
REMARK    1  A    between atoms: C_1  and  C_2
REMARK    2  A    between atoms: N_4  and  C_5
REMARK    3  A    between atoms: C_7  and  O_8
REMARK    4  A    between atoms: C_10  and  C_11
REMARK                            x       y       z     vdW  Elec       q    Type
REMARK                         _______ _______ _______ _____ _____    ______ ____
ROOT
ATOM      1  C   UNL     1       3.445   1.358  18.629  0.00  0.00    +0.000 C 
ATOM      2  C   UNL     1       3.286   2.827  18.730  0.00  0.00    +0.000 A 
ATOM      3  N   UNL     1       2.553   3.395  19.697  0.00  0.00    +0.000 NA
ATOM      4  N   UNL     1       2.660   4.720  19.449  0.00  0.00    +0.000 N 
ATOM      5  C   UNL     1       1.960   5.633  20.321  0.00  0.00    +0.000 C 
ATOM      6  C   UNL     1       3.435   5.023  18.363  0.00  0.00    +0.000 A 
ATOM      7  C   UNL     1       3.862   6.160  17.706  0.00  0.00    +0.000 A 
ATOM      8  N   UNL     1       4.643   6.032  16.620  0.00  0.00    +0.000 NA
ATOM      9  C   UNL     1       4.984   4.795  16.200  0.00  0.00    +0.000 A 
ATOM     10  N   UNL     1       4.627   3.644  16.789  0.00  0.00    +0.000 NA
ATOM     11  C   UNL     1       3.847   3.794  17.873  0.00  0.00    +0.000 A 
ENDROOT
BRANCH   9  12
ATOM     12  C   UNL     1       5.791   4.680  14.977  0.00  0.00    +0.000 A 
ATOM     13  C   UNL     1       5.433   3.859  13.897  0.00  0.00    +0.000 A 
ATOM     14  C   UNL     1       6.250   3.770  12.770  0.00  0.00    +0.000 A 
ATOM     15  C   UNL     1       7.420   4.509  12.743  0.00  0.00    +0.000 A 
ATOM     16  N   UNL     1       7.811   5.318  13.746  0.00  0.00    +0.000 NA
ATOM     17  C   UNL     1       6.992   5.381  14.827  0.00  0.00    +0.000 A 
ENDBRANCH   9  12
BRANCH   7  18
ATOM     18  O   UNL     1       3.561   7.450  18.052  0.00  0.00    +0.000 OA
ATOM     19  H   UNL     1       2.811   7.453  18.658  0.00  0.00    +0.000 HD
ENDBRANCH   7  18
TORSDOF 2
ENDMDL
MODEL 5
REMARK VINA RESULT:      -6.5      2.565      6.015
REMARK  Name = 
REMARK  4 active torsions:
REMARK  status: ('A' for Active; 'I' for Inactive)
REMARK    1  A    between atoms: C_1  and  C_2
REMARK    2  A    between atoms: N_4  and  C_5
REMARK    3  A    between atoms: C_7  and  O_8
REMARK    4  A    between atoms: C_10  and  C_11
REMARK                            x       y       z     vdW  Elec       q    Type
REMARK                         _______ _______ _______ _____ _____    ______ ____
ROOT
ATOM      1  C   UNL     1       2.010   2.692  18.303  0.00  0.00    +0.000 C 
ATOM      2  C   UNL     1       3.089   3.498  17.689  0.00  0.00    +0.000 A 
ATOM      3  N   UNL     1       4.104   2.933  17.021  0.00  0.00    +0.000 NA
ATOM      4  N   UNL     1       4.855   3.984  16.621  0.00  0.00    +0.000 N 
ATOM      5  C   UNL     1       6.059   3.713  15.872  0.00  0.00    +0.000 C 
ATOM      6  C   UNL     1       4.360   5.201  17.005  0.00  0.00    +0.000 A 
ATOM      7  C   UNL     1       4.709   6.529  16.862  0.00  0.00    +0.000 A 
ATOM      8  N   UNL     1       3.931   7.472  17.421  0.00  0.00    +0.000 NA
ATOM      9  C   UNL     1       2.833   7.092  18.109  0.00  0.00    +0.000 A 
ATOM     10  N   UNL     1       2.417   5.829  18.280  0.00  0.00    +0.000 NA
ATOM     11  C   UNL     1       3.208   4.902  17.713  0.00  0.00    +0.000 A 
ENDROOT
BRANCH   9  12
ATOM     12  C   UNL     1       2.031   8.139  18.760  0.00  0.00    +0.000 A 
ATOM     13  C   UNL     1       1.530   9.256  18.076  0.00  0.00    +0.000 A 
ATOM     14  C   UNL     1       0.794  10.231  18.749  0.00  0.00    +0.000 A 
ATOM     15  C   UNL     1       0.571  10.069  20.106  0.00  0.00    +0.000 A 
ATOM     16  N   UNL     1       1.021   9.015  20.813  0.00  0.00    +0.000 NA
ATOM     17  C   UNL     1       1.733   8.085  20.125  0.00  0.00    +0.000 A 
ENDBRANCH   9  12
BRANCH   7  18
ATOM     18  O   UNL     1       5.804   7.006  16.192  0.00  0.00    +0.000 OA
ATOM     19  H   UNL     1       6.604   6.634  16.579  0.00  0.00    +0.000 HD
ENDBRANCH   7  18
TORSDOF 2
ENDMDL
MODEL 6
REMARK VINA RESULT:      -6.5      3.969      6.354
REMARK  Name = 
REMARK  4 active torsions:
REMARK  status: ('A' for Active; 'I' for Inactive)
REMARK    1  A    between atoms: C_1  and  C_2
REMARK    2  A    between atoms: N_4  and  C_5
REMARK    3  A    between atoms: C_7  and  O_8
REMARK    4  A    between atoms: C_10  and  C_11
REMARK                            x       y       z     vdW  Elec       q    Type
REMARK                         _______ _______ _______ _____ _____    ______ ____
ROOT
ATOM      1  C   UNL     1      -0.058   9.471  23.131  0.00  0.00    +0.000 C 
ATOM      2  C   UNL     1       0.260   9.841  21.733  0.00  0.00    +0.000 A 
ATOM      3  N   UNL     1      -0.099  11.023  21.213  0.00  0.00    +0.000 NA
ATOM      4  N   UNL     1       0.370  10.976  19.946  0.00  0.00    +0.000 N 
ATOM      5  C   UNL     1       0.133  12.115  19.091  0.00  0.00    +0.000 C 
ATOM      6  C   UNL     1       1.019   9.812  19.634  0.00  0.00    +0.000 A 
ATOM      7  C   UNL     1       1.665   9.272  18.540  0.00  0.00    +0.000 A 
ATOM      8  N   UNL     1       2.186   8.037  18.634  0.00  0.00    +0.000 NA
ATOM      9  C   UNL     1       2.059   7.359  19.794  0.00  0.00    +0.000 A 
ATOM     10  N   UNL     1       1.463   7.816  20.905  0.00  0.00    +0.000 NA
ATOM     11  C   UNL     1       0.949   9.052  20.790  0.00  0.00    +0.000 A 
ENDROOT
BRANCH   9  12
ATOM     12  C   UNL     1       2.587   5.988  19.853  0.00  0.00    +0.000 A 
ATOM     13  C   UNL     1       3.771   5.594  19.213  0.00  0.00    +0.000 A 
ATOM     14  C   UNL     1       4.213   4.273  19.283  0.00  0.00    +0.000 A 
ATOM     15  C   UNL     1       3.455   3.361  19.997  0.00  0.00    +0.000 A 
ATOM     16  N   UNL     1       2.315   3.683  20.638  0.00  0.00    +0.000 NA
ATOM     17  C   UNL     1       1.915   4.978  20.549  0.00  0.00    +0.000 A 
ENDBRANCH   9  12
BRANCH   7  18
ATOM     18  O   UNL     1       1.835   9.880  17.325  0.00  0.00    +0.000 OA
ATOM     19  H   UNL     1       1.041   9.759  16.792  0.00  0.00    +0.000 HD
ENDBRANCH   7  18
TORSDOF 2
ENDMDL
MODEL 7
REMARK VINA RESULT:      -6.5      2.014      5.948
REMARK  Name = 
REMARK  4 active torsions:
REMARK  status: ('A' for Active; 'I' for Inactive)
REMARK    1  A    between atoms: C_1  and  C_2
REMARK    2  A    between atoms: N_4  and  C_5
REMARK    3  A    between atoms: C_7  and  O_8
REMARK    4  A    between atoms: C_10  and  C_11
REMARK                            x       y       z     vdW  Elec       q    Type
REMARK                         _______ _______ _______ _____ _____    ______ ____
ROOT
ATOM      1  C   UNL     1       8.022   5.718  19.465  0.00  0.00    +0.000 C 
ATOM      2  C   UNL     1       7.320   5.318  18.225  0.00  0.00    +0.000 A 
ATOM      3  N   UNL     1       7.851   5.523  17.012  0.00  0.00    +0.000 NA
ATOM      4  N   UNL     1       6.924   5.024  16.163  0.00  0.00    +0.000 N 
ATOM      5  C   UNL     1       7.188   5.103  14.746  0.00  0.00    +0.000 C 
ATOM      6  C   UNL     1       5.821   4.505  16.785  0.00  0.00    +0.000 A 
ATOM      7  C   UNL     1       4.640   3.893  16.413  0.00  0.00    +0.000 A 
ATOM      8  N   UNL     1       3.769   3.521  17.366  0.00  0.00    +0.000 NA
ATOM      9  C   UNL     1       4.073   3.760  18.660  0.00  0.00    +0.000 A 
ATOM     10  N   UNL     1       5.202   4.332  19.105  0.00  0.00    +0.000 NA
ATOM     11  C   UNL     1       6.058   4.696  18.136  0.00  0.00    +0.000 A 
ENDROOT
BRANCH   9  12
ATOM     12  C   UNL     1       3.079   3.395  19.680  0.00  0.00    +0.000 A 
ATOM     13  C   UNL     1       1.707   3.650  19.539  0.00  0.00    +0.000 A 
ATOM     14  C   UNL     1       0.811   3.304  20.550  0.00  0.00    +0.000 A 
ATOM     15  C   UNL     1       1.308   2.705  21.695  0.00  0.00    +0.000 A 
ATOM     16  N   UNL     1       2.613   2.430  21.883  0.00  0.00    +0.000 NA
ATOM     17  C   UNL     1       3.456   2.780  20.878  0.00  0.00    +0.000 A 
ENDBRANCH   9  12
BRANCH   7  18
ATOM     18  O   UNL     1       4.245   3.618  15.131  0.00  0.00    +0.000 OA
ATOM     19  H   UNL     1       3.995   2.690  15.064  0.00  0.00    +0.000 HD
ENDBRANCH   7  18
TORSDOF 2
ENDMDL
MODEL 8
REMARK VINA RESULT:      -6.4      2.665      6.038
REMARK  Name = 
REMARK  4 active torsions:
REMARK  status: ('A' for Active; 'I' for Inactive)
REMARK    1  A    between atoms: C_1  and  C_2
REMARK    2  A    between atoms: N_4  and  C_5
REMARK    3  A    between atoms: C_7  and  O_8
REMARK    4  A    between atoms: C_10  and  C_11
REMARK                            x       y       z     vdW  Elec       q    Type
REMARK                         _______ _______ _______ _____ _____    ______ ____
ROOT
ATOM      1  C   UNL     1       1.955   2.706  18.370  0.00  0.00    +0.000 C 
ATOM      2  C   UNL     1       3.033   3.503  17.742  0.00  0.00    +0.000 A 
ATOM      3  N   UNL     1       4.030   2.928  17.054  0.00  0.00    +0.000 NA
ATOM      4  N   UNL     1       4.787   3.972  16.646  0.00  0.00    +0.000 N 
ATOM      5  C   UNL     1       5.974   3.690  15.875  0.00  0.00    +0.000 C 
ATOM      6  C   UNL     1       4.313   5.193  17.043  0.00  0.00    +0.000 A 
ATOM      7  C   UNL     1       4.675   6.518  16.900  0.00  0.00    +0.000 A 
ATOM      8  N   UNL     1       3.918   7.467  17.476  0.00  0.00    +0.000 NA
ATOM      9  C   UNL     1       2.827   7.098  18.180  0.00  0.00    +0.000 A 
ATOM     10  N   UNL     1       2.399   5.838  18.353  0.00  0.00    +0.000 NA
ATOM     11  C   UNL     1       3.169   4.905  17.769  0.00  0.00    +0.000 A 
ENDROOT
BRANCH   9  12
ATOM     12  C   UNL     1       2.049   8.151  18.849  0.00  0.00    +0.000 A 
ATOM     13  C   UNL     1       1.677   8.088  20.199  0.00  0.00    +0.000 A 
ATOM     14  C   UNL     1       0.916   9.106  20.776  0.00  0.00    +0.000 A 
ATOM     15  C   UNL     1       0.538  10.176  19.983  0.00  0.00    +0.000 A 
ATOM     16  N   UNL     1       0.871  10.293  18.684  0.00  0.00    +0.000 NA
ATOM     17  C   UNL     1       1.613   9.285  18.156  0.00  0.00    +0.000 A 
ENDBRANCH   9  12
BRANCH   7  18
ATOM     18  O   UNL     1       5.764   6.984  16.213  0.00  0.00    +0.000 OA
ATOM     19  H   UNL     1       6.565   6.796  16.715  0.00  0.00    +0.000 HD
ENDBRANCH   7  18
TORSDOF 2
ENDMDL
MODEL 9
REMARK VINA RESULT:      -6.4      0.691      1.121
REMARK  Name = 
REMARK  4 active torsions:
REMARK  status: ('A' for Active; 'I' for Inactive)
REMARK    1  A    between atoms: C_1  and  C_2
REMARK    2  A    between atoms: N_4  and  C_5
REMARK    3  A    between atoms: C_7  and  O_8
REMARK    4  A    between atoms: C_10  and  C_11
REMARK                            x       y       z     vdW  Elec       q    Type
REMARK                         _______ _______ _______ _____ _____    ______ ____
ROOT
ATOM      1  C   UNL     1       2.308   7.260  19.789  0.00  0.00    +0.000 C 
ATOM      2  C   UNL     1       2.282   5.779  19.781  0.00  0.00    +0.000 A 
ATOM      3  N   UNL     1       1.546   5.079  20.656  0.00  0.00    +0.000 NA
ATOM      4  N   UNL     1       1.785   3.791  20.323  0.00  0.00    +0.000 N 
ATOM      5  C   UNL     1       1.141   2.757  21.098  0.00  0.00    +0.000 C 
ATOM      6  C   UNL     1       2.643   3.638  19.268  0.00  0.00    +0.000 A 
ATOM      7  C   UNL     1       3.193   2.594  18.549  0.00  0.00    +0.000 A 
ATOM      8  N   UNL     1       4.040   2.869  17.543  0.00  0.00    +0.000 NA
ATOM      9  C   UNL     1       4.333   4.158  17.267  0.00  0.00    +0.000 A 
ATOM     10  N   UNL     1       3.831   5.227  17.904  0.00  0.00    +0.000 NA
ATOM     11  C   UNL     1       2.986   4.930  18.905  0.00  0.00    +0.000 A 
ENDROOT
BRANCH   9  12
ATOM     12  C   UNL     1       5.306   4.431  16.200  0.00  0.00    +0.000 A 
ATOM     13  C   UNL     1       6.172   5.534  16.216  0.00  0.00    +0.000 A 
ATOM     14  C   UNL     1       7.060   5.757  15.164  0.00  0.00    +0.000 A 
ATOM     15  C   UNL     1       7.066   4.865  14.105  0.00  0.00    +0.000 A 
ATOM     16  N   UNL     1       6.264   3.785  14.039  0.00  0.00    +0.000 NA
ATOM     17  C   UNL     1       5.413   3.599  15.081  0.00  0.00    +0.000 A 
ENDBRANCH   9  12
BRANCH   7  18
ATOM     18  O   UNL     1       2.962   1.261  18.762  0.00  0.00    +0.000 OA
ATOM     19  H   UNL     1       2.466   0.899  18.019  0.00  0.00    +0.000 HD
ENDBRANCH   7  18
TORSDOF 2
ENDMDL
