MODEL 1
REMARK VINA RESULT:      -7.1      0.000      0.000
REMARK  Name = 
REMARK  6 active torsions:
REMARK  status: ('A' for Active; 'I' for Inactive)
REMARK    1  A    between atoms: C_2  and  C_4
REMARK    2  A    between atoms: C_4  and  S_5
REMARK    3  A    between atoms: S_5  and  C_7
REMARK    4  A    between atoms: C_7  and  C_8
REMARK    5  A    between atoms: C_11  and  O_12
REMARK    6  A    between atoms: O_12  and  C_13
REMARK                            x       y       z     vdW  Elec       q    Type
REMARK                         _______ _______ _______ _____ _____    ______ ____
ROOT
ATOM      1  C   UNL     1       2.202   6.493  19.690  0.00  0.00    +0.000 A 
ATOM      2  C   UNL     1       1.559   7.257  20.675  0.00  0.00    +0.000 A 
ATOM      3  C   UNL     1       1.212   8.584  20.418  0.00  0.00    +0.000 A 
ATOM      4  C   UNL     1       1.516   9.168  19.188  0.00  0.00    +0.000 A 
ATOM      5  C   UNL     1       2.153   8.410  18.202  0.00  0.00    +0.000 A 
ATOM      6  C   UNL     1       2.523   7.091  18.464  0.00  0.00    +0.000 A 
ENDROOT
BRANCH   1   7
ATOM      7  C   UNL     1       2.464   5.024  19.900  0.00  0.00    +0.000 C 
BRANCH   7   8
ATOM      8  S   UNL     1       2.681   4.116  18.328  0.00  0.00    +0.000 S 
ATOM      9  O   UNL     1       1.254   3.941  17.681  0.00  0.00    +0.000 OA
BRANCH   8  10
ATOM     10  C   UNL     1       3.150   2.516  19.053  0.00  0.00    +0.000 C 
BRANCH  10  12
ATOM     11  N   UNL     1       5.423   3.384  18.953  0.00  0.00    +0.000 N 
ATOM     12  C   UNL     1       4.545   2.579  19.621  0.00  0.00    +0.000 C 
ATOM     13  O   UNL     1       4.908   1.909  20.586  0.00  0.00    +0.000 OA
ATOM     14  H   UNL     1       6.324   3.520  19.390  0.00  0.00    +0.000 HD
ATOM     15  H   UNL     1       5.048   4.178  18.430  0.00  0.00    +0.000 HD
ENDBRANCH  10  12
ENDBRANCH   8  10
ENDBRANCH   7   8
ENDBRANCH   1   7
BRANCH   4  16
ATOM     16  O   UNL     1       1.080  10.461  19.017  0.00  0.00    +0.000 OA
BRANCH  16  17
ATOM     17  C   UNL     1      -0.246  10.713  18.755  0.00  0.00    +0.000 A 
ATOM     18  C   UNL     1      -0.870  11.639  19.595  0.00  0.00    +0.000 A 
ATOM     19  C   UNL     1      -2.209  11.976  19.396  0.00  0.00    +0.000 A 
ATOM     20  C   UNL     1      -2.932  11.383  18.357  0.00  0.00    +0.000 A 
ATOM     21 CL   UNL     1      -4.593  11.822  18.181  0.00  0.00    +0.000 Cl
ATOM     22  C   UNL     1      -2.302  10.473  17.502  0.00  0.00    +0.000 A 
ATOM     23 CL   UNL     1      -3.136   9.683  16.210  0.00  0.00    +0.000 Cl
ATOM     24  C   UNL     1      -0.951  10.163  17.684  0.00  0.00    +0.000 A 
ENDBRANCH  16  17
ENDBRANCH   4  16
TORSDOF 6
ENDMDL
MODEL 2
REMARK VINA RESULT:      -7.1      1.320      1.583
REMARK  Name = 
REMARK  6 active torsions:
REMARK  status: ('A' for Active; 'I' for Inactive)
REMARK    1  A    between atoms: C_2  and  C_4
REMARK    2  A    between atoms: C_4  and  S_5
REMARK    3  A    between atoms: S_5  and  C_7
REMARK    4  A    between atoms: C_7  and  C_8
REMARK    5  A    between atoms: C_11  and  O_12
REMARK    6  A    between atoms: O_12  and  C_13
REMARK                            x       y       z     vdW  Elec       q    Type
REMARK                         _______ _______ _______ _____ _____    ______ ____
ROOT
ATOM      1  C   UNL     1       2.705   7.114  18.582  0.00  0.00    +0.000 A 
ATOM      2  C   UNL     1       2.098   7.253  19.839  0.00  0.00    +0.000 A 
ATOM      3  C   UNL     1       1.367   8.403  20.142  0.00  0.00    +0.000 A 
ATOM      4  C   UNL     1       1.247   9.431  19.206  0.00  0.00    +0.000 A 
ATOM      5  C   UNL     1       1.847   9.295  17.951  0.00  0.00    +0.000 A 
ATOM      6  C   UNL     1       2.599   8.158  17.654  0.00  0.00    +0.000 A 
ENDROOT
BRANCH   1   7
ATOM      7  C   UNL     1       3.384   5.827  18.190  0.00  0.00    +0.000 C 
BRANCH   7   8
ATOM      8  S   UNL     1       4.373   5.110  19.551  0.00  0.00    +0.000 S 
ATOM      9  O   UNL     1       5.719   4.578  18.928  0.00  0.00    +0.000 OA
BRANCH   8  10
ATOM     10  C   UNL     1       3.311   3.668  19.868  0.00  0.00    +0.000 C 
BRANCH  10  12
ATOM     11  N   UNL     1       4.953   1.877  20.020  0.00  0.00    +0.000 N 
ATOM     12  C   UNL     1       3.929   2.418  19.296  0.00  0.00    +0.000 C 
ATOM     13  O   UNL     1       3.589   1.934  18.218  0.00  0.00    +0.000 OA
ATOM     14  H   UNL     1       5.297   0.981  19.705  0.00  0.00    +0.000 HD
ATOM     15  H   UNL     1       4.971   2.040  21.028  0.00  0.00    +0.000 HD
ENDBRANCH  10  12
ENDBRANCH   8  10
ENDBRANCH   7   8
ENDBRANCH   1   7
BRANCH   4  16
ATOM     16  O   UNL     1       0.459  10.492  19.582  0.00  0.00    +0.000 OA
BRANCH  16  17
ATOM     17  C   UNL     1      -0.741  10.719  18.950  0.00  0.00    +0.000 A 
ATOM     18  C   UNL     1      -1.597  11.631  19.573  0.00  0.00    +0.000 A 
ATOM     19  C   UNL     1      -2.829  11.943  18.996  0.00  0.00    +0.000 A 
ATOM     20  C   UNL     1      -3.211  11.338  17.795  0.00  0.00    +0.000 A 
ATOM     21 CL   UNL     1      -4.760  11.745  17.147  0.00  0.00    +0.000 Cl
ATOM     22  C   UNL     1      -2.345  10.442  17.161  0.00  0.00    +0.000 A 
ATOM     23 CL   UNL     1      -2.757   9.639  15.686  0.00  0.00    +0.000 Cl
ATOM     24  C   UNL     1      -1.098  10.158  17.724  0.00  0.00    +0.000 A 
ENDBRANCH  16  17
ENDBRANCH   4  16
TORSDOF 6
ENDMDL
MODEL 3
REMARK VINA RESULT:      -7.1      1.401      2.218
REMARK  Name = 
REMARK  6 active torsions:
REMARK  status: ('A' for Active; 'I' for Inactive)
REMARK    1  A    between atoms: C_2  and  C_4
REMARK    2  A    between atoms: C_4  and  S_5
REMARK    3  A    between atoms: S_5  and  C_7
REMARK    4  A    between atoms: C_7  and  C_8
REMARK    5  A    between atoms: C_11  and  O_12
REMARK    6  A    between atoms: O_12  and  C_13
REMARK                            x       y       z     vdW  Elec       q    Type
REMARK                         _______ _______ _______ _____ _____    ______ ____
ROOT
ATOM      1  C   UNL     1       2.384   7.212  19.320  0.00  0.00    +0.000 A 
ATOM      2  C   UNL     1       2.400   7.803  18.049  0.00  0.00    +0.000 A 
ATOM      3  C   UNL     1       1.738   9.012  17.827  0.00  0.00    +0.000 A 
ATOM      4  C   UNL     1       1.039   9.634  18.863  0.00  0.00    +0.000 A 
ATOM      5  C   UNL     1       1.024   9.052  20.133  0.00  0.00    +0.000 A 
ATOM      6  C   UNL     1       1.664   7.831  20.351  0.00  0.00    +0.000 A 
ENDROOT
BRANCH   1   7
ATOM      7  C   UNL     1       3.202   5.981  19.610  0.00  0.00    +0.000 C 
BRANCH   7   8
ATOM      8  S   UNL     1       2.194   4.455  19.630  0.00  0.00    +0.000 S 
ATOM      9  O   UNL     1       2.547   3.672  20.951  0.00  0.00    +0.000 OA
BRANCH   8  10
ATOM     10  C   UNL     1       3.035   3.611  18.255  0.00  0.00    +0.000 C 
BRANCH  10  12
ATOM     11  N   UNL     1       4.974   2.725  19.432  0.00  0.00    +0.000 N 
ATOM     12  C   UNL     1       3.822   2.429  18.760  0.00  0.00    +0.000 C 
ATOM     13  O   UNL     1       3.499   1.263  18.539  0.00  0.00    +0.000 OA
ATOM     14  H   UNL     1       5.447   1.947  19.870  0.00  0.00    +0.000 HD
ATOM     15  H   UNL     1       5.034   3.622  19.917  0.00  0.00    +0.000 HD
ENDBRANCH  10  12
ENDBRANCH   8  10
ENDBRANCH   7   8
ENDBRANCH   1   7
BRANCH   4  16
ATOM     16  O   UNL     1       0.471  10.848  18.556  0.00  0.00    +0.000 OA
BRANCH  16  17
ATOM     17  C   UNL     1      -0.895  10.961  18.443  0.00  0.00    +0.000 A 
ATOM     18  C   UNL     1      -1.500  10.141  17.488  0.00  0.00    +0.000 A 
ATOM     19  C   UNL     1      -2.884  10.170  17.315  0.00  0.00    +0.000 A 
ATOM     20  C   UNL     1      -3.668  11.025  18.094  0.00  0.00    +0.000 A 
ATOM     21 CL   UNL     1      -5.373  11.033  17.812  0.00  0.00    +0.000 Cl
ATOM     22  C   UNL     1      -3.065  11.829  19.067  0.00  0.00    +0.000 A 
ATOM     23 CL   UNL     1      -3.966  12.926  20.053  0.00  0.00    +0.000 Cl
ATOM     24  C   UNL     1      -1.682  11.773  19.260  0.00  0.00    +0.000 A 
ENDBRANCH  16  17
ENDBRANCH   4  16
TORSDOF 6
ENDMDL
MODEL 4
REMARK VINA RESULT:      -6.9      1.523      1.759
REMARK  Name = 
REMARK  6 active torsions:
REMARK  status: ('A' for Active; 'I' for Inactive)
REMARK    1  A    between atoms: C_2  and  C_4
REMARK    2  A    between atoms: C_4  and  S_5
REMARK    3  A    between atoms: S_5  and  C_7
REMARK    4  A    between atoms: C_7  and  C_8
REMARK    5  A    between atoms: C_11  and  O_12
REMARK    6  A    between atoms: O_12  and  C_13
REMARK                            x       y       z     vdW  Elec       q    Type
REMARK                         _______ _______ _______ _____ _____    ______ ____
ROOT
ATOM      1  C   UNL     1       2.407   7.259  19.350  0.00  0.00    +0.000 A 
ATOM      2  C   UNL     1       1.693   7.735  20.460  0.00  0.00    +0.000 A 
ATOM      3  C   UNL     1       1.036   8.964  20.397  0.00  0.00    +0.000 A 
ATOM      4  C   UNL     1       1.097   9.739  19.238  0.00  0.00    +0.000 A 
ATOM      5  C   UNL     1       1.803   9.268  18.128  0.00  0.00    +0.000 A 
ATOM      6  C   UNL     1       2.481   8.050  18.196  0.00  0.00    +0.000 A 
ENDROOT
BRANCH   1   7
ATOM      7  C   UNL     1       3.009   5.878  19.353  0.00  0.00    +0.000 C 
BRANCH   7   8
ATOM      8  S   UNL     1       1.772   4.571  19.679  0.00  0.00    +0.000 S 
ATOM      9  O   UNL     1       2.510   3.393  20.420  0.00  0.00    +0.000 OA
BRANCH   8  10
ATOM     10  C   UNL     1       1.524   4.059  17.951  0.00  0.00    +0.000 C 
BRANCH  10  12
ATOM     11  N   UNL     1       2.410   1.794  17.816  0.00  0.00    +0.000 N 
ATOM     12  C   UNL     1       2.615   3.111  17.518  0.00  0.00    +0.000 C 
ATOM     13  O   UNL     1       3.657   3.487  16.985  0.00  0.00    +0.000 OA
ATOM     14  H   UNL     1       3.078   1.141  17.431  0.00  0.00    +0.000 HD
ATOM     15  H   UNL     1       1.448   1.461  17.898  0.00  0.00    +0.000 HD
ENDBRANCH  10  12
ENDBRANCH   8  10
ENDBRANCH   7   8
ENDBRANCH   1   7
BRANCH   4  16
ATOM     16  O   UNL     1       0.368  10.905  19.260  0.00  0.00    +0.000 OA
BRANCH  16  17
ATOM     17  C   UNL     1      -0.895  10.939  18.719  0.00  0.00    +0.000 A 
ATOM     18  C   UNL     1      -1.831  11.723  19.400  0.00  0.00    +0.000 A 
ATOM     19  C   UNL     1      -3.134  11.837  18.916  0.00  0.00    +0.000 A 
ATOM     20  C   UNL     1      -3.509  11.163  17.750  0.00  0.00    +0.000 A 
ATOM     21 CL   UNL     1      -5.145  11.323  17.218  0.00  0.00    +0.000 Cl
ATOM     22  C   UNL     1      -2.566  10.397  17.056  0.00  0.00    +0.000 A 
ATOM     23 CL   UNL     1      -2.961   9.518  15.620  0.00  0.00    +0.000 Cl
ATOM     24  C   UNL     1      -1.253  10.312  17.525  0.00  0.00    +0.000 A 
ENDBRANCH  16  17
ENDBRANCH   4  16
TORSDOF 6
ENDMDL
MODEL 5
REMARK VINA RESULT:      -6.9      1.470      2.288
REMARK  Name = 
REMARK  6 active torsions:
REMARK  status: ('A' for Active; 'I' for Inactive)
REMARK    1  A    between atoms: C_2  and  C_4
REMARK    2  A    between atoms: C_4  and  S_5
REMARK    3  A    between atoms: S_5  and  C_7
REMARK    4  A    between atoms: C_7  and  C_8
REMARK    5  A    between atoms: C_11  and  O_12
REMARK    6  A    between atoms: O_12  and  C_13
REMARK                            x       y       z     vdW  Elec       q    Type
REMARK                         _______ _______ _______ _____ _____    ______ ____
ROOT
ATOM      1  C   UNL     1       2.430   7.277  19.232  0.00  0.00    +0.000 A 
ATOM      2  C   UNL     1       2.465   7.937  17.996  0.00  0.00    +0.000 A 
ATOM      3  C   UNL     1       1.780   9.141  17.823  0.00  0.00    +0.000 A 
ATOM      4  C   UNL     1       1.040   9.690  18.871  0.00  0.00    +0.000 A 
ATOM      5  C   UNL     1       1.006   9.038  20.107  0.00  0.00    +0.000 A 
ATOM      6  C   UNL     1       1.669   7.822  20.276  0.00  0.00    +0.000 A 
ENDROOT
BRANCH   1   7
ATOM      7  C   UNL     1       3.269   6.050  19.477  0.00  0.00    +0.000 C 
BRANCH   7   8
ATOM      8  S   UNL     1       3.136   4.826  18.125  0.00  0.00    +0.000 S 
ATOM      9  O   UNL     1       1.610   4.688  17.759  0.00  0.00    +0.000 OA
BRANCH   8  10
ATOM     10  C   UNL     1       3.597   3.361  19.101  0.00  0.00    +0.000 C 
BRANCH  10  12
ATOM     11  N   UNL     1       2.296   1.699  17.887  0.00  0.00    +0.000 N 
ATOM     12  C   UNL     1       2.490   2.338  19.078  0.00  0.00    +0.000 C 
ATOM     13  O   UNL     1       1.756   2.123  20.041  0.00  0.00    +0.000 OA
ATOM     14  H   UNL     1       1.634   0.935  17.894  0.00  0.00    +0.000 HD
ATOM     15  H   UNL     1       3.093   1.601  17.255  0.00  0.00    +0.000 HD
ENDBRANCH  10  12
ENDBRANCH   8  10
ENDBRANCH   7   8
ENDBRANCH   1   7
BRANCH   4  16
ATOM     16  O   UNL     1       0.452  10.905  18.615  0.00  0.00    +0.000 OA
BRANCH  16  17
ATOM     17  C   UNL     1      -0.913  10.996  18.478  0.00  0.00    +0.000 A 
ATOM     18  C   UNL     1      -1.488  10.158  17.519  0.00  0.00    +0.000 A 
ATOM     19  C   UNL     1      -2.870  10.163  17.322  0.00  0.00    +0.000 A 
ATOM     20  C   UNL     1      -3.681  11.011  18.081  0.00  0.00    +0.000 A 
ATOM     21 CL   UNL     1      -5.380  10.989  17.769  0.00  0.00    +0.000 Cl
ATOM     22  C   UNL     1      -3.108  11.833  19.057  0.00  0.00    +0.000 A 
ATOM     23 CL   UNL     1      -4.044  12.923  20.018  0.00  0.00    +0.000 Cl
ATOM     24  C   UNL     1      -1.728  11.801  19.274  0.00  0.00    +0.000 A 
ENDBRANCH  16  17
ENDBRANCH   4  16
TORSDOF 6
ENDMDL
MODEL 6
REMARK VINA RESULT:      -6.9      1.207      1.626
REMARK  Name = 
REMARK  6 active torsions:
REMARK  status: ('A' for Active; 'I' for Inactive)
REMARK    1  A    between atoms: C_2  and  C_4
REMARK    2  A    between atoms: C_4  and  S_5
REMARK    3  A    between atoms: S_5  and  C_7
REMARK    4  A    between atoms: C_7  and  C_8
REMARK    5  A    between atoms: C_11  and  O_12
REMARK    6  A    between atoms: O_12  and  C_13
REMARK                            x       y       z     vdW  Elec       q    Type
REMARK                         _______ _______ _______ _____ _____    ______ ____
ROOT
ATOM      1  C   UNL     1       2.602   7.294  18.930  0.00  0.00    +0.000 A 
ATOM      2  C   UNL     1       2.535   8.172  17.839  0.00  0.00    +0.000 A 
ATOM      3  C   UNL     1       1.783   9.345  17.926  0.00  0.00    +0.000 A 
ATOM      4  C   UNL     1       1.079   9.647  19.092  0.00  0.00    +0.000 A 
ATOM      5  C   UNL     1       1.146   8.778  20.185  0.00  0.00    +0.000 A 
ATOM      6  C   UNL     1       1.877   7.593  20.092  0.00  0.00    +0.000 A 
ENDROOT
BRANCH   1   7
ATOM      7  C   UNL     1       3.513   6.094  18.902  0.00  0.00    +0.000 C 
BRANCH   7   8
ATOM      8  S   UNL     1       2.595   4.514  18.958  0.00  0.00    +0.000 S 
ATOM      9  O   UNL     1       2.544   4.050  20.463  0.00  0.00    +0.000 OA
BRANCH   8  10
ATOM     10  C   UNL     1       3.847   3.496  18.117  0.00  0.00    +0.000 C 
BRANCH  10  12
ATOM     11  N   UNL     1       4.955   2.254  19.895  0.00  0.00    +0.000 N 
ATOM     12  C   UNL     1       4.065   2.202  18.860  0.00  0.00    +0.000 C 
ATOM     13  O   UNL     1       3.534   1.143  18.533  0.00  0.00    +0.000 OA
ATOM     14  H   UNL     1       5.022   1.424  20.467  0.00  0.00    +0.000 HD
ATOM     15  H   UNL     1       5.086   3.146  20.375  0.00  0.00    +0.000 HD
ENDBRANCH  10  12
ENDBRANCH   8  10
ENDBRANCH   7   8
ENDBRANCH   1   7
BRANCH   4  16
ATOM     16  O   UNL     1       0.418  10.853  19.096  0.00  0.00    +0.000 OA
BRANCH  16  17
ATOM     17  C   UNL     1      -0.873  10.933  18.630  0.00  0.00    +0.000 A 
ATOM     18  C   UNL     1      -1.742  11.738  19.373  0.00  0.00    +0.000 A 
ATOM     19  C   UNL     1      -3.067  11.899  18.967  0.00  0.00    +0.000 A 
ATOM     20  C   UNL     1      -3.531  11.250  17.819  0.00  0.00    +0.000 A 
ATOM     21 CL   UNL     1      -5.189  11.468  17.386  0.00  0.00    +0.000 Cl
ATOM     22  C   UNL     1      -2.656  10.463  17.063  0.00  0.00    +0.000 A 
ATOM     23 CL   UNL     1      -3.161   9.614  15.645  0.00  0.00    +0.000 Cl
ATOM     24  C   UNL     1      -1.320  10.331  17.454  0.00  0.00    +0.000 A 
ENDBRANCH  16  17
ENDBRANCH   4  16
TORSDOF 6
ENDMDL
MODEL 7
REMARK VINA RESULT:      -6.9      1.218      1.841
REMARK  Name = 
REMARK  6 active torsions:
REMARK  status: ('A' for Active; 'I' for Inactive)
REMARK    1  A    between atoms: C_2  and  C_4
REMARK    2  A    between atoms: C_4  and  S_5
REMARK    3  A    between atoms: S_5  and  C_7
REMARK    4  A    between atoms: C_7  and  C_8
REMARK    5  A    between atoms: C_11  and  O_12
REMARK    6  A    between atoms: O_12  and  C_13
REMARK                            x       y       z     vdW  Elec       q    Type
REMARK                         _______ _______ _______ _____ _____    ______ ____
ROOT
ATOM      1  C   UNL     1       2.222   6.922  19.757  0.00  0.00    +0.000 A 
ATOM      2  C   UNL     1       1.540   7.780  20.632  0.00  0.00    +0.000 A 
ATOM      3  C   UNL     1       1.088   9.023  20.187  0.00  0.00    +0.000 A 
ATOM      4  C   UNL     1       1.324   9.431  18.873  0.00  0.00    +0.000 A 
ATOM      5  C   UNL     1       1.999   8.578  17.996  0.00  0.00    +0.000 A 
ATOM      6  C   UNL     1       2.474   7.346  18.445  0.00  0.00    +0.000 A 
ENDROOT
BRANCH   1   7
ATOM      7  C   UNL     1       2.599   5.526  20.181  0.00  0.00    +0.000 C 
BRANCH   7   8
ATOM      8  S   UNL     1       1.845   4.242  19.120  0.00  0.00    +0.000 S 
ATOM      9  O   UNL     1       1.480   3.019  20.045  0.00  0.00    +0.000 OA
BRANCH   8  10
ATOM     10  C   UNL     1       3.349   3.798  18.199  0.00  0.00    +0.000 C 
BRANCH  10  12
ATOM     11  N   UNL     1       4.717   2.518  19.755  0.00  0.00    +0.000 N 
ATOM     12  C   UNL     1       3.889   2.471  18.670  0.00  0.00    +0.000 C 
ATOM     13  O   UNL     1       3.660   1.411  18.091  0.00  0.00    +0.000 OA
ATOM     14  H   UNL     1       4.991   1.627  20.145  0.00  0.00    +0.000 HD
ATOM     15  H   UNL     1       4.602   3.286  20.418  0.00  0.00    +0.000 HD
ENDBRANCH  10  12
ENDBRANCH   8  10
ENDBRANCH   7   8
ENDBRANCH   1   7
BRANCH   4  16
ATOM     16  O   UNL     1       0.787  10.647  18.520  0.00  0.00    +0.000 OA
BRANCH  16  17
ATOM     17  C   UNL     1      -0.576  10.800  18.432  0.00  0.00    +0.000 A 
ATOM     18  C   UNL     1      -1.226   9.977  17.507  0.00  0.00    +0.000 A 
ATOM     19  C   UNL     1      -2.612  10.045  17.361  0.00  0.00    +0.000 A 
ATOM     20  C   UNL     1      -3.354  10.940  18.137  0.00  0.00    +0.000 A 
ATOM     21 CL   UNL     1      -5.063  10.994  17.889  0.00  0.00    +0.000 Cl
ATOM     22  C   UNL     1      -2.707  11.746  19.079  0.00  0.00    +0.000 A 
ATOM     23 CL   UNL     1      -3.554  12.891  20.059  0.00  0.00    +0.000 Cl
ATOM     24  C   UNL     1      -1.322  11.652  19.246  0.00  0.00    +0.000 A 
ENDBRANCH  16  17
ENDBRANCH   4  16
TORSDOF 6
ENDMDL
MODEL 8
REMARK VINA RESULT:      -6.9      1.668      1.814
REMARK  Name = 
REMARK  6 active torsions:
REMARK  status: ('A' for Active; 'I' for Inactive)
REMARK    1  A    between atoms: C_2  and  C_4
REMARK    2  A    between atoms: C_4  and  S_5
REMARK    3  A    between atoms: S_5  and  C_7
REMARK    4  A    between atoms: C_7  and  C_8
REMARK    5  A    between atoms: C_11  and  O_12
REMARK    6  A    between atoms: O_12  and  C_13
REMARK                            x       y       z     vdW  Elec       q    Type
REMARK                         _______ _______ _______ _____ _____    ______ ____
ROOT
ATOM      1  C   UNL     1       2.375   7.367  19.327  0.00  0.00    +0.000 A 
ATOM      2  C   UNL     1       1.682   7.863  20.442  0.00  0.00    +0.000 A 
ATOM      3  C   UNL     1       1.012   9.085  20.367  0.00  0.00    +0.000 A 
ATOM      4  C   UNL     1       1.039   9.833  19.189  0.00  0.00    +0.000 A 
ATOM      5  C   UNL     1       1.724   9.342  18.074  0.00  0.00    +0.000 A 
ATOM      6  C   UNL     1       2.415   8.133  18.154  0.00  0.00    +0.000 A 
ENDROOT
BRANCH   1   7
ATOM      7  C   UNL     1       2.990   5.992  19.348  0.00  0.00    +0.000 C 
BRANCH   7   8
ATOM      8  S   UNL     1       3.512   5.430  17.689  0.00  0.00    +0.000 S 
ATOM      9  O   UNL     1       3.425   3.857  17.672  0.00  0.00    +0.000 OA
BRANCH   8  10
ATOM     10  C   UNL     1       5.269   5.877  17.842  0.00  0.00    +0.000 C 
BRANCH  10  12
ATOM     11  N   UNL     1       5.957   3.785  18.882  0.00  0.00    +0.000 N 
ATOM     12  C   UNL     1       6.133   4.641  17.833  0.00  0.00    +0.000 C 
ATOM     13  O   UNL     1       6.992   4.429  16.978  0.00  0.00    +0.000 OA
ATOM     14  H   UNL     1       6.448   2.904  18.825  0.00  0.00    +0.000 HD
ATOM     15  H   UNL     1       5.045   3.766  19.342  0.00  0.00    +0.000 HD
ENDBRANCH  10  12
ENDBRANCH   8  10
ENDBRANCH   7   8
ENDBRANCH   1   7
BRANCH   4  16
ATOM     16  O   UNL     1       0.300  10.993  19.201  0.00  0.00    +0.000 OA
BRANCH  16  17
ATOM     17  C   UNL     1      -0.971  11.006  18.677  0.00  0.00    +0.000 A 
ATOM     18  C   UNL     1      -1.909  11.776  19.369  0.00  0.00    +0.000 A 
ATOM     19  C   UNL     1      -3.221  11.870  18.902  0.00  0.00    +0.000 A 
ATOM     20  C   UNL     1      -3.600  11.188  17.743  0.00  0.00    +0.000 A 
ATOM     21 CL   UNL     1      -5.246  11.321  17.233  0.00  0.00    +0.000 Cl
ATOM     22  C   UNL     1      -2.655  10.435  17.037  0.00  0.00    +0.000 A 
ATOM     23 CL   UNL     1      -3.055   9.548  15.609  0.00  0.00    +0.000 Cl
ATOM     24  C   UNL     1      -1.334  10.371  17.489  0.00  0.00    +0.000 A 
ENDBRANCH  16  17
ENDBRANCH   4  16
TORSDOF 6
ENDMDL
MODEL 9
REMARK VINA RESULT:      -6.9      1.450      2.355
REMARK  Name = 
REMARK  6 active torsions:
REMARK  status: ('A' for Active; 'I' for Inactive)
REMARK    1  A    between atoms: C_2  and  C_4
REMARK    2  A    between atoms: C_4  and  S_5
REMARK    3  A    between atoms: S_5  and  C_7
REMARK    4  A    between atoms: C_7  and  C_8
REMARK    5  A    between atoms: C_11  and  O_12
REMARK    6  A    between atoms: O_12  and  C_13
REMARK                            x       y       z     vdW  Elec       q    Type
REMARK                         _______ _______ _______ _____ _____    ______ ____
ROOT
ATOM      1  C   UNL     1       2.903   7.143  18.415  0.00  0.00    +0.000 A 
ATOM      2  C   UNL     1       2.689   8.248  17.578  0.00  0.00    +0.000 A 
ATOM      3  C   UNL     1       1.894   9.311  18.008  0.00  0.00    +0.000 A 
ATOM      4  C   UNL     1       1.291   9.278  19.266  0.00  0.00    +0.000 A 
ATOM      5  C   UNL     1       1.505   8.182  20.106  0.00  0.00    +0.000 A 
ATOM      6  C   UNL     1       2.278   7.106  19.669  0.00  0.00    +0.000 A 
ENDROOT
BRANCH   1   7
ATOM      7  C   UNL     1       3.862   6.050  18.022  0.00  0.00    +0.000 C 
BRANCH   7   8
ATOM      8  S   UNL     1       4.046   4.775  19.320  0.00  0.00    +0.000 S 
ATOM      9  O   UNL     1       5.574   4.397  19.399  0.00  0.00    +0.000 OA
BRANCH   8  10
ATOM     10  C   UNL     1       3.197   3.430  18.438  0.00  0.00    +0.000 C 
BRANCH  10  12
ATOM     11  N   UNL     1       1.031   3.450  19.552  0.00  0.00    +0.000 N 
ATOM     12  C   UNL     1       1.711   3.683  18.390  0.00  0.00    +0.000 C 
ATOM     13  O   UNL     1       1.120   4.017  17.365  0.00  0.00    +0.000 OA
ATOM     14  H   UNL     1       0.058   3.723  19.561  0.00  0.00    +0.000 HD
ATOM     15  H   UNL     1       1.536   3.544  20.434  0.00  0.00    +0.000 HD
ENDBRANCH  10  12
ENDBRANCH   8  10
ENDBRANCH   7   8
ENDBRANCH   1   7
BRANCH   4  16
ATOM     16  O   UNL     1       0.577  10.400  19.616  0.00  0.00    +0.000 OA
BRANCH  16  17
ATOM     17  C   UNL     1      -0.638  10.656  19.026  0.00  0.00    +0.000 A 
ATOM     18  C   UNL     1      -1.453  11.583  19.682  0.00  0.00    +0.000 A 
ATOM     19  C   UNL     1      -2.696  11.924  19.148  0.00  0.00    +0.000 A 
ATOM     20  C   UNL     1      -3.132  11.335  17.958  0.00  0.00    +0.000 A 
ATOM     21 CL   UNL     1      -4.693  11.779  17.365  0.00  0.00    +0.000 Cl
ATOM     22  C   UNL     1      -2.307  10.425  17.289  0.00  0.00    +0.000 A 
ATOM     23 CL   UNL     1      -2.786   9.639  15.826  0.00  0.00    +0.000 Cl
ATOM     24  C   UNL     1      -1.048  10.110  17.809  0.00  0.00    +0.000 A 
ENDBRANCH  16  17
ENDBRANCH   4  16
TORSDOF 6
ENDMDL
