MODEL 1
REMARK VINA RESULT:      -8.3      0.000      0.000
REMARK  Name = 
REMARK  9 active torsions:
REMARK  status: ('A' for Active; 'I' for Inactive)
REMARK    1  A    between atoms: C_1  and  C_2
REMARK    2  A    between atoms: C_5  and  S_6
REMARK    3  A    between atoms: S_6  and  N_9
REMARK    4  A    between atoms: N_9  and  C_10
REMARK    5  A    between atoms: C_14  and  C_15
REMARK    6  A    between atoms: C_24  and  C_25
REMARK    7  A    between atoms: C_26  and  N_27
REMARK    8  A    between atoms: N_27  and  S_28
REMARK    9  A    between atoms: S_28  and  C_29
REMARK                            x       y       z     vdW  Elec       q    Type
REMARK                         _______ _______ _______ _____ _____    ______ ____
ROOT
ATOM      1  S   UNL     1       2.355   4.547  19.618  0.00  0.00    +0.000 S 
ATOM      2  O   UNL     1       1.414   4.575  18.519  0.00  0.00    +0.000 OA
ATOM      3  O   UNL     1       2.331   3.452  20.568  0.00  0.00    +0.000 OA
ENDROOT
BRANCH   1   8
ATOM      4  C   UNL     1       8.187   4.602  17.858  0.00  0.00    +0.000 C 
ATOM      5  C   UNL     1       6.696   4.669  18.086  0.00  0.00    +0.000 A 
ATOM      6  C   UNL     1       6.312   5.202  19.326  0.00  0.00    +0.000 A 
ATOM      7  C   UNL     1       4.985   5.212  19.725  0.00  0.00    +0.000 A 
ATOM      8  C   UNL     1       4.001   4.640  18.911  0.00  0.00    +0.000 A 
ATOM      9  C   UNL     1       4.338   4.094  17.649  0.00  0.00    +0.000 A 
ATOM     10  C   UNL     1       3.320   3.363  16.806  0.00  0.00    +0.000 C 
ATOM     11  C   UNL     1       5.693   4.178  17.210  0.00  0.00    +0.000 A 
BRANCH  11  12
ATOM     12  N   UNL     1       6.055   3.695  15.914  0.00  0.00    +0.000 N 
ATOM     13  H   UNL     1       6.265   2.709  15.762  0.00  0.00    +0.000 HD
BRANCH  12  14
ATOM     14  S   UNL     1       6.316   4.697  14.594  0.00  0.00    +0.000 S 
ATOM     15  C   UNL     1       6.001   3.630  13.208  0.00  0.00    +0.000 C 
ATOM     16  O   UNL     1       5.243   5.671  14.635  0.00  0.00    +0.000 OA
ATOM     17  O   UNL     1       7.698   5.118  14.533  0.00  0.00    +0.000 OA
ENDBRANCH  12  14
ENDBRANCH  11  12
ENDBRANCH   1   8
BRANCH   1  18
ATOM     18  N   UNL     1       2.172   5.977  20.467  0.00  0.00    +0.000 N 
ATOM     19  H   UNL     1       2.169   5.925  21.483  0.00  0.00    +0.000 HD
BRANCH  18  20
ATOM     20  C   UNL     1       1.950   7.213  19.818  0.00  0.00    +0.000 A 
ATOM     21  C   UNL     1       2.454   7.418  18.537  0.00  0.00    +0.000 A 
ATOM     22  C   UNL     1       2.277   8.651  17.921  0.00  0.00    +0.000 A 
ATOM     23  C   UNL     1       1.581   9.663  18.578  0.00  0.00    +0.000 A 
ATOM     24  C   UNL     1       1.151   9.504  19.900  0.00  0.00    +0.000 A 
ATOM     25  C   UNL     1       1.320   8.254  20.510  0.00  0.00    +0.000 A 
BRANCH  24  26
ATOM     26  C   UNL     1       0.482  10.603  20.666  0.00  0.00    +0.000 C 
ATOM     27  O   UNL     1       1.123  11.133  21.563  0.00  0.00    +0.000 OA
ATOM     28  N   UNL     1      -0.820  11.007  20.330  0.00  0.00    +0.000 N 
ATOM     29  C   UNL     1      -1.697  10.473  19.288  0.00  0.00    +0.000 C 
ATOM     30  C   UNL     1      -2.354  11.569  18.454  0.00  0.00    +0.000 C 
ATOM     31  O   UNL     1      -2.983  12.554  19.274  0.00  0.00    +0.000 OA
ATOM     32  C   UNL     1      -2.020  13.138  20.167  0.00  0.00    +0.000 C 
ATOM     33  C   UNL     1      -1.449  12.081  21.111  0.00  0.00    +0.000 C 
ENDBRANCH  24  26
ENDBRANCH  18  20
ENDBRANCH   1  18
TORSDOF 6
ENDMDL
MODEL 2
REMARK VINA RESULT:      -8.1      3.077      9.705
REMARK  Name = 
REMARK  9 active torsions:
REMARK  status: ('A' for Active; 'I' for Inactive)
REMARK    1  A    between atoms: C_1  and  C_2
REMARK    2  A    between atoms: C_5  and  S_6
REMARK    3  A    between atoms: S_6  and  N_9
REMARK    4  A    between atoms: N_9  and  C_10
REMARK    5  A    between atoms: C_14  and  C_15
REMARK    6  A    between atoms: C_24  and  C_25
REMARK    7  A    between atoms: C_26  and  N_27
REMARK    8  A    between atoms: N_27  and  S_28
REMARK    9  A    between atoms: S_28  and  C_29
REMARK                            x       y       z     vdW  Elec       q    Type
REMARK                         _______ _______ _______ _____ _____    ______ ____
ROOT
ATOM      1  S   UNL     1       0.915   8.743  21.204  0.00  0.00    +0.000 S 
ATOM      2  O   UNL     1       1.712   8.837  22.408  0.00  0.00    +0.000 OA
ATOM      3  O   UNL     1      -0.341   8.020  21.218  0.00  0.00    +0.000 OA
ENDROOT
BRANCH   1   8
ATOM      4  C   UNL     1      -0.427  14.130  18.696  0.00  0.00    +0.000 C 
ATOM      5  C   UNL     1      -0.027  12.916  19.499  0.00  0.00    +0.000 A 
ATOM      6  C   UNL     1       0.692  11.947  18.783  0.00  0.00    +0.000 A 
ATOM      7  C   UNL     1       1.019  10.727  19.353  0.00  0.00    +0.000 A 
ATOM      8  C   UNL     1       0.591  10.417  20.649  0.00  0.00    +0.000 A 
ATOM      9  C   UNL     1      -0.133  11.365  21.413  0.00  0.00    +0.000 A 
ATOM     10  C   UNL     1      -0.711  11.015  22.764  0.00  0.00    +0.000 C 
ATOM     11  C   UNL     1      -0.379  12.652  20.848  0.00  0.00    +0.000 A 
BRANCH  11  12
ATOM     12  N   UNL     1      -1.050  13.653  21.617  0.00  0.00    +0.000 N 
ATOM     13  H   UNL     1      -2.053  13.803  21.520  0.00  0.00    +0.000 HD
BRANCH  12  14
ATOM     14  S   UNL     1      -0.251  14.749  22.605  0.00  0.00    +0.000 S 
ATOM     15  C   UNL     1      -0.820  16.322  22.006  0.00  0.00    +0.000 C 
ATOM     16  O   UNL     1      -0.824  14.563  23.924  0.00  0.00    +0.000 OA
ATOM     17  O   UNL     1       1.178  14.679  22.401  0.00  0.00    +0.000 OA
ENDBRANCH  12  14
ENDBRANCH  11  12
ENDBRANCH   1   8
BRANCH   1  18
ATOM     18  N   UNL     1       1.885   8.077  20.015  0.00  0.00    +0.000 N 
ATOM     19  H   UNL     1       2.294   8.709  19.330  0.00  0.00    +0.000 HD
BRANCH  18  20
ATOM     20  C   UNL     1       2.081   6.682  19.899  0.00  0.00    +0.000 A 
ATOM     21  C   UNL     1       1.644   5.839  20.917  0.00  0.00    +0.000 A 
ATOM     22  C   UNL     1       1.883   4.472  20.823  0.00  0.00    +0.000 A 
ATOM     23  C   UNL     1       2.537   3.955  19.707  0.00  0.00    +0.000 A 
ATOM     24  C   UNL     1       3.064   4.799  18.723  0.00  0.00    +0.000 A 
ATOM     25  C   UNL     1       2.807   6.173  18.816  0.00  0.00    +0.000 A 
BRANCH  24  26
ATOM     26  C   UNL     1       3.850   4.283  17.558  0.00  0.00    +0.000 C 
ATOM     27  O   UNL     1       3.285   3.511  16.797  0.00  0.00    +0.000 OA
ATOM     28  N   UNL     1       5.174   4.706  17.356  0.00  0.00    +0.000 N 
ATOM     29  C   UNL     1       5.971   5.621  18.172  0.00  0.00    +0.000 C 
ATOM     30  C   UNL     1       6.701   6.670  17.338  0.00  0.00    +0.000 C 
ATOM     31  O   UNL     1       7.438   6.076  16.270  0.00  0.00    +0.000 OA
ATOM     32  C   UNL     1       6.556   5.316  15.426  0.00  0.00    +0.000 C 
ATOM     33  C   UNL     1       5.918   4.169  16.208  0.00  0.00    +0.000 C 
ENDBRANCH  24  26
ENDBRANCH  18  20
ENDBRANCH   1  18
TORSDOF 6
ENDMDL
MODEL 3
REMARK VINA RESULT:      -8.1      1.215      1.499
REMARK  Name = 
REMARK  9 active torsions:
REMARK  status: ('A' for Active; 'I' for Inactive)
REMARK    1  A    between atoms: C_1  and  C_2
REMARK    2  A    between atoms: C_5  and  S_6
REMARK    3  A    between atoms: S_6  and  N_9
REMARK    4  A    between atoms: N_9  and  C_10
REMARK    5  A    between atoms: C_14  and  C_15
REMARK    6  A    between atoms: C_24  and  C_25
REMARK    7  A    between atoms: C_26  and  N_27
REMARK    8  A    between atoms: N_27  and  S_28
REMARK    9  A    between atoms: S_28  and  C_29
REMARK                            x       y       z     vdW  Elec       q    Type
REMARK                         _______ _______ _______ _____ _____    ______ ____
ROOT
ATOM      1  S   UNL     1       2.195   4.631  19.676  0.00  0.00    +0.000 S 
ATOM      2  O   UNL     1       1.249   4.983  18.638  0.00  0.00    +0.000 OA
ATOM      3  O   UNL     1       2.058   3.377  20.390  0.00  0.00    +0.000 OA
ENDROOT
BRANCH   1   8
ATOM      4  C   UNL     1       8.004   4.594  17.843  0.00  0.00    +0.000 C 
ATOM      5  C   UNL     1       6.516   4.669  18.084  0.00  0.00    +0.000 A 
ATOM      6  C   UNL     1       6.145   5.282  19.291  0.00  0.00    +0.000 A 
ATOM      7  C   UNL     1       4.823   5.313  19.705  0.00  0.00    +0.000 A 
ATOM      8  C   UNL     1       3.831   4.684  18.944  0.00  0.00    +0.000 A 
ATOM      9  C   UNL     1       4.156   4.056  17.716  0.00  0.00    +0.000 A 
ATOM     10  C   UNL     1       3.131   3.267  16.936  0.00  0.00    +0.000 C 
ATOM     11  C   UNL     1       5.505   4.117  17.256  0.00  0.00    +0.000 A 
BRANCH  11  12
ATOM     12  N   UNL     1       5.854   3.550  15.991  0.00  0.00    +0.000 N 
ATOM     13  H   UNL     1       6.053   2.555  15.899  0.00  0.00    +0.000 HD
BRANCH  12  14
ATOM     14  S   UNL     1       6.115   4.465  14.608  0.00  0.00    +0.000 S 
ATOM     15  C   UNL     1       5.344   6.017  15.001  0.00  0.00    +0.000 C 
ATOM     16  O   UNL     1       7.546   4.697  14.569  0.00  0.00    +0.000 OA
ATOM     17  O   UNL     1       5.425   3.893  13.475  0.00  0.00    +0.000 OA
ENDBRANCH  12  14
ENDBRANCH  11  12
ENDBRANCH   1   8
BRANCH   1  18
ATOM     18  N   UNL     1       2.187   5.872  20.798  0.00  0.00    +0.000 N 
ATOM     19  H   UNL     1       2.453   5.646  21.753  0.00  0.00    +0.000 HD
BRANCH  18  20
ATOM     20  C   UNL     1       1.755   7.178  20.470  0.00  0.00    +0.000 A 
ATOM     21  C   UNL     1       2.055   7.708  19.219  0.00  0.00    +0.000 A 
ATOM     22  C   UNL     1       1.673   9.010  18.918  0.00  0.00    +0.000 A 
ATOM     23  C   UNL     1       0.977   9.766  19.859  0.00  0.00    +0.000 A 
ATOM     24  C   UNL     1       0.752   9.281  21.152  0.00  0.00    +0.000 A 
ATOM     25  C   UNL     1       1.127   7.963  21.444  0.00  0.00    +0.000 A 
BRANCH  24  26
ATOM     26  C   UNL     1       0.089  10.101  22.215  0.00  0.00    +0.000 C 
ATOM     27  O   UNL     1       0.376   9.852  23.377  0.00  0.00    +0.000 OA
ATOM     28  N   UNL     1      -0.803  11.127  21.862  0.00  0.00    +0.000 N 
ATOM     29  C   UNL     1      -1.234  11.538  20.526  0.00  0.00    +0.000 C 
ATOM     30  C   UNL     1      -1.187  13.051  20.333  0.00  0.00    +0.000 C 
ATOM     31  O   UNL     1      -1.866  13.740  21.383  0.00  0.00    +0.000 OA
ATOM     32  C   UNL     1      -1.284  13.397  22.652  0.00  0.00    +0.000 C 
ATOM     33  C   UNL     1      -1.444  11.903  22.933  0.00  0.00    +0.000 C 
ENDBRANCH  24  26
ENDBRANCH  18  20
ENDBRANCH   1  18
TORSDOF 6
ENDMDL
MODEL 4
REMARK VINA RESULT:      -8.1      4.285      6.694
REMARK  Name = 
REMARK  9 active torsions:
REMARK  status: ('A' for Active; 'I' for Inactive)
REMARK    1  A    between atoms: C_1  and  C_2
REMARK    2  A    between atoms: C_5  and  S_6
REMARK    3  A    between atoms: S_6  and  N_9
REMARK    4  A    between atoms: N_9  and  C_10
REMARK    5  A    between atoms: C_14  and  C_15
REMARK    6  A    between atoms: C_24  and  C_25
REMARK    7  A    between atoms: C_26  and  N_27
REMARK    8  A    between atoms: N_27  and  S_28
REMARK    9  A    between atoms: S_28  and  C_29
REMARK                            x       y       z     vdW  Elec       q    Type
REMARK                         _______ _______ _______ _____ _____    ______ ____
ROOT
ATOM      1  S   UNL     1       0.504  10.361  19.580  0.00  0.00    +0.000 S 
ATOM      2  O   UNL     1      -0.880   9.936  19.589  0.00  0.00    +0.000 OA
ATOM      3  O   UNL     1       1.097  10.932  20.774  0.00  0.00    +0.000 OA
ENDROOT
BRANCH   1   8
ATOM      4  C   UNL     1       4.368   6.048  17.691  0.00  0.00    +0.000 C 
ATOM      5  C   UNL     1       3.272   6.944  18.213  0.00  0.00    +0.000 A 
ATOM      6  C   UNL     1       2.995   8.064  17.415  0.00  0.00    +0.000 A 
ATOM      7  C   UNL     1       2.102   9.040  17.828  0.00  0.00    +0.000 A 
ATOM      8  C   UNL     1       1.491   8.949  19.083  0.00  0.00    +0.000 A 
ATOM      9  C   UNL     1       1.734   7.835  19.924  0.00  0.00    +0.000 A 
ATOM     10  C   UNL     1       1.186   7.770  21.329  0.00  0.00    +0.000 C 
ATOM     11  C   UNL     1       2.581   6.792  19.444  0.00  0.00    +0.000 A 
BRANCH  11  12
ATOM     12  N   UNL     1       2.796   5.624  20.240  0.00  0.00    +0.000 N 
ATOM     13  H   UNL     1       3.510   5.608  20.966  0.00  0.00    +0.000 HD
BRANCH  12  14
ATOM     14  S   UNL     1       2.027   4.159  19.958  0.00  0.00    +0.000 S 
ATOM     15  C   UNL     1       3.375   3.004  19.877  0.00  0.00    +0.000 C 
ATOM     16  O   UNL     1       1.292   3.873  21.174  0.00  0.00    +0.000 OA
ATOM     17  O   UNL     1       1.363   4.166  18.674  0.00  0.00    +0.000 OA
ENDBRANCH  12  14
ENDBRANCH  11  12
ENDBRANCH   1   8
BRANCH   1  18
ATOM     18  N   UNL     1       0.677  11.465  18.335  0.00  0.00    +0.000 N 
ATOM     19  H   UNL     1       0.775  11.099  17.390  0.00  0.00    +0.000 HD
BRANCH  18  20
ATOM     20  C   UNL     1       0.765  12.856  18.571  0.00  0.00    +0.000 A 
ATOM     21  C   UNL     1      -0.368  13.560  18.967  0.00  0.00    +0.000 A 
ATOM     22  C   UNL     1      -0.291  14.936  19.150  0.00  0.00    +0.000 A 
ATOM     23  C   UNL     1       0.921  15.595  18.956  0.00  0.00    +0.000 A 
ATOM     24  C   UNL     1       2.043  14.918  18.467  0.00  0.00    +0.000 A 
ATOM     25  C   UNL     1       1.962  13.529  18.300  0.00  0.00    +0.000 A 
BRANCH  24  26
ATOM     26  C   UNL     1       3.333  15.614  18.162  0.00  0.00    +0.000 C 
ATOM     27  O   UNL     1       3.482  16.048  17.029  0.00  0.00    +0.000 OA
ATOM     28  N   UNL     1       4.305  15.771  19.163  0.00  0.00    +0.000 N 
ATOM     29  C   UNL     1       4.263  15.313  20.551  0.00  0.00    +0.000 C 
ATOM     30  C   UNL     1       4.694  16.393  21.540  0.00  0.00    +0.000 C 
ATOM     31  O   UNL     1       5.944  16.977  21.174  0.00  0.00    +0.000 OA
ATOM     32  C   UNL     1       5.857  17.539  19.854  0.00  0.00    +0.000 C 
ATOM     33  C   UNL     1       5.564  16.449  18.823  0.00  0.00    +0.000 C 
ENDBRANCH  24  26
ENDBRANCH  18  20
ENDBRANCH   1  18
TORSDOF 6
ENDMDL
MODEL 5
REMARK VINA RESULT:      -8.0      2.995      5.661
REMARK  Name = 
REMARK  9 active torsions:
REMARK  status: ('A' for Active; 'I' for Inactive)
REMARK    1  A    between atoms: C_1  and  C_2
REMARK    2  A    between atoms: C_5  and  S_6
REMARK    3  A    between atoms: S_6  and  N_9
REMARK    4  A    between atoms: N_9  and  C_10
REMARK    5  A    between atoms: C_14  and  C_15
REMARK    6  A    between atoms: C_24  and  C_25
REMARK    7  A    between atoms: C_26  and  N_27
REMARK    8  A    between atoms: N_27  and  S_28
REMARK    9  A    between atoms: S_28  and  C_29
REMARK                            x       y       z     vdW  Elec       q    Type
REMARK                         _______ _______ _______ _____ _____    ______ ____
ROOT
ATOM      1  S   UNL     1       0.406  10.197  19.664  0.00  0.00    +0.000 S 
ATOM      2  O   UNL     1      -0.698   9.611  20.395  0.00  0.00    +0.000 OA
ATOM      3  O   UNL     1       1.237  11.206  20.289  0.00  0.00    +0.000 OA
ENDROOT
BRANCH   1   8
ATOM      4  C   UNL     1       4.459   6.141  17.607  0.00  0.00    +0.000 C 
ATOM      5  C   UNL     1       3.333   6.965  18.183  0.00  0.00    +0.000 A 
ATOM      6  C   UNL     1       2.922   8.043  17.384  0.00  0.00    +0.000 A 
ATOM      7  C   UNL     1       1.985   8.958  17.836  0.00  0.00    +0.000 A 
ATOM      8  C   UNL     1       1.463   8.851  19.130  0.00  0.00    +0.000 A 
ATOM      9  C   UNL     1       1.843   7.777  19.973  0.00  0.00    +0.000 A 
ATOM     10  C   UNL     1       1.392   7.704  21.412  0.00  0.00    +0.000 C 
ATOM     11  C   UNL     1       2.735   6.790  19.458  0.00  0.00    +0.000 A 
BRANCH  11  12
ATOM     12  N   UNL     1       3.088   5.659  20.259  0.00  0.00    +0.000 N 
ATOM     13  H   UNL     1       3.792   5.735  20.992  0.00  0.00    +0.000 HD
BRANCH  12  14
ATOM     14  S   UNL     1       2.511   4.109  19.975  0.00  0.00    +0.000 S 
ATOM     15  C   UNL     1       2.145   3.509  21.607  0.00  0.00    +0.000 C 
ATOM     16  O   UNL     1       1.244   4.292  19.294  0.00  0.00    +0.000 OA
ATOM     17  O   UNL     1       3.544   3.272  19.409  0.00  0.00    +0.000 OA
ENDBRANCH  12  14
ENDBRANCH  11  12
ENDBRANCH   1   8
BRANCH   1  18
ATOM     18  N   UNL     1      -0.218  10.838  18.251  0.00  0.00    +0.000 N 
ATOM     19  H   UNL     1       0.424  11.322  17.628  0.00  0.00    +0.000 HD
BRANCH  18  20
ATOM     20  C   UNL     1      -1.599  10.790  17.949  0.00  0.00    +0.000 A 
ATOM     21  C   UNL     1      -2.045  10.001  16.893  0.00  0.00    +0.000 A 
ATOM     22  C   UNL     1      -3.396   9.993  16.567  0.00  0.00    +0.000 A 
ATOM     23  C   UNL     1      -4.294  10.757  17.309  0.00  0.00    +0.000 A 
ATOM     24  C   UNL     1      -3.849  11.626  18.311  0.00  0.00    +0.000 A 
ATOM     25  C   UNL     1      -2.488  11.617  18.644  0.00  0.00    +0.000 A 
BRANCH  24  26
ATOM     26  C   UNL     1      -4.777  12.527  19.065  0.00  0.00    +0.000 C 
ATOM     27  O   UNL     1      -5.855  12.783  18.548  0.00  0.00    +0.000 OA
ATOM     28  N   UNL     1      -4.410  13.023  20.326  0.00  0.00    +0.000 N 
ATOM     29  C   UNL     1      -3.168  12.799  21.065  0.00  0.00    +0.000 C 
ATOM     30  C   UNL     1      -3.410  12.440  22.529  0.00  0.00    +0.000 C 
ATOM     31  O   UNL     1      -4.287  13.370  23.164  0.00  0.00    +0.000 OA
ATOM     32  C   UNL     1      -5.542  13.420  22.464  0.00  0.00    +0.000 C 
ATOM     33  C   UNL     1      -5.342  13.914  21.032  0.00  0.00    +0.000 C 
ENDBRANCH  24  26
ENDBRANCH  18  20
ENDBRANCH   1  18
TORSDOF 6
ENDMDL
MODEL 6
REMARK VINA RESULT:      -7.9      3.054      9.416
REMARK  Name = 
REMARK  9 active torsions:
REMARK  status: ('A' for Active; 'I' for Inactive)
REMARK    1  A    between atoms: C_1  and  C_2
REMARK    2  A    between atoms: C_5  and  S_6
REMARK    3  A    between atoms: S_6  and  N_9
REMARK    4  A    between atoms: N_9  and  C_10
REMARK    5  A    between atoms: C_14  and  C_15
REMARK    6  A    between atoms: C_24  and  C_25
REMARK    7  A    between atoms: C_26  and  N_27
REMARK    8  A    between atoms: N_27  and  S_28
REMARK    9  A    between atoms: S_28  and  C_29
REMARK                            x       y       z     vdW  Elec       q    Type
REMARK                         _______ _______ _______ _____ _____    ______ ____
ROOT
ATOM      1  S   UNL     1       1.741   9.163  18.120  0.00  0.00    +0.000 S 
ATOM      2  O   UNL     1       0.526   8.723  17.467  0.00  0.00    +0.000 OA
ATOM      3  O   UNL     1       3.012   9.074  17.428  0.00  0.00    +0.000 OA
ENDROOT
BRANCH   1   8
ATOM      4  C   UNL     1       0.939  15.124  19.084  0.00  0.00    +0.000 C 
ATOM      5  C   UNL     1       1.117  13.626  19.071  0.00  0.00    +0.000 A 
ATOM      6  C   UNL     1       2.152  13.162  18.245  0.00  0.00    +0.000 A 
ATOM      7  C   UNL     1       2.354  11.807  18.037  0.00  0.00    +0.000 A 
ATOM      8  C   UNL     1       1.490  10.869  18.613  0.00  0.00    +0.000 A 
ATOM      9  C   UNL     1       0.434  11.288  19.459  0.00  0.00    +0.000 A 
ATOM     10  C   UNL     1      -0.585  10.310  19.995  0.00  0.00    +0.000 C 
ATOM     11  C   UNL     1       0.298  12.680  19.741  0.00  0.00    +0.000 A 
BRANCH  11  12
ATOM     12  N   UNL     1      -0.717  13.130  20.642  0.00  0.00    +0.000 N 
ATOM     13  H   UNL     1      -1.641  13.392  20.302  0.00  0.00    +0.000 HD
BRANCH  12  14
ATOM     14  S   UNL     1      -0.446  13.413  22.274  0.00  0.00    +0.000 S 
ATOM     15  C   UNL     1      -1.897  14.306  22.776  0.00  0.00    +0.000 C 
ATOM     16  O   UNL     1      -0.509  12.108  22.903  0.00  0.00    +0.000 OA
ATOM     17  O   UNL     1       0.700  14.273  22.462  0.00  0.00    +0.000 OA
ENDBRANCH  12  14
ENDBRANCH  11  12
ENDBRANCH   1   8
BRANCH   1  18
ATOM     18  N   UNL     1       1.870   8.316  19.556  0.00  0.00    +0.000 N 
ATOM     19  H   UNL     1       1.824   8.846  20.423  0.00  0.00    +0.000 HD
BRANCH  18  20
ATOM     20  C   UNL     1       2.112   6.923  19.588  0.00  0.00    +0.000 A 
ATOM     21  C   UNL     1       1.769   6.190  20.720  0.00  0.00    +0.000 A 
ATOM     22  C   UNL     1       2.053   4.830  20.768  0.00  0.00    +0.000 A 
ATOM     23  C   UNL     1       2.659   4.208  19.678  0.00  0.00    +0.000 A 
ATOM     24  C   UNL     1       3.094   4.948  18.573  0.00  0.00    +0.000 A 
ATOM     25  C   UNL     1       2.791   6.315  18.526  0.00  0.00    +0.000 A 
BRANCH  24  26
ATOM     26  C   UNL     1       3.829   4.325  17.427  0.00  0.00    +0.000 C 
ATOM     27  O   UNL     1       3.200   3.566  16.703  0.00  0.00    +0.000 OA
ATOM     28  N   UNL     1       5.178   4.639  17.199  0.00  0.00    +0.000 N 
ATOM     29  C   UNL     1       6.049   5.525  17.971  0.00  0.00    +0.000 C 
ATOM     30  C   UNL     1       6.849   6.479  17.088  0.00  0.00    +0.000 C 
ATOM     31  O   UNL     1       7.529   5.787  16.042  0.00  0.00    +0.000 OA
ATOM     32  C   UNL     1       6.586   5.061  15.236  0.00  0.00    +0.000 C 
ATOM     33  C   UNL     1       5.870   3.999  16.071  0.00  0.00    +0.000 C 
ENDBRANCH  24  26
ENDBRANCH  18  20
ENDBRANCH   1  18
TORSDOF 6
ENDMDL
MODEL 7
REMARK VINA RESULT:      -7.9      2.816      4.988
REMARK  Name = 
REMARK  9 active torsions:
REMARK  status: ('A' for Active; 'I' for Inactive)
REMARK    1  A    between atoms: C_1  and  C_2
REMARK    2  A    between atoms: C_5  and  S_6
REMARK    3  A    between atoms: S_6  and  N_9
REMARK    4  A    between atoms: N_9  and  C_10
REMARK    5  A    between atoms: C_14  and  C_15
REMARK    6  A    between atoms: C_24  and  C_25
REMARK    7  A    between atoms: C_26  and  N_27
REMARK    8  A    between atoms: N_27  and  S_28
REMARK    9  A    between atoms: S_28  and  C_29
REMARK                            x       y       z     vdW  Elec       q    Type
REMARK                         _______ _______ _______ _____ _____    ______ ____
ROOT
ATOM      1  S   UNL     1       1.036   8.692  20.941  0.00  0.00    +0.000 S 
ATOM      2  O   UNL     1      -0.300   8.144  21.052  0.00  0.00    +0.000 OA
ATOM      3  O   UNL     1       1.873   8.812  22.118  0.00  0.00    +0.000 OA
ENDROOT
BRANCH   1   8
ATOM      4  C   UNL     1       4.535   5.870  16.830  0.00  0.00    +0.000 C 
ATOM      5  C   UNL     1       3.526   6.392  17.824  0.00  0.00    +0.000 A 
ATOM      6  C   UNL     1       3.234   7.759  17.705  0.00  0.00    +0.000 A 
ATOM      7  C   UNL     1       2.423   8.404  18.625  0.00  0.00    +0.000 A 
ATOM      8  C   UNL     1       1.915   7.707  19.726  0.00  0.00    +0.000 A 
ATOM      9  C   UNL     1       2.177   6.324  19.888  0.00  0.00    +0.000 A 
ATOM     10  C   UNL     1       1.745   5.577  21.126  0.00  0.00    +0.000 C 
ATOM     11  C   UNL     1       2.935   5.653  18.881  0.00  0.00    +0.000 A 
BRANCH  11  12
ATOM     12  N   UNL     1       3.163   4.245  18.980  0.00  0.00    +0.000 N 
ATOM     13  H   UNL     1       3.988   3.880  19.453  0.00  0.00    +0.000 HD
BRANCH  12  14
ATOM     14  S   UNL     1       2.207   3.098  18.213  0.00  0.00    +0.000 S 
ATOM     15  C   UNL     1       1.293   2.373  19.553  0.00  0.00    +0.000 C 
ATOM     16  O   UNL     1       1.265   3.858  17.416  0.00  0.00    +0.000 OA
ATOM     17  O   UNL     1       3.024   2.066  17.615  0.00  0.00    +0.000 OA
ENDBRANCH  12  14
ENDBRANCH  11  12
ENDBRANCH   1   8
BRANCH   1  18
ATOM     18  N   UNL     1       0.896  10.206  20.245  0.00  0.00    +0.000 N 
ATOM     19  H   UNL     1       1.685  10.552  19.703  0.00  0.00    +0.000 HD
BRANCH  18  20
ATOM     20  C   UNL     1      -0.237  11.027  20.452  0.00  0.00    +0.000 A 
ATOM     21  C   UNL     1      -0.410  11.665  21.677  0.00  0.00    +0.000 A 
ATOM     22  C   UNL     1      -1.549  12.431  21.895  0.00  0.00    +0.000 A 
ATOM     23  C   UNL     1      -2.497  12.570  20.883  0.00  0.00    +0.000 A 
ATOM     24  C   UNL     1      -2.384  11.860  19.683  0.00  0.00    +0.000 A 
ATOM     25  C   UNL     1      -1.226  11.102  19.464  0.00  0.00    +0.000 A 
BRANCH  24  26
ATOM     26  C   UNL     1      -3.430  11.917  18.613  0.00  0.00    +0.000 C 
ATOM     27  O   UNL     1      -3.066  11.723  17.462  0.00  0.00    +0.000 OA
ATOM     28  N   UNL     1      -4.771  12.158  18.949  0.00  0.00    +0.000 N 
ATOM     29  C   UNL     1      -5.349  12.400  20.271  0.00  0.00    +0.000 C 
ATOM     30  C   UNL     1      -6.610  11.578  20.521  0.00  0.00    +0.000 C 
ATOM     31  O   UNL     1      -7.552  11.718  19.458  0.00  0.00    +0.000 OA
ATOM     32  C   UNL     1      -6.953  11.316  18.214  0.00  0.00    +0.000 C 
ATOM     33  C   UNL     1      -5.768  12.218  17.871  0.00  0.00    +0.000 C 
ENDBRANCH  24  26
ENDBRANCH  18  20
ENDBRANCH   1  18
TORSDOF 6
ENDMDL
MODEL 8
REMARK VINA RESULT:      -7.9      3.007      5.208
REMARK  Name = 
REMARK  9 active torsions:
REMARK  status: ('A' for Active; 'I' for Inactive)
REMARK    1  A    between atoms: C_1  and  C_2
REMARK    2  A    between atoms: C_5  and  S_6
REMARK    3  A    between atoms: S_6  and  N_9
REMARK    4  A    between atoms: N_9  and  C_10
REMARK    5  A    between atoms: C_14  and  C_15
REMARK    6  A    between atoms: C_24  and  C_25
REMARK    7  A    between atoms: C_26  and  N_27
REMARK    8  A    between atoms: N_27  and  S_28
REMARK    9  A    between atoms: S_28  and  C_29
REMARK                            x       y       z     vdW  Elec       q    Type
REMARK                         _______ _______ _______ _____ _____    ______ ____
ROOT
ATOM      1  S   UNL     1       0.773   8.897  21.113  0.00  0.00    +0.000 S 
ATOM      2  O   UNL     1      -0.545   8.300  21.143  0.00  0.00    +0.000 OA
ATOM      3  O   UNL     1       1.590   8.917  22.310  0.00  0.00    +0.000 OA
ENDROOT
BRANCH   1   8
ATOM      4  C   UNL     1       4.381   6.672  16.738  0.00  0.00    +0.000 C 
ATOM      5  C   UNL     1       3.362   7.035  17.791  0.00  0.00    +0.000 A 
ATOM      6  C   UNL     1       2.938   8.372  17.764  0.00  0.00    +0.000 A 
ATOM      7  C   UNL     1       2.100   8.880  18.745  0.00  0.00    +0.000 A 
ATOM      8  C   UNL     1       1.699   8.075  19.816  0.00  0.00    +0.000 A 
ATOM      9  C   UNL     1       2.098   6.717  19.885  0.00  0.00    +0.000 A 
ATOM     10  C   UNL     1       1.782   5.860  21.087  0.00  0.00    +0.000 C 
ATOM     11  C   UNL     1       2.881   6.182  18.818  0.00  0.00    +0.000 A 
BRANCH  11  12
ATOM     12  N   UNL     1       3.245   4.800  18.824  0.00  0.00    +0.000 N 
ATOM     13  H   UNL     1       4.012   4.462  19.403  0.00  0.00    +0.000 HD
BRANCH  12  14
ATOM     14  S   UNL     1       2.571   3.661  17.791  0.00  0.00    +0.000 S 
ATOM     15  C   UNL     1       2.341   2.248  18.843  0.00  0.00    +0.000 C 
ATOM     16  O   UNL     1       1.253   4.172  17.469  0.00  0.00    +0.000 OA
ATOM     17  O   UNL     1       3.502   3.299  16.748  0.00  0.00    +0.000 OA
ENDBRANCH  12  14
ENDBRANCH  11  12
ENDBRANCH   1   8
BRANCH   1  18
ATOM     18  N   UNL     1       0.594  10.472  20.579  0.00  0.00    +0.000 N 
ATOM     19  H   UNL     1       1.431  10.966  20.276  0.00  0.00    +0.000 HD
BRANCH  18  20
ATOM     20  C   UNL     1      -0.652  11.140  20.612  0.00  0.00    +0.000 A 
ATOM     21  C   UNL     1      -1.306  11.435  19.420  0.00  0.00    +0.000 A 
ATOM     22  C   UNL     1      -2.507  12.135  19.453  0.00  0.00    +0.000 A 
ATOM     23  C   UNL     1      -3.055  12.517  20.675  0.00  0.00    +0.000 A 
ATOM     24  C   UNL     1      -2.364  12.311  21.874  0.00  0.00    +0.000 A 
ATOM     25  C   UNL     1      -1.162  11.592  21.835  0.00  0.00    +0.000 A 
BRANCH  24  26
ATOM     26  C   UNL     1      -2.882  12.790  23.195  0.00  0.00    +0.000 C 
ATOM     27  O   UNL     1      -3.497  11.987  23.881  0.00  0.00    +0.000 OA
ATOM     28  N   UNL     1      -2.634  14.106  23.615  0.00  0.00    +0.000 N 
ATOM     29  C   UNL     1      -1.916  15.167  22.909  0.00  0.00    +0.000 C 
ATOM     30  C   UNL     1      -0.912  15.893  23.800  0.00  0.00    +0.000 C 
ATOM     31  O   UNL     1      -1.508  16.329  25.022  0.00  0.00    +0.000 OA
ATOM     32  C   UNL     1      -2.059  15.205  25.729  0.00  0.00    +0.000 C 
ATOM     33  C   UNL     1      -3.169  14.545  24.912  0.00  0.00    +0.000 C 
ENDBRANCH  24  26
ENDBRANCH  18  20
ENDBRANCH   1  18
TORSDOF 6
ENDMDL
MODEL 9
REMARK VINA RESULT:      -7.9      1.321      2.207
REMARK  Name = 
REMARK  9 active torsions:
REMARK  status: ('A' for Active; 'I' for Inactive)
REMARK    1  A    between atoms: C_1  and  C_2
REMARK    2  A    between atoms: C_5  and  S_6
REMARK    3  A    between atoms: S_6  and  N_9
REMARK    4  A    between atoms: N_9  and  C_10
REMARK    5  A    between atoms: C_14  and  C_15
REMARK    6  A    between atoms: C_24  and  C_25
REMARK    7  A    between atoms: C_26  and  N_27
REMARK    8  A    between atoms: N_27  and  S_28
REMARK    9  A    between atoms: S_28  and  C_29
REMARK                            x       y       z     vdW  Elec       q    Type
REMARK                         _______ _______ _______ _____ _____    ______ ____
ROOT
ATOM      1  S   UNL     1       2.123   4.145  20.373  0.00  0.00    +0.000 S 
ATOM      2  O   UNL     1       0.730   4.137  19.979  0.00  0.00    +0.000 OA
ATOM      3  O   UNL     1       2.606   3.198  21.357  0.00  0.00    +0.000 OA
ENDROOT
BRANCH   1   8
ATOM      4  C   UNL     1       4.900   3.842  14.959  0.00  0.00    +0.000 C 
ATOM      5  C   UNL     1       4.393   3.804  16.380  0.00  0.00    +0.000 A 
ATOM      6  C   UNL     1       3.036   3.473  16.514  0.00  0.00    +0.000 A 
ATOM      7  C   UNL     1       2.402   3.520  17.746  0.00  0.00    +0.000 A 
ATOM      8  C   UNL     1       3.099   3.950  18.881  0.00  0.00    +0.000 A 
ATOM      9  C   UNL     1       4.471   4.291  18.797  0.00  0.00    +0.000 A 
ATOM     10  C   UNL     1       5.214   4.873  19.976  0.00  0.00    +0.000 C 
ATOM     11  C   UNL     1       5.134   4.145  17.542  0.00  0.00    +0.000 A 
BRANCH  11  12
ATOM     12  N   UNL     1       6.533   4.419  17.438  0.00  0.00    +0.000 N 
ATOM     13  H   UNL     1       7.225   3.717  17.696  0.00  0.00    +0.000 HD
BRANCH  12  14
ATOM     14  S   UNL     1       7.153   5.928  17.045  0.00  0.00    +0.000 S 
ATOM     15  C   UNL     1       5.713   6.969  17.048  0.00  0.00    +0.000 C 
ATOM     16  O   UNL     1       7.963   6.316  18.182  0.00  0.00    +0.000 OA
ATOM     17  O   UNL     1       7.704   5.925  15.708  0.00  0.00    +0.000 OA
ENDBRANCH  12  14
ENDBRANCH  11  12
ENDBRANCH   1   8
BRANCH   1  18
ATOM     18  N   UNL     1       2.477   5.687  20.917  0.00  0.00    +0.000 N 
ATOM     19  H   UNL     1       2.929   5.775  21.825  0.00  0.00    +0.000 HD
BRANCH  18  20
ATOM     20  C   UNL     1       2.103   6.844  20.195  0.00  0.00    +0.000 A 
ATOM     21  C   UNL     1       2.485   6.978  18.864  0.00  0.00    +0.000 A 
ATOM     22  C   UNL     1       2.157   8.137  18.171  0.00  0.00    +0.000 A 
ATOM     23  C   UNL     1       1.435   9.145  18.806  0.00  0.00    +0.000 A 
ATOM     24  C   UNL     1       1.126   9.066  20.168  0.00  0.00    +0.000 A 
ATOM     25  C   UNL     1       1.446   7.888  20.856  0.00  0.00    +0.000 A 
BRANCH  24  26
ATOM     26  C   UNL     1       0.430  10.171  20.901  0.00  0.00    +0.000 C 
ATOM     27  O   UNL     1       0.918  10.535  21.961  0.00  0.00    +0.000 OA
ATOM     28  N   UNL     1      -0.719  10.766  20.356  0.00  0.00    +0.000 N 
ATOM     29  C   UNL     1      -1.406  10.442  19.107  0.00  0.00    +0.000 C 
ATOM     30  C   UNL     1      -1.748  11.681  18.285  0.00  0.00    +0.000 C 
ATOM     31  O   UNL     1      -2.428  12.663  19.066  0.00  0.00    +0.000 OA
ATOM     32  C   UNL     1      -1.621  13.040  20.194  0.00  0.00    +0.000 C 
ATOM     33  C   UNL     1      -1.381  11.840  21.110  0.00  0.00    +0.000 C 
ENDBRANCH  24  26
ENDBRANCH  18  20
ENDBRANCH   1  18
TORSDOF 6
ENDMDL
