MODEL 1
REMARK VINA RESULT:      -6.8      0.000      0.000
REMARK  Name = 
REMARK  10 active torsions:
REMARK  status: ('A' for Active; 'I' for Inactive)
REMARK    1  A    between atoms: C_2  and  C_4
REMARK    2  A    between atoms: C_4  and  N_5
REMARK    3  A    between atoms: C_4  and  N_6
REMARK    4  A    between atoms: C_7  and  C_9
REMARK    5  A    between atoms: C_9  and  N_10
REMARK    6  A    between atoms: C_9  and  C_11
REMARK    7  A    between atoms: C_11  and  C_12
REMARK    8  A    between atoms: C_12  and  C_13
REMARK    9  A    between atoms: C_13  and  N_14
REMARK   10  A    between atoms: N_17  and  N_18
REMARK                            x       y       z     vdW  Elec       q    Type
REMARK                         _______ _______ _______ _____ _____    ______ ____
ROOT
ATOM      1  C   UNL     1       4.023   2.946  18.794  0.00  0.00    +0.000 C 
ENDROOT
BRANCH   1   3
ATOM      2  N   UNL     1       5.684   3.858  17.219  0.00  0.00    +0.000 N 
ATOM      3  C   UNL     1       5.241   3.850  18.525  0.00  0.00    +0.000 C 
ATOM      4  O   UNL     1       5.783   4.500  19.415  0.00  0.00    +0.000 OA
ATOM      5  H   UNL     1       5.020   3.627  16.495  0.00  0.00    +0.000 HD
BRANCH   2   6
ATOM      6  C   UNL     1       6.777   4.699  16.853  0.00  0.00    +0.000 C 
BRANCH   6   8
ATOM      7  N   UNL     1       6.343   3.656  14.649  0.00  0.00    +0.000 N 
ATOM      8  C   UNL     1       6.993   4.660  15.314  0.00  0.00    +0.000 C 
ATOM      9  O   UNL     1       7.727   5.448  14.716  0.00  0.00    +0.000 OA
ATOM     10  H   UNL     1       6.539   3.561  13.662  0.00  0.00    +0.000 HD
ATOM     11  H   UNL     1       6.060   2.822  15.149  0.00  0.00    +0.000 HD
ENDBRANCH   6   8
BRANCH   6  12
ATOM     12  N   UNL     1       7.917   4.112  17.529  0.00  0.00    +0.000 NA
ATOM     13  H   UNL     1       8.710   4.744  17.442  0.00  0.00    +0.000 HD
ATOM     14  H   UNL     1       8.154   3.248  17.050  0.00  0.00    +0.000 HD
ENDBRANCH   6  12
ENDBRANCH   2   6
ENDBRANCH   1   3
BRANCH   1  15
ATOM     15  N   UNL     1       4.070   1.757  17.924  0.00  0.00    +0.000 NA
ATOM     16  H   UNL     1       3.212   1.650  17.390  0.00  0.00    +0.000 HD
ATOM     17  H   UNL     1       4.159   0.921  18.506  0.00  0.00    +0.000 HD
ENDBRANCH   1  15
BRANCH   1  18
ATOM     18  C   UNL     1       3.933   2.526  20.270  0.00  0.00    +0.000 C 
BRANCH  18  19
ATOM     19  C   UNL     1       2.669   3.025  20.987  0.00  0.00    +0.000 C 
BRANCH  19  20
ATOM     20  C   UNL     1       1.811   3.938  20.113  0.00  0.00    +0.000 C 
BRANCH  20  21
ATOM     21  N   UNL     1       1.802   5.283  20.682  0.00  0.00    +0.000 NA
ATOM     22  C   UNL     1       2.200   6.273  19.945  0.00  0.00    +0.000 C 
ATOM     23  N   UNL     1       2.106   7.488  20.536  0.00  0.00    +0.000 N 
ATOM     24  N   UNL     1       2.646   6.181  18.661  0.00  0.00    +0.000 N 
ATOM     25  H   UNL     1       1.999   7.450  21.543  0.00  0.00    +0.000 HD
ATOM     26  H   UNL     1       2.709   8.236  20.200  0.00  0.00    +0.000 HD
ATOM     27  H   UNL     1       2.666   5.264  18.251  0.00  0.00    +0.000 HD
BRANCH  24  28
ATOM     28  N   UNL     1       3.105   7.180  17.899  0.00  0.00    +0.000 N 
ATOM     29  O   UNL     1       2.458   8.224  17.788  0.00  0.00    +0.000 OA
ATOM     30  O   UNL     1       4.201   6.937  17.396  0.00  0.00    +0.000 OA
ENDBRANCH  24  28
ENDBRANCH  20  21
ENDBRANCH  19  20
ENDBRANCH  18  19
ENDBRANCH   1  18
TORSDOF 10
ENDMDL
MODEL 2
REMARK VINA RESULT:      -6.6      2.514      5.738
REMARK  Name = 
REMARK  10 active torsions:
REMARK  status: ('A' for Active; 'I' for Inactive)
REMARK    1  A    between atoms: C_2  and  C_4
REMARK    2  A    between atoms: C_4  and  N_5
REMARK    3  A    between atoms: C_4  and  N_6
REMARK    4  A    between atoms: C_7  and  C_9
REMARK    5  A    between atoms: C_9  and  N_10
REMARK    6  A    between atoms: C_9  and  C_11
REMARK    7  A    between atoms: C_11  and  C_12
REMARK    8  A    between atoms: C_12  and  C_13
REMARK    9  A    between atoms: C_13  and  N_14
REMARK   10  A    between atoms: N_17  and  N_18
REMARK                            x       y       z     vdW  Elec       q    Type
REMARK                         _______ _______ _______ _____ _____    ______ ____
ROOT
ATOM      1  C   UNL     1       3.871   3.939  16.784  0.00  0.00    +0.000 C 
ENDROOT
BRANCH   1   3
ATOM      2  N   UNL     1       3.486   3.502  19.178  0.00  0.00    +0.000 N 
ATOM      3  C   UNL     1       3.650   2.934  17.931  0.00  0.00    +0.000 C 
ATOM      4  O   UNL     1       3.637   1.721  17.746  0.00  0.00    +0.000 OA
ATOM      5  H   UNL     1       3.141   4.450  19.223  0.00  0.00    +0.000 HD
BRANCH   2   6
ATOM      6  C   UNL     1       3.226   2.662  20.303  0.00  0.00    +0.000 C 
BRANCH   6   8
ATOM      7  N   UNL     1       2.403   4.806  21.231  0.00  0.00    +0.000 N 
ATOM      8  C   UNL     1       2.435   3.446  21.387  0.00  0.00    +0.000 C 
ATOM      9  O   UNL     1       1.897   2.905  22.352  0.00  0.00    +0.000 OA
ATOM     10  H   UNL     1       1.968   5.340  21.971  0.00  0.00    +0.000 HD
ATOM     11  H   UNL     1       3.121   5.267  20.685  0.00  0.00    +0.000 HD
ENDBRANCH   6   8
BRANCH   6  12
ATOM     12  N   UNL     1       4.544   2.321  20.800  0.00  0.00    +0.000 NA
ATOM     13  H   UNL     1       5.157   3.125  20.679  0.00  0.00    +0.000 HD
ATOM     14  H   UNL     1       4.909   1.565  20.228  0.00  0.00    +0.000 HD
ENDBRANCH   6  12
ENDBRANCH   2   6
ENDBRANCH   1   3
BRANCH   1  15
ATOM     15  N   UNL     1       4.061   5.297  17.325  0.00  0.00    +0.000 NA
ATOM     16  H   UNL     1       4.043   5.998  16.591  0.00  0.00    +0.000 HD
ATOM     17  H   UNL     1       4.982   5.355  17.765  0.00  0.00    +0.000 HD
ENDBRANCH   1  15
BRANCH   1  18
ATOM     18  C   UNL     1       5.064   3.545  15.898  0.00  0.00    +0.000 C 
BRANCH  18  19
ATOM     19  C   UNL     1       5.642   4.706  15.073  0.00  0.00    +0.000 C 
BRANCH  19  20
ATOM     20  C   UNL     1       7.147   4.881  15.268  0.00  0.00    +0.000 C 
BRANCH  20  21
ATOM     21  N   UNL     1       7.402   6.155  15.934  0.00  0.00    +0.000 NA
ATOM     22  C   UNL     1       7.357   6.201  17.229  0.00  0.00    +0.000 C 
ATOM     23  N   UNL     1       7.660   7.408  17.762  0.00  0.00    +0.000 N 
ATOM     24  N   UNL     1       7.079   5.151  18.054  0.00  0.00    +0.000 N 
ATOM     25  H   UNL     1       7.618   8.174  17.099  0.00  0.00    +0.000 HD
ATOM     26  H   UNL     1       7.305   7.629  18.689  0.00  0.00    +0.000 HD
ATOM     27  H   UNL     1       6.894   4.266  17.617  0.00  0.00    +0.000 HD
BRANCH  24  28
ATOM     28  N   UNL     1       6.980   5.185  19.388  0.00  0.00    +0.000 N 
ATOM     29  O   UNL     1       5.882   5.044  19.932  0.00  0.00    +0.000 OA
ATOM     30  O   UNL     1       8.066   5.327  19.947  0.00  0.00    +0.000 OA
ENDBRANCH  24  28
ENDBRANCH  20  21
ENDBRANCH  19  20
ENDBRANCH  18  19
ENDBRANCH   1  18
TORSDOF 10
ENDMDL
MODEL 3
REMARK VINA RESULT:      -6.6      1.113      1.113
REMARK  Name = 
REMARK  10 active torsions:
REMARK  status: ('A' for Active; 'I' for Inactive)
REMARK    1  A    between atoms: C_2  and  C_4
REMARK    2  A    between atoms: C_4  and  N_5
REMARK    3  A    between atoms: C_4  and  N_6
REMARK    4  A    between atoms: C_7  and  C_9
REMARK    5  A    between atoms: C_9  and  N_10
REMARK    6  A    between atoms: C_9  and  C_11
REMARK    7  A    between atoms: C_11  and  C_12
REMARK    8  A    between atoms: C_12  and  C_13
REMARK    9  A    between atoms: C_13  and  N_14
REMARK   10  A    between atoms: N_17  and  N_18
REMARK                            x       y       z     vdW  Elec       q    Type
REMARK                         _______ _______ _______ _____ _____    ______ ____
ROOT
ATOM      1  C   UNL     1       3.937   3.368  18.879  0.00  0.00    +0.000 C 
ENDROOT
BRANCH   1   3
ATOM      2  N   UNL     1       6.145   4.084  18.053  0.00  0.00    +0.000 N 
ATOM      3  C   UNL     1       5.132   4.338  18.954  0.00  0.00    +0.000 C 
ATOM      4  O   UNL     1       5.180   5.256  19.768  0.00  0.00    +0.000 OA
ATOM      5  H   UNL     1       5.908   3.591  17.204  0.00  0.00    +0.000 HD
BRANCH   2   6
ATOM      6  C   UNL     1       7.277   4.952  18.006  0.00  0.00    +0.000 C 
BRANCH   6   8
ATOM      7  N   UNL     1       6.304   5.696  15.853  0.00  0.00    +0.000 N 
ATOM      8  C   UNL     1       7.063   6.057  16.933  0.00  0.00    +0.000 C 
ATOM      9  O   UNL     1       7.565   7.178  17.011  0.00  0.00    +0.000 OA
ATOM     10  H   UNL     1       6.225   6.370  15.104  0.00  0.00    +0.000 HD
ATOM     11  H   UNL     1       6.211   4.717  15.608  0.00  0.00    +0.000 HD
ENDBRANCH   6   8
BRANCH   6  12
ATOM     12  N   UNL     1       8.370   4.086  17.615  0.00  0.00    +0.000 NA
ATOM     13  H   UNL     1       9.228   4.634  17.586  0.00  0.00    +0.000 HD
ATOM     14  H   UNL     1       8.184   3.752  16.674  0.00  0.00    +0.000 HD
ENDBRANCH   6  12
ENDBRANCH   2   6
ENDBRANCH   1   3
BRANCH   1  15
ATOM     15  N   UNL     1       4.179   2.341  17.850  0.00  0.00    +0.000 NA
ATOM     16  H   UNL     1       3.369   2.216  17.248  0.00  0.00    +0.000 HD
ATOM     17  H   UNL     1       4.345   1.442  18.308  0.00  0.00    +0.000 HD
ENDBRANCH   1  15
BRANCH   1  18
ATOM     18  C   UNL     1       3.647   2.707  20.237  0.00  0.00    +0.000 C 
BRANCH  18  19
ATOM     19  C   UNL     1       2.373   3.221  20.925  0.00  0.00    +0.000 C 
BRANCH  19  20
ATOM     20  C   UNL     1       1.601   4.225  20.070  0.00  0.00    +0.000 C 
BRANCH  20  21
ATOM     21  N   UNL     1       1.649   5.538  20.707  0.00  0.00    +0.000 NA
ATOM     22  C   UNL     1       2.040   6.556  20.005  0.00  0.00    +0.000 C 
ATOM     23  N   UNL     1       2.001   7.741  20.660  0.00  0.00    +0.000 N 
ATOM     24  N   UNL     1       2.432   6.520  18.700  0.00  0.00    +0.000 N 
ATOM     25  H   UNL     1       1.934   7.653  21.668  0.00  0.00    +0.000 HD
ATOM     26  H   UNL     1       2.608   8.491  20.338  0.00  0.00    +0.000 HD
ATOM     27  H   UNL     1       2.413   5.626  18.244  0.00  0.00    +0.000 HD
BRANCH  24  28
ATOM     28  N   UNL     1       2.884   7.547  17.971  0.00  0.00    +0.000 N 
ATOM     29  O   UNL     1       2.264   8.613  17.949  0.00  0.00    +0.000 OA
ATOM     30  O   UNL     1       3.947   7.301  17.402  0.00  0.00    +0.000 OA
ENDBRANCH  24  28
ENDBRANCH  20  21
ENDBRANCH  19  20
ENDBRANCH  18  19
ENDBRANCH   1  18
TORSDOF 10
ENDMDL
MODEL 4
REMARK VINA RESULT:      -6.4      2.339      5.251
REMARK  Name = 
REMARK  10 active torsions:
REMARK  status: ('A' for Active; 'I' for Inactive)
REMARK    1  A    between atoms: C_2  and  C_4
REMARK    2  A    between atoms: C_4  and  N_5
REMARK    3  A    between atoms: C_4  and  N_6
REMARK    4  A    between atoms: C_7  and  C_9
REMARK    5  A    between atoms: C_9  and  N_10
REMARK    6  A    between atoms: C_9  and  C_11
REMARK    7  A    between atoms: C_11  and  C_12
REMARK    8  A    between atoms: C_12  and  C_13
REMARK    9  A    between atoms: C_13  and  N_14
REMARK   10  A    between atoms: N_17  and  N_18
REMARK                            x       y       z     vdW  Elec       q    Type
REMARK                         _______ _______ _______ _____ _____    ______ ____
ROOT
ATOM      1  C   UNL     1       1.614   5.760  19.563  0.00  0.00    +0.000 C 
ENDROOT
BRANCH   1   3
ATOM      2  N   UNL     1       2.746   3.633  19.052  0.00  0.00    +0.000 N 
ATOM      3  C   UNL     1       1.998   4.328  19.980  0.00  0.00    +0.000 C 
ATOM      4  O   UNL     1       1.651   3.841  21.052  0.00  0.00    +0.000 OA
ATOM      5  H   UNL     1       3.298   4.166  18.396  0.00  0.00    +0.000 HD
BRANCH   2   6
ATOM      6  C   UNL     1       3.196   2.314  19.358  0.00  0.00    +0.000 C 
BRANCH   6   8
ATOM      7  N   UNL     1       5.407   3.421  19.501  0.00  0.00    +0.000 N 
ATOM      8  C   UNL     1       4.649   2.356  19.907  0.00  0.00    +0.000 C 
ATOM      9  O   UNL     1       5.122   1.480  20.631  0.00  0.00    +0.000 OA
ATOM     10  H   UNL     1       6.379   3.422  19.777  0.00  0.00    +0.000 HD
ATOM     11  H   UNL     1       5.165   3.915  18.651  0.00  0.00    +0.000 HD
ENDBRANCH   6   8
BRANCH   6  12
ATOM     12  N   UNL     1       3.167   1.626  18.082  0.00  0.00    +0.000 NA
ATOM     13  H   UNL     1       4.069   1.748  17.625  0.00  0.00    +0.000 HD
ATOM     14  H   UNL     1       2.462   2.071  17.502  0.00  0.00    +0.000 HD
ENDBRANCH   6  12
ENDBRANCH   2   6
ENDBRANCH   1   3
BRANCH   1  15
ATOM     15  N   UNL     1       2.148   6.733  20.533  0.00  0.00    +0.000 NA
ATOM     16  H   UNL     1       2.547   7.544  20.069  0.00  0.00    +0.000 HD
ATOM     17  H   UNL     1       2.905   6.296  21.063  0.00  0.00    +0.000 HD
ENDBRANCH   1  15
BRANCH   1  18
ATOM     18  C   UNL     1       2.101   6.097  18.144  0.00  0.00    +0.000 C 
BRANCH  18  19
ATOM     19  C   UNL     1       3.205   7.165  18.098  0.00  0.00    +0.000 C 
BRANCH  19  20
ATOM     20  C   UNL     1       4.349   6.795  17.156  0.00  0.00    +0.000 C 
BRANCH  20  21
ATOM     21  N   UNL     1       4.483   5.342  17.106  0.00  0.00    +0.000 NA
ATOM     22  C   UNL     1       5.276   4.820  16.223  0.00  0.00    +0.000 C 
ATOM     23  N   UNL     1       5.381   3.471  16.286  0.00  0.00    +0.000 N 
ATOM     24  N   UNL     1       6.010   5.510  15.305  0.00  0.00    +0.000 N 
ATOM     25  H   UNL     1       4.642   3.025  16.818  0.00  0.00    +0.000 HD
ATOM     26  H   UNL     1       5.664   2.970  15.448  0.00  0.00    +0.000 HD
ATOM     27  H   UNL     1       5.928   6.511  15.316  0.00  0.00    +0.000 HD
BRANCH  24  28
ATOM     28  N   UNL     1       6.796   4.992  14.354  0.00  0.00    +0.000 N 
ATOM     29  O   UNL     1       6.379   4.085  13.630  0.00  0.00    +0.000 OA
ATOM     30  O   UNL     1       7.896   5.538  14.289  0.00  0.00    +0.000 OA
ENDBRANCH  24  28
ENDBRANCH  20  21
ENDBRANCH  19  20
ENDBRANCH  18  19
ENDBRANCH   1  18
TORSDOF 10
ENDMDL
MODEL 5
REMARK VINA RESULT:      -6.4      2.985      4.900
REMARK  Name = 
REMARK  10 active torsions:
REMARK  status: ('A' for Active; 'I' for Inactive)
REMARK    1  A    between atoms: C_2  and  C_4
REMARK    2  A    between atoms: C_4  and  N_5
REMARK    3  A    between atoms: C_4  and  N_6
REMARK    4  A    between atoms: C_7  and  C_9
REMARK    5  A    between atoms: C_9  and  N_10
REMARK    6  A    between atoms: C_9  and  C_11
REMARK    7  A    between atoms: C_11  and  C_12
REMARK    8  A    between atoms: C_12  and  C_13
REMARK    9  A    between atoms: C_13  and  N_14
REMARK   10  A    between atoms: N_17  and  N_18
REMARK                            x       y       z     vdW  Elec       q    Type
REMARK                         _______ _______ _______ _____ _____    ______ ____
ROOT
ATOM      1  C   UNL     1       6.617   4.081  16.032  0.00  0.00    +0.000 C 
ENDROOT
BRANCH   1   3
ATOM      2  N   UNL     1       6.094   3.514  13.692  0.00  0.00    +0.000 N 
ATOM      3  C   UNL     1       6.658   4.448  14.536  0.00  0.00    +0.000 C 
ATOM      4  O   UNL     1       7.168   5.488  14.130  0.00  0.00    +0.000 OA
ATOM      5  H   UNL     1       5.390   2.897  14.073  0.00  0.00    +0.000 HD
BRANCH   2   6
ATOM      6  C   UNL     1       6.037   3.777  12.291  0.00  0.00    +0.000 C 
BRANCH   6   8
ATOM      7  N   UNL     1       3.946   3.029  11.193  0.00  0.00    +0.000 N 
ATOM      8  C   UNL     1       5.212   2.673  11.570  0.00  0.00    +0.000 C 
ATOM      9  O   UNL     1       5.637   1.534  11.375  0.00  0.00    +0.000 OA
ATOM     10  H   UNL     1       3.364   2.301  10.801  0.00  0.00    +0.000 HD
ATOM     11  H   UNL     1       3.478   3.796  11.661  0.00  0.00    +0.000 HD
ENDBRANCH   6   8
BRANCH   6  12
ATOM     12  N   UNL     1       7.420   3.721  11.864  0.00  0.00    +0.000 NA
ATOM     13  H   UNL     1       7.729   4.663  11.633  0.00  0.00    +0.000 HD
ATOM     14  H   UNL     1       7.465   3.163  11.016  0.00  0.00    +0.000 HD
ENDBRANCH   6  12
ENDBRANCH   2   6
ENDBRANCH   1   3
BRANCH   1  15
ATOM     15  N   UNL     1       7.568   4.917  16.787  0.00  0.00    +0.000 NA
ATOM     16  H   UNL     1       8.278   4.353  17.246  0.00  0.00    +0.000 HD
ATOM     17  H   UNL     1       7.064   5.413  17.525  0.00  0.00    +0.000 HD
ENDBRANCH   1  15
BRANCH   1  18
ATOM     18  C   UNL     1       5.202   4.219  16.618  0.00  0.00    +0.000 C 
BRANCH  18  19
ATOM     19  C   UNL     1       4.977   5.513  17.416  0.00  0.00    +0.000 C 
BRANCH  19  20
ATOM     20  C   UNL     1       5.001   5.291  18.927  0.00  0.00    +0.000 C 
BRANCH  20  21
ATOM     21  N   UNL     1       5.391   3.911  19.206  0.00  0.00    +0.000 NA
ATOM     22  C   UNL     1       4.545   3.136  19.809  0.00  0.00    +0.000 C 
ATOM     23  N   UNL     1       4.969   1.860  19.977  0.00  0.00    +0.000 N 
ATOM     24  N   UNL     1       3.298   3.492  20.230  0.00  0.00    +0.000 N 
ATOM     25  H   UNL     1       5.969   1.740  19.861  0.00  0.00    +0.000 HD
ATOM     26  H   UNL     1       4.559   1.310  20.728  0.00  0.00    +0.000 HD
ATOM     27  H   UNL     1       3.011   4.438  20.054  0.00  0.00    +0.000 HD
BRANCH  24  28
ATOM     28  N   UNL     1       2.427   2.724  20.896  0.00  0.00    +0.000 N 
ATOM     29  O   UNL     1       2.501   2.625  22.124  0.00  0.00    +0.000 OA
ATOM     30  O   UNL     1       1.586   2.204  20.164  0.00  0.00    +0.000 OA
ENDBRANCH  24  28
ENDBRANCH  20  21
ENDBRANCH  19  20
ENDBRANCH  18  19
ENDBRANCH   1  18
TORSDOF 10
ENDMDL
MODEL 6
REMARK VINA RESULT:      -6.4      0.899      1.129
REMARK  Name = 
REMARK  10 active torsions:
REMARK  status: ('A' for Active; 'I' for Inactive)
REMARK    1  A    between atoms: C_2  and  C_4
REMARK    2  A    between atoms: C_4  and  N_5
REMARK    3  A    between atoms: C_4  and  N_6
REMARK    4  A    between atoms: C_7  and  C_9
REMARK    5  A    between atoms: C_9  and  N_10
REMARK    6  A    between atoms: C_9  and  C_11
REMARK    7  A    between atoms: C_11  and  C_12
REMARK    8  A    between atoms: C_12  and  C_13
REMARK    9  A    between atoms: C_13  and  N_14
REMARK   10  A    between atoms: N_17  and  N_18
REMARK                            x       y       z     vdW  Elec       q    Type
REMARK                         _______ _______ _______ _____ _____    ______ ____
ROOT
ATOM      1  C   UNL     1       3.829   3.131  18.819  0.00  0.00    +0.000 C 
ENDROOT
BRANCH   1   3
ATOM      2  N   UNL     1       5.839   3.976  17.672  0.00  0.00    +0.000 N 
ATOM      3  C   UNL     1       4.955   4.177  18.712  0.00  0.00    +0.000 C 
ATOM      4  O   UNL     1       5.060   5.109  19.504  0.00  0.00    +0.000 OA
ATOM      5  H   UNL     1       5.514   3.456  16.870  0.00  0.00    +0.000 HD
BRANCH   2   6
ATOM      6  C   UNL     1       6.891   4.915  17.454  0.00  0.00    +0.000 C 
BRANCH   6   8
ATOM      7  N   UNL     1       7.640   5.038  15.096  0.00  0.00    +0.000 N 
ATOM      8  C   UNL     1       6.774   5.533  16.033  0.00  0.00    +0.000 C 
ATOM      9  O   UNL     1       5.986   6.438  15.754  0.00  0.00    +0.000 OA
ATOM     10  H   UNL     1       7.639   5.486  14.190  0.00  0.00    +0.000 HD
ATOM     11  H   UNL     1       8.500   4.591  15.392  0.00  0.00    +0.000 HD
ENDBRANCH   6   8
BRANCH   6  12
ATOM     12  N   UNL     1       8.099   4.120  17.551  0.00  0.00    +0.000 NA
ATOM     13  H   UNL     1       8.275   3.682  16.648  0.00  0.00    +0.000 HD
ATOM     14  H   UNL     1       7.934   3.380  18.227  0.00  0.00    +0.000 HD
ENDBRANCH   6  12
ENDBRANCH   2   6
ENDBRANCH   1   3
BRANCH   1  15
ATOM     15  N   UNL     1       4.256   1.858  18.211  0.00  0.00    +0.000 NA
ATOM     16  H   UNL     1       3.466   1.334  17.845  0.00  0.00    +0.000 HD
ATOM     17  H   UNL     1       4.689   1.274  18.929  0.00  0.00    +0.000 HD
ENDBRANCH   1  15
BRANCH   1  18
ATOM     18  C   UNL     1       3.390   2.907  20.275  0.00  0.00    +0.000 C 
BRANCH  18  19
ATOM     19  C   UNL     1       1.866   2.901  20.477  0.00  0.00    +0.000 C 
BRANCH  19  20
ATOM     20  C   UNL     1       1.179   4.110  19.844  0.00  0.00    +0.000 C 
BRANCH  20  21
ATOM     21  N   UNL     1       1.474   5.301  20.635  0.00  0.00    +0.000 NA
ATOM     22  C   UNL     1       1.915   6.358  20.028  0.00  0.00    +0.000 C 
ATOM     23  N   UNL     1       2.109   7.431  20.831  0.00  0.00    +0.000 N 
ATOM     24  N   UNL     1       2.146   6.469  18.689  0.00  0.00    +0.000 N 
ATOM     25  H   UNL     1       2.146   7.205  21.819  0.00  0.00    +0.000 HD
ATOM     26  H   UNL     1       2.770   8.145  20.533  0.00  0.00    +0.000 HD
ATOM     27  H   UNL     1       1.956   5.659  18.126  0.00  0.00    +0.000 HD
BRANCH  24  28
ATOM     28  N   UNL     1       2.645   7.532  18.047  0.00  0.00    +0.000 N 
ATOM     29  O   UNL     1       3.832   7.553  17.711  0.00  0.00    +0.000 OA
ATOM     30  O   UNL     1       1.802   8.399  17.825  0.00  0.00    +0.000 OA
ENDBRANCH  24  28
ENDBRANCH  20  21
ENDBRANCH  19  20
ENDBRANCH  18  19
ENDBRANCH   1  18
TORSDOF 10
ENDMDL
MODEL 7
REMARK VINA RESULT:      -6.3      1.305      1.385
REMARK  Name = 
REMARK  10 active torsions:
REMARK  status: ('A' for Active; 'I' for Inactive)
REMARK    1  A    between atoms: C_2  and  C_4
REMARK    2  A    between atoms: C_4  and  N_5
REMARK    3  A    between atoms: C_4  and  N_6
REMARK    4  A    between atoms: C_7  and  C_9
REMARK    5  A    between atoms: C_9  and  N_10
REMARK    6  A    between atoms: C_9  and  C_11
REMARK    7  A    between atoms: C_11  and  C_12
REMARK    8  A    between atoms: C_12  and  C_13
REMARK    9  A    between atoms: C_13  and  N_14
REMARK   10  A    between atoms: N_17  and  N_18
REMARK                            x       y       z     vdW  Elec       q    Type
REMARK                         _______ _______ _______ _____ _____    ______ ____
ROOT
ATOM      1  C   UNL     1       4.309   2.442  18.822  0.00  0.00    +0.000 C 
ENDROOT
BRANCH   1   3
ATOM      2  N   UNL     1       5.708   3.615  17.168  0.00  0.00    +0.000 N 
ATOM      3  C   UNL     1       5.273   3.593  18.476  0.00  0.00    +0.000 C 
ATOM      4  O   UNL     1       5.635   4.418  19.311  0.00  0.00    +0.000 OA
ATOM      5  H   UNL     1       5.125   3.177  16.469  0.00  0.00    +0.000 HD
BRANCH   2   6
ATOM      6  C   UNL     1       6.567   4.667  16.730  0.00  0.00    +0.000 C 
BRANCH   6   8
ATOM      7  N   UNL     1       7.618   5.398  14.609  0.00  0.00    +0.000 N 
ATOM      8  C   UNL     1       6.543   4.770  15.179  0.00  0.00    +0.000 C 
ATOM      9  O   UNL     1       5.611   4.356  14.490  0.00  0.00    +0.000 OA
ATOM     10  H   UNL     1       7.580   5.551  13.610  0.00  0.00    +0.000 HD
ATOM     11  H   UNL     1       8.173   6.043  15.158  0.00  0.00    +0.000 HD
ENDBRANCH   6   8
BRANCH   6  12
ATOM     12  N   UNL     1       7.883   4.260  17.180  0.00  0.00    +0.000 NA
ATOM     13  H   UNL     1       8.170   3.439  16.650  0.00  0.00    +0.000 HD
ATOM     14  H   UNL     1       7.811   3.990  18.156  0.00  0.00    +0.000 HD
ENDBRANCH   6  12
ENDBRANCH   2   6
ENDBRANCH   1   3
BRANCH   1  15
ATOM     15  N   UNL     1       3.839   2.573  20.213  0.00  0.00    +0.000 NA
ATOM     16  H   UNL     1       3.616   3.537  20.444  0.00  0.00    +0.000 HD
ATOM     17  H   UNL     1       4.588   2.285  20.847  0.00  0.00    +0.000 HD
ENDBRANCH   1  15
BRANCH   1  18
ATOM     18  C   UNL     1       3.114   2.385  17.857  0.00  0.00    +0.000 C 
BRANCH  18  19
ATOM     19  C   UNL     1       1.744   2.418  18.553  0.00  0.00    +0.000 C 
BRANCH  19  20
ATOM     20  C   UNL     1       1.094   3.799  18.517  0.00  0.00    +0.000 C 
BRANCH  20  21
ATOM     21  N   UNL     1       1.616   4.607  19.615  0.00  0.00    +0.000 NA
ATOM     22  C   UNL     1       2.249   5.704  19.335  0.00  0.00    +0.000 C 
ATOM     23  N   UNL     1       2.649   6.416  20.415  0.00  0.00    +0.000 N 
ATOM     24  N   UNL     1       2.491   6.186  18.083  0.00  0.00    +0.000 N 
ATOM     25  H   UNL     1       2.648   5.888  21.281  0.00  0.00    +0.000 HD
ATOM     26  H   UNL     1       3.434   7.054  20.308  0.00  0.00    +0.000 HD
ATOM     27  H   UNL     1       2.146   5.643  17.312  0.00  0.00    +0.000 HD
BRANCH  24  28
ATOM     28  N   UNL     1       3.182   7.287  17.768  0.00  0.00    +0.000 N 
ATOM     29  O   UNL     1       2.616   8.382  17.718  0.00  0.00    +0.000 OA
ATOM     30  O   UNL     1       4.380   7.069  17.589  0.00  0.00    +0.000 OA
ENDBRANCH  24  28
ENDBRANCH  20  21
ENDBRANCH  19  20
ENDBRANCH  18  19
ENDBRANCH   1  18
TORSDOF 10
ENDMDL
MODEL 8
REMARK VINA RESULT:      -6.2      2.876      4.496
REMARK  Name = 
REMARK  10 active torsions:
REMARK  status: ('A' for Active; 'I' for Inactive)
REMARK    1  A    between atoms: C_2  and  C_4
REMARK    2  A    between atoms: C_4  and  N_5
REMARK    3  A    between atoms: C_4  and  N_6
REMARK    4  A    between atoms: C_7  and  C_9
REMARK    5  A    between atoms: C_9  and  N_10
REMARK    6  A    between atoms: C_9  and  C_11
REMARK    7  A    between atoms: C_11  and  C_12
REMARK    8  A    between atoms: C_12  and  C_13
REMARK    9  A    between atoms: C_13  and  N_14
REMARK   10  A    between atoms: N_17  and  N_18
REMARK                            x       y       z     vdW  Elec       q    Type
REMARK                         _______ _______ _______ _____ _____    ______ ____
ROOT
ATOM      1  C   UNL     1       6.709   6.505  17.250  0.00  0.00    +0.000 C 
ENDROOT
BRANCH   1   3
ATOM      2  N   UNL     1       6.612   5.402  15.049  0.00  0.00    +0.000 N 
ATOM      3  C   UNL     1       7.135   5.349  16.324  0.00  0.00    +0.000 C 
ATOM      4  O   UNL     1       7.872   4.443  16.703  0.00  0.00    +0.000 OA
ATOM      5  H   UNL     1       6.341   6.305  14.687  0.00  0.00    +0.000 HD
BRANCH   2   6
ATOM      6  C   UNL     1       6.981   4.405  14.096  0.00  0.00    +0.000 C 
BRANCH   6   8
ATOM      7  N   UNL     1       8.732   5.937  13.247  0.00  0.00    +0.000 N 
ATOM      8  C   UNL     1       7.743   5.054  12.907  0.00  0.00    +0.000 C 
ATOM      9  O   UNL     1       7.467   4.833  11.728  0.00  0.00    +0.000 OA
ATOM     10  H   UNL     1       9.181   6.435  12.490  0.00  0.00    +0.000 HD
ATOM     11  H   UNL     1       8.713   6.390  14.153  0.00  0.00    +0.000 HD
ENDBRANCH   6   8
BRANCH   6  12
ATOM     12  N   UNL     1       5.715   3.868  13.640  0.00  0.00    +0.000 NA
ATOM     13  H   UNL     1       5.327   4.496  12.938  0.00  0.00    +0.000 HD
ATOM     14  H   UNL     1       5.077   3.853  14.430  0.00  0.00    +0.000 HD
ENDBRANCH   6  12
ENDBRANCH   2   6
ENDBRANCH   1   3
BRANCH   1  15
ATOM     15  N   UNL     1       7.571   7.680  17.026  0.00  0.00    +0.000 NA
ATOM     16  H   UNL     1       8.463   7.417  16.616  0.00  0.00    +0.000 HD
ATOM     17  H   UNL     1       7.779   8.117  17.926  0.00  0.00    +0.000 HD
ENDBRANCH   1  15
BRANCH   1  18
ATOM     18  C   UNL     1       5.231   6.881  17.057  0.00  0.00    +0.000 C 
BRANCH  18  19
ATOM     19  C   UNL     1       4.287   6.266  18.102  0.00  0.00    +0.000 C 
BRANCH  19  20
ATOM     20  C   UNL     1       3.750   4.898  17.684  0.00  0.00    +0.000 C 
BRANCH  20  21
ATOM     21  N   UNL     1       4.521   3.853  18.351  0.00  0.00    +0.000 NA
ATOM     22  C   UNL     1       4.007   3.264  19.385  0.00  0.00    +0.000 C 
ATOM     23  N   UNL     1       4.767   2.271  19.905  0.00  0.00    +0.000 N 
ATOM     24  N   UNL     1       2.788   3.536  19.932  0.00  0.00    +0.000 N 
ATOM     25  H   UNL     1       5.735   2.292  19.603  0.00  0.00    +0.000 HD
ATOM     26  H   UNL     1       4.632   2.021  20.882  0.00  0.00    +0.000 HD
ATOM     27  H   UNL     1       2.243   4.256  19.493  0.00  0.00    +0.000 HD
BRANCH  24  28
ATOM     28  N   UNL     1       2.257   2.976  21.025  0.00  0.00    +0.000 N 
ATOM     29  O   UNL     1       2.592   3.365  22.147  0.00  0.00    +0.000 OA
ATOM     30  O   UNL     1       1.423   2.110  20.765  0.00  0.00    +0.000 OA
ENDBRANCH  24  28
ENDBRANCH  20  21
ENDBRANCH  19  20
ENDBRANCH  18  19
ENDBRANCH   1  18
TORSDOF 10
ENDMDL
MODEL 9
REMARK VINA RESULT:      -6.2      2.333      5.731
REMARK  Name = 
REMARK  10 active torsions:
REMARK  status: ('A' for Active; 'I' for Inactive)
REMARK    1  A    between atoms: C_2  and  C_4
REMARK    2  A    between atoms: C_4  and  N_5
REMARK    3  A    between atoms: C_4  and  N_6
REMARK    4  A    between atoms: C_7  and  C_9
REMARK    5  A    between atoms: C_9  and  N_10
REMARK    6  A    between atoms: C_9  and  C_11
REMARK    7  A    between atoms: C_11  and  C_12
REMARK    8  A    between atoms: C_12  and  C_13
REMARK    9  A    between atoms: C_13  and  N_14
REMARK   10  A    between atoms: N_17  and  N_18
REMARK                            x       y       z     vdW  Elec       q    Type
REMARK                         _______ _______ _______ _____ _____    ______ ____
ROOT
ATOM      1  C   UNL     1       5.974   4.386  18.978  0.00  0.00    +0.000 C 
ENDROOT
BRANCH   1   3
ATOM      2  N   UNL     1       3.828   3.179  19.068  0.00  0.00    +0.000 N 
ATOM      3  C   UNL     1       4.449   4.370  18.755  0.00  0.00    +0.000 C 
ATOM      4  O   UNL     1       3.841   5.342  18.317  0.00  0.00    +0.000 OA
ATOM      5  H   UNL     1       4.277   2.576  19.743  0.00  0.00    +0.000 HD
BRANCH   2   6
ATOM      6  C   UNL     1       2.410   3.072  18.944  0.00  0.00    +0.000 C 
BRANCH   6   8
ATOM      7  N   UNL     1       0.378   3.057  20.359  0.00  0.00    +0.000 N 
ATOM      8  C   UNL     1       1.735   3.229  20.335  0.00  0.00    +0.000 C 
ATOM      9  O   UNL     1       2.356   3.526  21.356  0.00  0.00    +0.000 OA
ATOM     10  H   UNL     1      -0.090   3.239  21.236  0.00  0.00    +0.000 HD
ATOM     11  H   UNL     1      -0.161   3.182  19.510  0.00  0.00    +0.000 HD
ENDBRANCH   6   8
BRANCH   6  12
ATOM     12  N   UNL     1       2.200   1.730  18.439  0.00  0.00    +0.000 NA
ATOM     13  H   UNL     1       1.379   1.335  18.893  0.00  0.00    +0.000 HD
ATOM     14  H   UNL     1       3.003   1.167  18.703  0.00  0.00    +0.000 HD
ENDBRANCH   6  12
ENDBRANCH   2   6
ENDBRANCH   1   3
BRANCH   1  15
ATOM     15  N   UNL     1       6.671   3.924  17.764  0.00  0.00    +0.000 NA
ATOM     16  H   UNL     1       6.326   4.395  16.932  0.00  0.00    +0.000 HD
ATOM     17  H   UNL     1       6.489   2.927  17.634  0.00  0.00    +0.000 HD
ENDBRANCH   1  15
BRANCH   1  18
ATOM     18  C   UNL     1       6.479   5.779  19.388  0.00  0.00    +0.000 C 
BRANCH  18  19
ATOM     19  C   UNL     1       7.849   6.148  18.796  0.00  0.00    +0.000 C 
BRANCH  19  20
ATOM     20  C   UNL     1       7.777   7.324  17.823  0.00  0.00    +0.000 C 
BRANCH  20  21
ATOM     21  N   UNL     1       6.487   7.307  17.139  0.00  0.00    +0.000 NA
ATOM     22  C   UNL     1       6.352   6.567  16.083  0.00  0.00    +0.000 C 
ATOM     23  N   UNL     1       5.109   6.570  15.547  0.00  0.00    +0.000 N 
ATOM     24  N   UNL     1       7.324   5.789  15.527  0.00  0.00    +0.000 N 
ATOM     25  H   UNL     1       4.526   7.337  15.863  0.00  0.00    +0.000 HD
ATOM     26  H   UNL     1       5.007   6.336  14.562  0.00  0.00    +0.000 HD
ATOM     27  H   UNL     1       8.221   5.790  15.978  0.00  0.00    +0.000 HD
BRANCH  24  28
ATOM     28  N   UNL     1       7.222   5.055  14.413  0.00  0.00    +0.000 N 
ATOM     29  O   UNL     1       7.762   5.434  13.369  0.00  0.00    +0.000 OA
ATOM     30  O   UNL     1       6.594   4.011  14.580  0.00  0.00    +0.000 OA
ENDBRANCH  24  28
ENDBRANCH  20  21
ENDBRANCH  19  20
ENDBRANCH  18  19
ENDBRANCH   1  18
TORSDOF 10
ENDMDL
