MODEL 1
REMARK VINA RESULT:      -8.1      0.000      0.000
REMARK  Name = 
REMARK  7 active torsions:
REMARK  status: ('A' for Active; 'I' for Inactive)
REMARK    1  A    between atoms: C_1  and  C_2
REMARK    2  A    between atoms: C_2  and  C_3
REMARK    3  A    between atoms: C_3  and  C_4
REMARK    4  A    between atoms: C_4  and  C_5
REMARK    5  A    between atoms: C_8  and  C_9
REMARK    6  A    between atoms: C_12  and  S_13
REMARK    7  A    between atoms: S_13  and  O_16
REMARK                            x       y       z     vdW  Elec       q    Type
REMARK                         _______ _______ _______ _____ _____    ______ ____
ROOT
ATOM      1  C   UNL     1       2.320   4.191  17.562  0.00  0.00    +0.000 C 
ATOM      2  O   UNL     1       1.218   4.723  17.574  0.00  0.00    +0.000 OA
ATOM      3  N   UNL     1       3.474   4.989  17.448  0.00  0.00    +0.000 N 
ATOM      4  C   UNL     1       3.627   6.288  17.966  0.00  0.00    +0.000 A 
ATOM      5  N   UNL     1       4.771   6.820  17.574  0.00  0.00    +0.000 NA
ATOM      6  C   UNL     1       5.402   5.867  16.825  0.00  0.00    +0.000 A 
ATOM      7  C   UNL     1       6.634   5.952  16.154  0.00  0.00    +0.000 A 
ATOM      8  C   UNL     1       7.085   4.860  15.408  0.00  0.00    +0.000 A 
ATOM      9  C   UNL     1       6.320   3.702  15.326  0.00  0.00    +0.000 A 
ATOM     10  C   UNL     1       5.091   3.603  15.984  0.00  0.00    +0.000 A 
ATOM     11  C   UNL     1       4.649   4.699  16.751  0.00  0.00    +0.000 A 
ENDROOT
BRANCH   4  12
ATOM     12  C   UNL     1       2.657   6.992  18.831  0.00  0.00    +0.000 A 
ATOM     13  C   UNL     1       2.097   8.227  18.470  0.00  0.00    +0.000 A 
ATOM     14  C   UNL     1       1.341   8.968  19.379  0.00  0.00    +0.000 A 
ATOM     15  C   UNL     1       1.085   8.439  20.642  0.00  0.00    +0.000 A 
ATOM     16  C   UNL     1       1.515   7.153  20.979  0.00  0.00    +0.000 A 
ATOM     17  C   UNL     1       2.297   6.433  20.070  0.00  0.00    +0.000 A 
BRANCH  15  18
ATOM     18  S   UNL     1       0.293   9.438  21.873  0.00  0.00    +0.000 S 
ATOM     19  O   UNL     1       1.234   9.656  22.953  0.00  0.00    +0.000 OA
ATOM     20  O   UNL     1      -0.373  10.529  21.201  0.00  0.00    +0.000 OA
BRANCH  18  21
ATOM     21  O   UNL     1      -0.827   8.450  22.488  0.00  0.00    +0.000 OA
ATOM     22  H   UNL     1      -1.507   9.001  22.930  0.00  0.00    +0.000 HD
ENDBRANCH  18  21
ENDBRANCH  15  18
ENDBRANCH   4  12
BRANCH   1  23
ATOM     23  C   UNL     1       2.558   2.711  17.732  0.00  0.00    +0.000 C 
BRANCH  23  24
ATOM     24  C   UNL     1       2.874   2.369  19.190  0.00  0.00    +0.000 C 
BRANCH  24  26
ATOM     25  C   UNL     1       2.030   2.906  21.498  0.00  0.00    +0.000 C 
ATOM     26  C   UNL     1       1.640   2.533  20.077  0.00  0.00    +0.000 C 
ENDBRANCH  24  26
ENDBRANCH  23  24
ENDBRANCH   1  23
TORSDOF 6
ENDMDL
MODEL 2
REMARK VINA RESULT:      -8.0      0.611      1.120
REMARK  Name = 
REMARK  7 active torsions:
REMARK  status: ('A' for Active; 'I' for Inactive)
REMARK    1  A    between atoms: C_1  and  C_2
REMARK    2  A    between atoms: C_2  and  C_3
REMARK    3  A    between atoms: C_3  and  C_4
REMARK    4  A    between atoms: C_4  and  C_5
REMARK    5  A    between atoms: C_8  and  C_9
REMARK    6  A    between atoms: C_12  and  S_13
REMARK    7  A    between atoms: S_13  and  O_16
REMARK                            x       y       z     vdW  Elec       q    Type
REMARK                         _______ _______ _______ _____ _____    ______ ____
ROOT
ATOM      1  C   UNL     1       2.251   4.393  17.609  0.00  0.00    +0.000 C 
ATOM      2  O   UNL     1       1.155   4.935  17.540  0.00  0.00    +0.000 OA
ATOM      3  N   UNL     1       3.417   5.165  17.455  0.00  0.00    +0.000 N 
ATOM      4  C   UNL     1       3.573   6.505  17.856  0.00  0.00    +0.000 A 
ATOM      5  N   UNL     1       4.733   6.986  17.450  0.00  0.00    +0.000 NA
ATOM      6  C   UNL     1       5.373   5.962  16.811  0.00  0.00    +0.000 A 
ATOM      7  C   UNL     1       6.624   5.972  16.171  0.00  0.00    +0.000 A 
ATOM      8  C   UNL     1       7.083   4.811  15.543  0.00  0.00    +0.000 A 
ATOM      9  C   UNL     1       6.305   3.658  15.545  0.00  0.00    +0.000 A 
ATOM     10  C   UNL     1       5.057   3.633  16.173  0.00  0.00    +0.000 A 
ATOM     11  C   UNL     1       4.607   4.800  16.823  0.00  0.00    +0.000 A 
ENDROOT
BRANCH   4  12
ATOM     12  C   UNL     1       2.588   7.296  18.624  0.00  0.00    +0.000 A 
ATOM     13  C   UNL     1       1.938   8.411  18.074  0.00  0.00    +0.000 A 
ATOM     14  C   UNL     1       1.165   9.259  18.870  0.00  0.00    +0.000 A 
ATOM     15  C   UNL     1       0.986   8.952  20.216  0.00  0.00    +0.000 A 
ATOM     16  C   UNL     1       1.508   7.775  20.756  0.00  0.00    +0.000 A 
ATOM     17  C   UNL     1       2.305   6.949  19.956  0.00  0.00    +0.000 A 
BRANCH  15  18
ATOM     18  S   UNL     1       0.171  10.109  21.283  0.00  0.00    +0.000 S 
ATOM     19  O   UNL     1      -0.851  10.790  20.515  0.00  0.00    +0.000 OA
ATOM     20  O   UNL     1      -0.120   9.439  22.529  0.00  0.00    +0.000 OA
BRANCH  18  21
ATOM     21  O   UNL     1       1.306  11.226  21.552  0.00  0.00    +0.000 OA
ATOM     22  H   UNL     1       0.876  12.107  21.525  0.00  0.00    +0.000 HD
ENDBRANCH  18  21
ENDBRANCH  15  18
ENDBRANCH   4  12
BRANCH   1  23
ATOM     23  C   UNL     1       2.464   2.933  17.922  0.00  0.00    +0.000 C 
BRANCH  23  24
ATOM     24  C   UNL     1       2.858   2.737  19.388  0.00  0.00    +0.000 C 
BRANCH  24  26
ATOM     25  C   UNL     1       1.936   3.332  21.651  0.00  0.00    +0.000 C 
ATOM     26  C   UNL     1       1.627   2.720  20.294  0.00  0.00    +0.000 C 
ENDBRANCH  24  26
ENDBRANCH  23  24
ENDBRANCH   1  23
TORSDOF 6
ENDMDL
MODEL 3
REMARK VINA RESULT:      -7.8      0.812      1.195
REMARK  Name = 
REMARK  7 active torsions:
REMARK  status: ('A' for Active; 'I' for Inactive)
REMARK    1  A    between atoms: C_1  and  C_2
REMARK    2  A    between atoms: C_2  and  C_3
REMARK    3  A    between atoms: C_3  and  C_4
REMARK    4  A    between atoms: C_4  and  C_5
REMARK    5  A    between atoms: C_8  and  C_9
REMARK    6  A    between atoms: C_12  and  S_13
REMARK    7  A    between atoms: S_13  and  O_16
REMARK                            x       y       z     vdW  Elec       q    Type
REMARK                         _______ _______ _______ _____ _____    ______ ____
ROOT
ATOM      1  C   UNL     1       2.229   4.482  17.675  0.00  0.00    +0.000 C 
ATOM      2  O   UNL     1       1.134   5.023  17.597  0.00  0.00    +0.000 OA
ATOM      3  N   UNL     1       3.395   5.244  17.476  0.00  0.00    +0.000 N 
ATOM      4  C   UNL     1       3.557   6.600  17.818  0.00  0.00    +0.000 A 
ATOM      5  N   UNL     1       4.714   7.062  17.378  0.00  0.00    +0.000 NA
ATOM      6  C   UNL     1       5.344   6.010  16.775  0.00  0.00    +0.000 A 
ATOM      7  C   UNL     1       6.588   5.991  16.120  0.00  0.00    +0.000 A 
ATOM      8  C   UNL     1       7.036   4.803  15.535  0.00  0.00    +0.000 A 
ATOM      9  C   UNL     1       6.257   3.653  15.595  0.00  0.00    +0.000 A 
ATOM     10  C   UNL     1       5.017   3.657  16.239  0.00  0.00    +0.000 A 
ATOM     11  C   UNL     1       4.577   4.851  16.844  0.00  0.00    +0.000 A 
ENDROOT
BRANCH   4  12
ATOM     12  C   UNL     1       2.583   7.424  18.563  0.00  0.00    +0.000 A 
ATOM     13  C   UNL     1       1.923   8.513  17.973  0.00  0.00    +0.000 A 
ATOM     14  C   UNL     1       1.162   9.396  18.741  0.00  0.00    +0.000 A 
ATOM     15  C   UNL     1       1.003   9.150  20.102  0.00  0.00    +0.000 A 
ATOM     16  C   UNL     1       1.535   7.999  20.688  0.00  0.00    +0.000 A 
ATOM     17  C   UNL     1       2.320   7.138  19.914  0.00  0.00    +0.000 A 
BRANCH  15  18
ATOM     18  S   UNL     1       0.202  10.354  21.128  0.00  0.00    +0.000 S 
ATOM     19  O   UNL     1      -0.535   9.651  22.158  0.00  0.00    +0.000 OA
ATOM     20  O   UNL     1       1.164  11.385  21.438  0.00  0.00    +0.000 OA
BRANCH  18  21
ATOM     21  O   UNL     1      -0.927  10.976  20.155  0.00  0.00    +0.000 OA
ATOM     22  H   UNL     1      -1.562  10.263  19.934  0.00  0.00    +0.000 HD
ENDBRANCH  18  21
ENDBRANCH  15  18
ENDBRANCH   4  12
BRANCH   1  23
ATOM     23  C   UNL     1       2.444   3.036  18.047  0.00  0.00    +0.000 C 
BRANCH  23  24
ATOM     24  C   UNL     1       1.861   2.731  19.428  0.00  0.00    +0.000 C 
BRANCH  24  26
ATOM     25  C   UNL     1       4.325   2.485  19.868  0.00  0.00    +0.000 C 
ATOM     26  C   UNL     1       2.955   2.690  20.495  0.00  0.00    +0.000 C 
ENDBRANCH  24  26
ENDBRANCH  23  24
ENDBRANCH   1  23
TORSDOF 6
ENDMDL
MODEL 4
REMARK VINA RESULT:      -7.7      3.186      5.499
REMARK  Name = 
REMARK  7 active torsions:
REMARK  status: ('A' for Active; 'I' for Inactive)
REMARK    1  A    between atoms: C_1  and  C_2
REMARK    2  A    between atoms: C_2  and  C_3
REMARK    3  A    between atoms: C_3  and  C_4
REMARK    4  A    between atoms: C_4  and  C_5
REMARK    5  A    between atoms: C_8  and  C_9
REMARK    6  A    between atoms: C_12  and  S_13
REMARK    7  A    between atoms: S_13  and  O_16
REMARK                            x       y       z     vdW  Elec       q    Type
REMARK                         _______ _______ _______ _____ _____    ______ ____
ROOT
ATOM      1  C   UNL     1       6.818   5.583  17.026  0.00  0.00    +0.000 C 
ATOM      2  O   UNL     1       6.770   5.057  18.130  0.00  0.00    +0.000 OA
ATOM      3  N   UNL     1       6.227   4.937  15.924  0.00  0.00    +0.000 N 
ATOM      4  C   UNL     1       5.076   4.129  15.968  0.00  0.00    +0.000 A 
ATOM      5  N   UNL     1       4.855   3.559  14.797  0.00  0.00    +0.000 NA
ATOM      6  C   UNL     1       5.834   4.013  13.957  0.00  0.00    +0.000 A 
ATOM      7  C   UNL     1       6.060   3.678  12.611  0.00  0.00    +0.000 A 
ATOM      8  C   UNL     1       7.150   4.237  11.939  0.00  0.00    +0.000 A 
ATOM      9  C   UNL     1       8.007   5.112  12.598  0.00  0.00    +0.000 A 
ATOM     10  C   UNL     1       7.799   5.452  13.938  0.00  0.00    +0.000 A 
ATOM     11  C   UNL     1       6.687   4.901  14.606  0.00  0.00    +0.000 A 
ENDROOT
BRANCH   4  12
ATOM     12  C   UNL     1       4.212   3.920  17.149  0.00  0.00    +0.000 A 
ATOM     13  C   UNL     1       3.351   4.920  17.627  0.00  0.00    +0.000 A 
ATOM     14  C   UNL     1       2.694   4.780  18.850  0.00  0.00    +0.000 A 
ATOM     15  C   UNL     1       2.846   3.599  19.573  0.00  0.00    +0.000 A 
ATOM     16  C   UNL     1       3.587   2.535  19.055  0.00  0.00    +0.000 A 
ATOM     17  C   UNL     1       4.265   2.699  17.842  0.00  0.00    +0.000 A 
BRANCH  15  18
ATOM     18  S   UNL     1       2.178   3.475  21.210  0.00  0.00    +0.000 S 
ATOM     19  O   UNL     1       2.875   2.411  21.903  0.00  0.00    +0.000 OA
ATOM     20  O   UNL     1       2.075   4.809  21.752  0.00  0.00    +0.000 OA
BRANCH  18  21
ATOM     21  O   UNL     1       0.688   2.904  20.958  0.00  0.00    +0.000 OA
ATOM     22  H   UNL     1       0.191   3.573  20.441  0.00  0.00    +0.000 HD
ENDBRANCH  18  21
ENDBRANCH  15  18
ENDBRANCH   4  12
BRANCH   1  23
ATOM     23  C   UNL     1       7.416   6.940  16.750  0.00  0.00    +0.000 C 
BRANCH  23  24
ATOM     24  C   UNL     1       7.873   7.613  18.047  0.00  0.00    +0.000 C 
BRANCH  24  26
ATOM     25  C   UNL     1       9.010   9.685  18.905  0.00  0.00    +0.000 C 
ATOM     26  C   UNL     1       8.077   9.114  17.849  0.00  0.00    +0.000 C 
ENDBRANCH  24  26
ENDBRANCH  23  24
ENDBRANCH   1  23
TORSDOF 6
ENDMDL
MODEL 5
REMARK VINA RESULT:      -7.5      3.150      5.619
REMARK  Name = 
REMARK  7 active torsions:
REMARK  status: ('A' for Active; 'I' for Inactive)
REMARK    1  A    between atoms: C_1  and  C_2
REMARK    2  A    between atoms: C_2  and  C_3
REMARK    3  A    between atoms: C_3  and  C_4
REMARK    4  A    between atoms: C_4  and  C_5
REMARK    5  A    between atoms: C_8  and  C_9
REMARK    6  A    between atoms: C_12  and  S_13
REMARK    7  A    between atoms: S_13  and  O_16
REMARK                            x       y       z     vdW  Elec       q    Type
REMARK                         _______ _______ _______ _____ _____    ______ ____
ROOT
ATOM      1  C   UNL     1       6.913   5.729  17.063  0.00  0.00    +0.000 C 
ATOM      2  O   UNL     1       6.866   5.222  18.176  0.00  0.00    +0.000 OA
ATOM      3  N   UNL     1       6.324   5.063  15.972  0.00  0.00    +0.000 N 
ATOM      4  C   UNL     1       5.176   4.251  16.029  0.00  0.00    +0.000 A 
ATOM      5  N   UNL     1       4.958   3.661  14.868  0.00  0.00    +0.000 NA
ATOM      6  C   UNL     1       5.936   4.102  14.022  0.00  0.00    +0.000 A 
ATOM      7  C   UNL     1       6.163   3.745  12.682  0.00  0.00    +0.000 A 
ATOM      8  C   UNL     1       7.253   4.295  12.001  0.00  0.00    +0.000 A 
ATOM      9  C   UNL     1       8.107   5.184  12.645  0.00  0.00    +0.000 A 
ATOM     10  C   UNL     1       7.896   5.546  13.978  0.00  0.00    +0.000 A 
ATOM     11  C   UNL     1       6.785   5.004  14.655  0.00  0.00    +0.000 A 
ENDROOT
BRANCH   4  12
ATOM     12  C   UNL     1       4.311   4.062  17.213  0.00  0.00    +0.000 A 
ATOM     13  C   UNL     1       4.298   2.861  17.940  0.00  0.00    +0.000 A 
ATOM     14  C   UNL     1       3.339   2.629  18.928  0.00  0.00    +0.000 A 
ATOM     15  C   UNL     1       2.426   3.633  19.239  0.00  0.00    +0.000 A 
ATOM     16  C   UNL     1       2.505   4.886  18.627  0.00  0.00    +0.000 A 
ATOM     17  C   UNL     1       3.451   5.097  17.618  0.00  0.00    +0.000 A 
BRANCH  15  18
ATOM     18  S   UNL     1       1.087   3.294  20.350  0.00  0.00    +0.000 S 
ATOM     19  O   UNL     1       1.557   2.360  21.353  0.00  0.00    +0.000 OA
ATOM     20  O   UNL     1       0.467   4.550  20.699  0.00  0.00    +0.000 OA
BRANCH  18  21
ATOM     21  O   UNL     1       0.057   2.446  19.440  0.00  0.00    +0.000 OA
ATOM     22  H   UNL     1      -0.854   2.702  19.695  0.00  0.00    +0.000 HD
ENDBRANCH  18  21
ENDBRANCH  15  18
ENDBRANCH   4  12
BRANCH   1  23
ATOM     23  C   UNL     1       7.507   7.083  16.764  0.00  0.00    +0.000 C 
BRANCH  23  24
ATOM     24  C   UNL     1       8.028   7.748  18.040  0.00  0.00    +0.000 C 
BRANCH  24  26
ATOM     25  C   UNL     1       9.039   9.866  18.944  0.00  0.00    +0.000 C 
ATOM     26  C   UNL     1       8.159   9.260  17.862  0.00  0.00    +0.000 C 
ENDBRANCH  24  26
ENDBRANCH  23  24
ENDBRANCH   1  23
TORSDOF 6
ENDMDL
MODEL 6
REMARK VINA RESULT:      -7.5      3.486      6.819
REMARK  Name = 
REMARK  7 active torsions:
REMARK  status: ('A' for Active; 'I' for Inactive)
REMARK    1  A    between atoms: C_1  and  C_2
REMARK    2  A    between atoms: C_2  and  C_3
REMARK    3  A    between atoms: C_3  and  C_4
REMARK    4  A    between atoms: C_4  and  C_5
REMARK    5  A    between atoms: C_8  and  C_9
REMARK    6  A    between atoms: C_12  and  S_13
REMARK    7  A    between atoms: S_13  and  O_16
REMARK                            x       y       z     vdW  Elec       q    Type
REMARK                         _______ _______ _______ _____ _____    ______ ____
ROOT
ATOM      1  C   UNL     1       2.559   5.509  20.298  0.00  0.00    +0.000 C 
ATOM      2  O   UNL     1       3.711   5.112  20.181  0.00  0.00    +0.000 OA
ATOM      3  N   UNL     1       2.199   6.761  19.763  0.00  0.00    +0.000 N 
ATOM      4  C   UNL     1       2.742   7.344  18.603  0.00  0.00    +0.000 A 
ATOM      5  N   UNL     1       2.299   8.577  18.444  0.00  0.00    +0.000 NA
ATOM      6  C   UNL     1       1.431   8.810  19.473  0.00  0.00    +0.000 A 
ATOM      7  C   UNL     1       0.719   9.985  19.772  0.00  0.00    +0.000 A 
ATOM      8  C   UNL     1      -0.099  10.022  20.905  0.00  0.00    +0.000 A 
ATOM      9  C   UNL     1      -0.202   8.909  21.732  0.00  0.00    +0.000 A 
ATOM     10  C   UNL     1       0.502   7.735  21.451  0.00  0.00    +0.000 A 
ATOM     11  C   UNL     1       1.310   7.695  20.297  0.00  0.00    +0.000 A 
ENDROOT
BRANCH   4  12
ATOM     12  C   UNL     1       3.687   6.692  17.671  0.00  0.00    +0.000 A 
ATOM     13  C   UNL     1       3.563   5.342  17.309  0.00  0.00    +0.000 A 
ATOM     14  C   UNL     1       4.569   4.695  16.589  0.00  0.00    +0.000 A 
ATOM     15  C   UNL     1       5.681   5.422  16.170  0.00  0.00    +0.000 A 
ATOM     16  C   UNL     1       5.763   6.797  16.399  0.00  0.00    +0.000 A 
ATOM     17  C   UNL     1       4.763   7.428  17.146  0.00  0.00    +0.000 A 
BRANCH  15  18
ATOM     18  S   UNL     1       7.053   4.582  15.425  0.00  0.00    +0.000 S 
ATOM     19  O   UNL     1       7.554   5.407  14.344  0.00  0.00    +0.000 OA
ATOM     20  O   UNL     1       7.907   4.097  16.482  0.00  0.00    +0.000 OA
BRANCH  18  21
ATOM     21  O   UNL     1       6.361   3.316  14.698  0.00  0.00    +0.000 OA
ATOM     22  H   UNL     1       6.767   3.218  13.811  0.00  0.00    +0.000 HD
ENDBRANCH  18  21
ENDBRANCH  15  18
ENDBRANCH   4  12
BRANCH   1  23
ATOM     23  C   UNL     1       1.440   4.716  20.925  0.00  0.00    +0.000 C 
BRANCH  23  24
ATOM     24  C   UNL     1       1.501   3.247  20.498  0.00  0.00    +0.000 C 
BRANCH  24  26
ATOM     25  C   UNL     1       2.025   2.199  18.273  0.00  0.00    +0.000 C 
ATOM     26  C   UNL     1       1.052   3.073  19.048  0.00  0.00    +0.000 C 
ENDBRANCH  24  26
ENDBRANCH  23  24
ENDBRANCH   1  23
TORSDOF 6
ENDMDL
MODEL 7
REMARK VINA RESULT:      -7.4      0.638      1.146
REMARK  Name = 
REMARK  7 active torsions:
REMARK  status: ('A' for Active; 'I' for Inactive)
REMARK    1  A    between atoms: C_1  and  C_2
REMARK    2  A    between atoms: C_2  and  C_3
REMARK    3  A    between atoms: C_3  and  C_4
REMARK    4  A    between atoms: C_4  and  C_5
REMARK    5  A    between atoms: C_8  and  C_9
REMARK    6  A    between atoms: C_12  and  S_13
REMARK    7  A    between atoms: S_13  and  O_16
REMARK                            x       y       z     vdW  Elec       q    Type
REMARK                         _______ _______ _______ _____ _____    ______ ____
ROOT
ATOM      1  C   UNL     1       2.261   4.249  17.397  0.00  0.00    +0.000 C 
ATOM      2  O   UNL     1       1.183   4.828  17.414  0.00  0.00    +0.000 OA
ATOM      3  N   UNL     1       3.449   5.000  17.314  0.00  0.00    +0.000 N 
ATOM      4  C   UNL     1       3.652   6.278  17.868  0.00  0.00    +0.000 A 
ATOM      5  N   UNL     1       4.821   6.770  17.500  0.00  0.00    +0.000 NA
ATOM      6  C   UNL     1       5.418   5.812  16.731  0.00  0.00    +0.000 A 
ATOM      7  C   UNL     1       6.659   5.862  16.073  0.00  0.00    +0.000 A 
ATOM      8  C   UNL     1       7.070   4.772  15.301  0.00  0.00    +0.000 A 
ATOM      9  C   UNL     1       6.257   3.650  15.181  0.00  0.00    +0.000 A 
ATOM     10  C   UNL     1       5.019   3.586  15.826  0.00  0.00    +0.000 A 
ATOM     11  C   UNL     1       4.617   4.680  16.619  0.00  0.00    +0.000 A 
ENDROOT
BRANCH   4  12
ATOM     12  C   UNL     1       2.705   6.999  18.744  0.00  0.00    +0.000 A 
ATOM     13  C   UNL     1       2.128   8.222  18.369  0.00  0.00    +0.000 A 
ATOM     14  C   UNL     1       1.396   8.983  19.282  0.00  0.00    +0.000 A 
ATOM     15  C   UNL     1       1.181   8.484  20.564  0.00  0.00    +0.000 A 
ATOM     16  C   UNL     1       1.626   7.210  20.920  0.00  0.00    +0.000 A 
ATOM     17  C   UNL     1       2.384   6.470  20.006  0.00  0.00    +0.000 A 
BRANCH  15  18
ATOM     18  S   UNL     1       0.421   9.511  21.793  0.00  0.00    +0.000 S 
ATOM     19  O   UNL     1       0.311  10.852  21.256  0.00  0.00    +0.000 OA
ATOM     20  O   UNL     1      -0.717   8.801  22.327  0.00  0.00    +0.000 OA
BRANCH  18  21
ATOM     21  O   UNL     1       1.552   9.612  22.942  0.00  0.00    +0.000 OA
ATOM     22  H   UNL     1       1.150   9.323  23.788  0.00  0.00    +0.000 HD
ENDBRANCH  18  21
ENDBRANCH  15  18
ENDBRANCH   4  12
BRANCH   1  23
ATOM     23  C   UNL     1       2.434   2.757  17.529  0.00  0.00    +0.000 C 
BRANCH  23  24
ATOM     24  C   UNL     1       2.513   2.341  19.000  0.00  0.00    +0.000 C 
BRANCH  24  26
ATOM     25  C   UNL     1       4.677   3.193  19.956  0.00  0.00    +0.000 C 
ATOM     26  C   UNL     1       3.944   1.984  19.398  0.00  0.00    +0.000 C 
ENDBRANCH  24  26
ENDBRANCH  23  24
ENDBRANCH   1  23
TORSDOF 6
ENDMDL
MODEL 8
REMARK VINA RESULT:      -7.4      0.613      1.455
REMARK  Name = 
REMARK  7 active torsions:
REMARK  status: ('A' for Active; 'I' for Inactive)
REMARK    1  A    between atoms: C_1  and  C_2
REMARK    2  A    between atoms: C_2  and  C_3
REMARK    3  A    between atoms: C_3  and  C_4
REMARK    4  A    between atoms: C_4  and  C_5
REMARK    5  A    between atoms: C_8  and  C_9
REMARK    6  A    between atoms: C_12  and  S_13
REMARK    7  A    between atoms: S_13  and  O_16
REMARK                            x       y       z     vdW  Elec       q    Type
REMARK                         _______ _______ _______ _____ _____    ______ ____
ROOT
ATOM      1  C   UNL     1       2.456   4.336  17.602  0.00  0.00    +0.000 C 
ATOM      2  O   UNL     1       1.380   4.912  17.698  0.00  0.00    +0.000 OA
ATOM      3  N   UNL     1       3.617   5.079  17.314  0.00  0.00    +0.000 N 
ATOM      4  C   UNL     1       3.869   6.400  17.730  0.00  0.00    +0.000 A 
ATOM      5  N   UNL     1       4.979   6.861  17.185  0.00  0.00    +0.000 NA
ATOM      6  C   UNL     1       5.493   5.841  16.434  0.00  0.00    +0.000 A 
ATOM      7  C   UNL     1       6.646   5.837  15.631  0.00  0.00    +0.000 A 
ATOM      8  C   UNL     1       6.977   4.685  14.912  0.00  0.00    +0.000 A 
ATOM      9  C   UNL     1       6.169   3.556  14.985  0.00  0.00    +0.000 A 
ATOM     10  C   UNL     1       5.017   3.545  15.776  0.00  0.00    +0.000 A 
ATOM     11  C   UNL     1       4.698   4.702  16.515  0.00  0.00    +0.000 A 
ENDROOT
BRANCH   4  12
ATOM     12  C   UNL     1       3.023   7.192  18.648  0.00  0.00    +0.000 A 
ATOM     13  C   UNL     1       2.733   6.761  19.951  0.00  0.00    +0.000 A 
ATOM     14  C   UNL     1       1.779   7.418  20.731  0.00  0.00    +0.000 A 
ATOM     15  C   UNL     1       1.156   8.557  20.227  0.00  0.00    +0.000 A 
ATOM     16  C   UNL     1       1.526   9.086  18.988  0.00  0.00    +0.000 A 
ATOM     17  C   UNL     1       2.462   8.402  18.204  0.00  0.00    +0.000 A 
BRANCH  15  18
ATOM     18  S   UNL     1      -0.189   9.293  21.117  0.00  0.00    +0.000 S 
ATOM     19  O   UNL     1      -0.894  10.181  20.216  0.00  0.00    +0.000 OA
ATOM     20  O   UNL     1      -0.862   8.248  21.851  0.00  0.00    +0.000 OA
BRANCH  18  21
ATOM     21  O   UNL     1       0.553  10.267  22.170  0.00  0.00    +0.000 OA
ATOM     22  H   UNL     1       0.026  11.091  22.244  0.00  0.00    +0.000 HD
ENDBRANCH  18  21
ENDBRANCH  15  18
ENDBRANCH   4  12
BRANCH   1  23
ATOM     23  C   UNL     1       2.661   2.861  17.839  0.00  0.00    +0.000 C 
BRANCH  23  24
ATOM     24  C   UNL     1       2.013   2.420  19.153  0.00  0.00    +0.000 C 
BRANCH  24  26
ATOM     25  C   UNL     1       1.852   3.205  21.537  0.00  0.00    +0.000 C 
ATOM     26  C   UNL     1       2.781   2.961  20.358  0.00  0.00    +0.000 C 
ENDBRANCH  24  26
ENDBRANCH  23  24
ENDBRANCH   1  23
TORSDOF 6
ENDMDL
MODEL 9
REMARK VINA RESULT:      -7.0      1.004      1.594
REMARK  Name = 
REMARK  7 active torsions:
REMARK  status: ('A' for Active; 'I' for Inactive)
REMARK    1  A    between atoms: C_1  and  C_2
REMARK    2  A    between atoms: C_2  and  C_3
REMARK    3  A    between atoms: C_3  and  C_4
REMARK    4  A    between atoms: C_4  and  C_5
REMARK    5  A    between atoms: C_8  and  C_9
REMARK    6  A    between atoms: C_12  and  S_13
REMARK    7  A    between atoms: S_13  and  O_16
REMARK                            x       y       z     vdW  Elec       q    Type
REMARK                         _______ _______ _______ _____ _____    ______ ____
ROOT
ATOM      1  C   UNL     1       2.305   4.703  17.798  0.00  0.00    +0.000 C 
ATOM      2  O   UNL     1       1.240   5.305  17.747  0.00  0.00    +0.000 OA
ATOM      3  N   UNL     1       3.494   5.369  17.449  0.00  0.00    +0.000 N 
ATOM      4  C   UNL     1       3.759   6.736  17.653  0.00  0.00    +0.000 A 
ATOM      5  N   UNL     1       4.904   7.083  17.094  0.00  0.00    +0.000 NA
ATOM      6  C   UNL     1       5.426   5.944  16.547  0.00  0.00    +0.000 A 
ATOM      7  C   UNL     1       6.614   5.789  15.812  0.00  0.00    +0.000 A 
ATOM      8  C   UNL     1       6.948   4.528  15.308  0.00  0.00    +0.000 A 
ATOM      9  C   UNL     1       6.110   3.440  15.527  0.00  0.00    +0.000 A 
ATOM     10  C   UNL     1       4.924   3.579  16.253  0.00  0.00    +0.000 A 
ATOM     11  C   UNL     1       4.600   4.848  16.775  0.00  0.00    +0.000 A 
ENDROOT
BRANCH   4  12
ATOM     12  C   UNL     1       2.893   7.683  18.387  0.00  0.00    +0.000 A 
ATOM     13  C   UNL     1       2.486   7.449  19.709  0.00  0.00    +0.000 A 
ATOM     14  C   UNL     1       1.515   8.247  20.315  0.00  0.00    +0.000 A 
ATOM     15  C   UNL     1       0.992   9.332  19.616  0.00  0.00    +0.000 A 
ATOM     16  C   UNL     1       1.479   9.669  18.351  0.00  0.00    +0.000 A 
ATOM     17  C   UNL     1       2.431   8.844  17.742  0.00  0.00    +0.000 A 
BRANCH  15  18
ATOM     18  S   UNL     1      -0.373  10.241  20.290  0.00  0.00    +0.000 S 
ATOM     19  O   UNL     1      -0.851   9.535  21.461  0.00  0.00    +0.000 OA
ATOM     20  O   UNL     1      -0.004  11.636  20.329  0.00  0.00    +0.000 OA
BRANCH  18  21
ATOM     21  O   UNL     1      -1.531  10.045  19.181  0.00  0.00    +0.000 OA
ATOM     22  H   UNL     1      -1.499   9.115  18.871  0.00  0.00    +0.000 HD
ENDBRANCH  18  21
ENDBRANCH  15  18
ENDBRANCH   4  12
BRANCH   1  23
ATOM     23  C   UNL     1       2.463   3.285  18.284  0.00  0.00    +0.000 C 
BRANCH  23  24
ATOM     24  C   UNL     1       3.089   3.249  19.680  0.00  0.00    +0.000 C 
BRANCH  24  26
ATOM     25  C   UNL     1       1.512   2.701  21.560  0.00  0.00    +0.000 C 
ATOM     26  C   UNL     1       2.133   3.813  20.730  0.00  0.00    +0.000 C 
ENDBRANCH  24  26
ENDBRANCH  23  24
ENDBRANCH   1  23
TORSDOF 6
ENDMDL
