MODEL 1
REMARK VINA RESULT:      -7.5      0.000      0.000
REMARK  Name = 
REMARK  7 active torsions:
REMARK  status: ('A' for Active; 'I' for Inactive)
REMARK    1  A    between atoms: C_1  and  N_2
REMARK    2  A    between atoms: C_13  and  C_14
REMARK    3  A    between atoms: C_14  and  O_16
REMARK    4  A    between atoms: N_18  and  C_19
REMARK    5  A    between atoms: C_19  and  C_20
REMARK    6  A    between atoms: C_19  and  C_21
REMARK    7  A    between atoms: C_19  and  C_22
REMARK                            x       y       z     vdW  Elec       q    Type
REMARK                         _______ _______ _______ _____ _____    ______ ____
ROOT
ATOM      1  C   UNL     1       0.972   8.111  21.103  0.00  0.00    +0.000 C 
ATOM      2  N   UNL     1       1.562   6.978  20.441  0.00  0.00    +0.000 N 
ATOM      3  N   UNL     1       1.300   5.743  20.874  0.00  0.00    +0.000 NA
ATOM      4  N   UNL     1       1.959   4.912  20.089  0.00  0.00    +0.000 NA
ATOM      5  C   UNL     1       2.673   5.618  19.146  0.00  0.00    +0.000 A 
ATOM      6  C   UNL     1       3.551   5.176  18.109  0.00  0.00    +0.000 A 
ATOM      7  C   UNL     1       4.046   6.260  17.309  0.00  0.00    +0.000 A 
ATOM      8  C   UNL     1       3.731   7.617  17.530  0.00  0.00    +0.000 A 
ATOM      9  C   UNL     1       2.904   8.003  18.572  0.00  0.00    +0.000 A 
ATOM     10  C   UNL     1       2.397   6.972  19.353  0.00  0.00    +0.000 A 
ATOM     11  C   UNL     1       4.946   6.000  16.164  0.00  0.00    +0.000 A 
ATOM     12  O   UNL     1       5.377   6.910  15.453  0.00  0.00    +0.000 OA
ATOM     13  C   UNL     1       5.328   4.619  15.873  0.00  0.00    +0.000 A 
ATOM     14  C   UNL     1       4.825   3.675  16.682  0.00  0.00    +0.000 A 
ATOM     15  N   UNL     1       3.975   3.829  17.784  0.00  0.00    +0.000 N 
ENDROOT
BRANCH  15  16
ATOM     16  C   UNL     1       3.514   2.632  18.620  0.00  0.00    +0.000 C 
ATOM     17  C   UNL     1       4.033   1.276  18.043  0.00  0.00    +0.000 C 
ATOM     18  C   UNL     1       4.109   2.661  20.044  0.00  0.00    +0.000 C 
ATOM     19  C   UNL     1       1.980   2.482  18.579  0.00  0.00    +0.000 C 
ENDBRANCH  15  16
BRANCH  13  20
ATOM     20  C   UNL     1       6.222   4.234  14.757  0.00  0.00    +0.000 C 
ATOM     21  O   UNL     1       5.868   3.528  13.822  0.00  0.00    +0.000 OA
BRANCH  20  22
ATOM     22  O   UNL     1       7.477   4.724  14.847  0.00  0.00    +0.000 OA
ATOM     23  H   UNL     1       8.140   4.068  15.181  0.00  0.00    +0.000 HD
ENDBRANCH  20  22
ENDBRANCH  13  20
TORSDOF 3
ENDMDL
MODEL 2
REMARK VINA RESULT:      -6.9      2.984      5.567
REMARK  Name = 
REMARK  7 active torsions:
REMARK  status: ('A' for Active; 'I' for Inactive)
REMARK    1  A    between atoms: C_1  and  N_2
REMARK    2  A    between atoms: C_13  and  C_14
REMARK    3  A    between atoms: C_14  and  O_16
REMARK    4  A    between atoms: N_18  and  C_19
REMARK    5  A    between atoms: C_19  and  C_20
REMARK    6  A    between atoms: C_19  and  C_21
REMARK    7  A    between atoms: C_19  and  C_22
REMARK                            x       y       z     vdW  Elec       q    Type
REMARK                         _______ _______ _______ _____ _____    ______ ____
ROOT
ATOM      1  C   UNL     1       5.977   4.389  14.916  0.00  0.00    +0.000 C 
ATOM      2  N   UNL     1       5.155   4.292  16.093  0.00  0.00    +0.000 N 
ATOM      3  N   UNL     1       4.948   3.103  16.663  0.00  0.00    +0.000 NA
ATOM      4  N   UNL     1       4.175   3.309  17.712  0.00  0.00    +0.000 NA
ATOM      5  C   UNL     1       3.861   4.646  17.813  0.00  0.00    +0.000 A 
ATOM      6  C   UNL     1       3.042   5.350  18.748  0.00  0.00    +0.000 A 
ATOM      7  C   UNL     1       3.033   6.766  18.515  0.00  0.00    +0.000 A 
ATOM      8  C   UNL     1       3.730   7.401  17.465  0.00  0.00    +0.000 A 
ATOM      9  C   UNL     1       4.483   6.674  16.559  0.00  0.00    +0.000 A 
ATOM     10  C   UNL     1       4.522   5.301  16.770  0.00  0.00    +0.000 A 
ATOM     11  C   UNL     1       2.266   7.670  19.400  0.00  0.00    +0.000 A 
ATOM     12  O   UNL     1       2.250   8.891  19.230  0.00  0.00    +0.000 OA
ATOM     13  C   UNL     1       1.509   7.089  20.508  0.00  0.00    +0.000 A 
ATOM     14  C   UNL     1       1.569   5.756  20.640  0.00  0.00    +0.000 A 
ATOM     15  N   UNL     1       2.262   4.828  19.852  0.00  0.00    +0.000 N 
ENDROOT
BRANCH  15  16
ATOM     16  C   UNL     1       2.196   3.325  20.133  0.00  0.00    +0.000 C 
ATOM     17  C   UNL     1       1.364   3.000  21.414  0.00  0.00    +0.000 C 
ATOM     18  C   UNL     1       1.444   2.563  19.021  0.00  0.00    +0.000 C 
ATOM     19  C   UNL     1       3.594   2.757  20.453  0.00  0.00    +0.000 C 
ENDBRANCH  15  16
BRANCH  13  20
ATOM     20  C   UNL     1       0.704   7.889  21.458  0.00  0.00    +0.000 C 
ATOM     21  O   UNL     1      -0.515   7.817  21.538  0.00  0.00    +0.000 OA
BRANCH  20  22
ATOM     22  O   UNL     1       1.423   8.720  22.244  0.00  0.00    +0.000 OA
ATOM     23  H   UNL     1       2.383   8.764  22.007  0.00  0.00    +0.000 HD
ENDBRANCH  20  22
ENDBRANCH  13  20
TORSDOF 3
ENDMDL
MODEL 3
REMARK VINA RESULT:      -6.6      3.164      4.484
REMARK  Name = 
REMARK  7 active torsions:
REMARK  status: ('A' for Active; 'I' for Inactive)
REMARK    1  A    between atoms: C_1  and  N_2
REMARK    2  A    between atoms: C_13  and  C_14
REMARK    3  A    between atoms: C_14  and  O_16
REMARK    4  A    between atoms: N_18  and  C_19
REMARK    5  A    between atoms: C_19  and  C_20
REMARK    6  A    between atoms: C_19  and  C_21
REMARK    7  A    between atoms: C_19  and  C_22
REMARK                            x       y       z     vdW  Elec       q    Type
REMARK                         _______ _______ _______ _____ _____    ______ ____
ROOT
ATOM      1  C   UNL     1       0.927   9.575  18.846  0.00  0.00    +0.000 C 
ATOM      2  N   UNL     1       1.937   8.582  18.596  0.00  0.00    +0.000 N 
ATOM      3  N   UNL     1       2.882   8.809  17.680  0.00  0.00    +0.000 NA
ATOM      4  N   UNL     1       3.667   7.749  17.665  0.00  0.00    +0.000 NA
ATOM      5  C   UNL     1       3.215   6.813  18.569  0.00  0.00    +0.000 A 
ATOM      6  C   UNL     1       3.702   5.510  18.894  0.00  0.00    +0.000 A 
ATOM      7  C   UNL     1       2.953   4.890  19.950  0.00  0.00    +0.000 A 
ATOM      8  C   UNL     1       1.842   5.481  20.586  0.00  0.00    +0.000 A 
ATOM      9  C   UNL     1       1.381   6.733  20.213  0.00  0.00    +0.000 A 
ATOM     10  C   UNL     1       2.097   7.363  19.202  0.00  0.00    +0.000 A 
ATOM     11  C   UNL     1       3.326   3.549  20.450  0.00  0.00    +0.000 A 
ATOM     12  O   UNL     1       2.708   2.998  21.363  0.00  0.00    +0.000 OA
ATOM     13  C   UNL     1       4.464   2.864  19.836  0.00  0.00    +0.000 A 
ATOM     14  C   UNL     1       5.094   3.517  18.849  0.00  0.00    +0.000 A 
ATOM     15  N   UNL     1       4.810   4.779  18.313  0.00  0.00    +0.000 N 
ENDROOT
BRANCH  15  16
ATOM     16  C   UNL     1       5.625   5.365  17.158  0.00  0.00    +0.000 C 
ATOM     17  C   UNL     1       6.713   4.371  16.639  0.00  0.00    +0.000 C 
ATOM     18  C   UNL     1       4.755   5.619  15.908  0.00  0.00    +0.000 C 
ATOM     19  C   UNL     1       6.442   6.590  17.618  0.00  0.00    +0.000 C 
ENDBRANCH  15  16
BRANCH  13  20
ATOM     20  C   UNL     1       4.930   1.521  20.248  0.00  0.00    +0.000 C 
ATOM     21  O   UNL     1       5.409   1.281  21.349  0.00  0.00    +0.000 OA
BRANCH  20  22
ATOM     22  O   UNL     1       4.789   0.562  19.307  0.00  0.00    +0.000 OA
ATOM     23  H   UNL     1       4.309  -0.243  19.625  0.00  0.00    +0.000 HD
ENDBRANCH  20  22
ENDBRANCH  13  20
TORSDOF 3
ENDMDL
MODEL 4
REMARK VINA RESULT:      -6.4      2.660      5.422
REMARK  Name = 
REMARK  7 active torsions:
REMARK  status: ('A' for Active; 'I' for Inactive)
REMARK    1  A    between atoms: C_1  and  N_2
REMARK    2  A    between atoms: C_13  and  C_14
REMARK    3  A    between atoms: C_14  and  O_16
REMARK    4  A    between atoms: N_18  and  C_19
REMARK    5  A    between atoms: C_19  and  C_20
REMARK    6  A    between atoms: C_19  and  C_21
REMARK    7  A    between atoms: C_19  and  C_22
REMARK                            x       y       z     vdW  Elec       q    Type
REMARK                         _______ _______ _______ _____ _____    ______ ____
ROOT
ATOM      1  C   UNL     1       6.649   4.183  14.139  0.00  0.00    +0.000 C 
ATOM      2  N   UNL     1       5.825   4.188  15.318  0.00  0.00    +0.000 N 
ATOM      3  N   UNL     1       5.613   3.053  15.986  0.00  0.00    +0.000 NA
ATOM      4  N   UNL     1       4.838   3.350  17.013  0.00  0.00    +0.000 NA
ATOM      5  C   UNL     1       4.529   4.692  16.999  0.00  0.00    +0.000 A 
ATOM      6  C   UNL     1       3.710   5.476  17.869  0.00  0.00    +0.000 A 
ATOM      7  C   UNL     1       3.707   6.867  17.516  0.00  0.00    +0.000 A 
ATOM      8  C   UNL     1       4.408   7.408  16.418  0.00  0.00    +0.000 A 
ATOM      9  C   UNL     1       5.160   6.604  15.578  0.00  0.00    +0.000 A 
ATOM     10  C   UNL     1       5.194   5.254  15.906  0.00  0.00    +0.000 A 
ATOM     11  C   UNL     1       2.941   7.845  18.320  0.00  0.00    +0.000 A 
ATOM     12  O   UNL     1       2.930   9.047  18.047  0.00  0.00    +0.000 OA
ATOM     13  C   UNL     1       2.180   7.363  19.472  0.00  0.00    +0.000 A 
ATOM     14  C   UNL     1       2.234   6.045  19.716  0.00  0.00    +0.000 A 
ATOM     15  N   UNL     1       2.926   5.051  19.011  0.00  0.00    +0.000 N 
ENDROOT
BRANCH  15  16
ATOM     16  C   UNL     1       2.855   3.578  19.419  0.00  0.00    +0.000 C 
ATOM     17  C   UNL     1       1.977   3.360  20.693  0.00  0.00    +0.000 C 
ATOM     18  C   UNL     1       2.145   2.718  18.350  0.00  0.00    +0.000 C 
ATOM     19  C   UNL     1       4.241   3.048  19.837  0.00  0.00    +0.000 C 
ENDBRANCH  15  16
BRANCH  13  20
ATOM     20  C   UNL     1       1.376   8.243  20.349  0.00  0.00    +0.000 C 
ATOM     21  O   UNL     1       1.258   8.069  21.554  0.00  0.00    +0.000 OA
BRANCH  20  22
ATOM     22  O   UNL     1       0.770   9.269  19.713  0.00  0.00    +0.000 OA
ATOM     23  H   UNL     1       1.399   9.941  19.347  0.00  0.00    +0.000 HD
ENDBRANCH  20  22
ENDBRANCH  13  20
TORSDOF 3
ENDMDL
MODEL 5
REMARK VINA RESULT:      -6.2      0.613      1.092
REMARK  Name = 
REMARK  7 active torsions:
REMARK  status: ('A' for Active; 'I' for Inactive)
REMARK    1  A    between atoms: C_1  and  N_2
REMARK    2  A    between atoms: C_13  and  C_14
REMARK    3  A    between atoms: C_14  and  O_16
REMARK    4  A    between atoms: N_18  and  C_19
REMARK    5  A    between atoms: C_19  and  C_20
REMARK    6  A    between atoms: C_19  and  C_21
REMARK    7  A    between atoms: C_19  and  C_22
REMARK                            x       y       z     vdW  Elec       q    Type
REMARK                         _______ _______ _______ _____ _____    ______ ____
ROOT
ATOM      1  C   UNL     1       0.778   8.933  20.687  0.00  0.00    +0.000 C 
ATOM      2  N   UNL     1       1.362   7.714  20.197  0.00  0.00    +0.000 N 
ATOM      3  N   UNL     1       1.022   6.546  20.746  0.00  0.00    +0.000 NA
ATOM      4  N   UNL     1       1.695   5.608  20.107  0.00  0.00    +0.000 NA
ATOM      5  C   UNL     1       2.496   6.178  19.141  0.00  0.00    +0.000 A 
ATOM      6  C   UNL     1       3.420   5.591  18.222  0.00  0.00    +0.000 A 
ATOM      7  C   UNL     1       4.009   6.560  17.342  0.00  0.00    +0.000 A 
ATOM      8  C   UNL     1       3.737   7.943  17.388  0.00  0.00    +0.000 A 
ATOM      9  C   UNL     1       2.861   8.473  18.321  0.00  0.00    +0.000 A 
ATOM     10  C   UNL     1       2.264   7.555  19.177  0.00  0.00    +0.000 A 
ATOM     11  C   UNL     1       4.969   6.140  16.297  0.00  0.00    +0.000 A 
ATOM     12  O   UNL     1       5.482   6.949  15.520  0.00  0.00    +0.000 OA
ATOM     13  C   UNL     1       5.312   4.723  16.188  0.00  0.00    +0.000 A 
ATOM     14  C   UNL     1       4.719   3.895  17.061  0.00  0.00    +0.000 A 
ATOM     15  N   UNL     1       3.808   4.203  18.079  0.00  0.00    +0.000 N 
ENDROOT
BRANCH  15  16
ATOM     16  C   UNL     1       3.246   3.125  19.010  0.00  0.00    +0.000 C 
ATOM     17  C   UNL     1       1.684   3.087  18.994  0.00  0.00    +0.000 C 
ATOM     18  C   UNL     1       3.638   1.705  18.548  0.00  0.00    +0.000 C 
ATOM     19  C   UNL     1       3.588   3.427  20.483  0.00  0.00    +0.000 C 
ENDBRANCH  15  16
BRANCH  13  20
ATOM     20  C   UNL     1       6.258   4.183  15.186  0.00  0.00    +0.000 C 
ATOM     21  O   UNL     1       5.914   3.491  14.237  0.00  0.00    +0.000 OA
BRANCH  20  22
ATOM     22  O   UNL     1       7.551   4.513  15.397  0.00  0.00    +0.000 OA
ATOM     23  H   UNL     1       7.717   5.489  15.419  0.00  0.00    +0.000 HD
ENDBRANCH  20  22
ENDBRANCH  13  20
TORSDOF 3
ENDMDL
MODEL 6
REMARK VINA RESULT:      -6.1      3.350      5.224
REMARK  Name = 
REMARK  7 active torsions:
REMARK  status: ('A' for Active; 'I' for Inactive)
REMARK    1  A    between atoms: C_1  and  N_2
REMARK    2  A    between atoms: C_13  and  C_14
REMARK    3  A    between atoms: C_14  and  O_16
REMARK    4  A    between atoms: N_18  and  C_19
REMARK    5  A    between atoms: C_19  and  C_20
REMARK    6  A    between atoms: C_19  and  C_21
REMARK    7  A    between atoms: C_19  and  C_22
REMARK                            x       y       z     vdW  Elec       q    Type
REMARK                         _______ _______ _______ _____ _____    ______ ____
ROOT
ATOM      1  C   UNL     1       3.552   1.665  21.550  0.00  0.00    +0.000 C 
ATOM      2  N   UNL     1       3.748   2.681  20.550  0.00  0.00    +0.000 N 
ATOM      3  N   UNL     1       4.608   2.475  19.552  0.00  0.00    +0.000 NA
ATOM      4  N   UNL     1       4.582   3.553  18.791  0.00  0.00    +0.000 NA
ATOM      5  C   UNL     1       3.706   4.479  19.314  0.00  0.00    +0.000 A 
ATOM      6  C   UNL     1       3.357   5.793  18.876  0.00  0.00    +0.000 A 
ATOM      7  C   UNL     1       2.345   6.396  19.697  0.00  0.00    +0.000 A 
ATOM      8  C   UNL     1       1.772   5.780  20.829  0.00  0.00    +0.000 A 
ATOM      9  C   UNL     1       2.167   4.518  21.239  0.00  0.00    +0.000 A 
ATOM     10  C   UNL     1       3.135   3.904  20.453  0.00  0.00    +0.000 A 
ATOM     11  C   UNL     1       1.829   7.747  19.384  0.00  0.00    +0.000 A 
ATOM     12  O   UNL     1       0.953   8.284  20.064  0.00  0.00    +0.000 OA
ATOM     13  C   UNL     1       2.379   8.457  18.230  0.00  0.00    +0.000 A 
ATOM     14  C   UNL     1       3.328   7.818  17.530  0.00  0.00    +0.000 A 
ATOM     15  N   UNL     1       3.877   6.549  17.755  0.00  0.00    +0.000 N 
ENDROOT
BRANCH  15  16
ATOM     16  C   UNL     1       4.983   5.981  16.863  0.00  0.00    +0.000 C 
ATOM     17  C   UNL     1       5.203   6.840  15.576  0.00  0.00    +0.000 C 
ATOM     18  C   UNL     1       6.362   6.025  17.556  0.00  0.00    +0.000 C 
ATOM     19  C   UNL     1       4.597   4.593  16.312  0.00  0.00    +0.000 C 
ENDBRANCH  15  16
BRANCH  13  20
ATOM     20  C   UNL     1       1.944   9.810  17.818  0.00  0.00    +0.000 C 
ATOM     21  O   UNL     1       2.720  10.726  17.581  0.00  0.00    +0.000 OA
BRANCH  20  22
ATOM     22  O   UNL     1       0.605   9.967  17.723  0.00  0.00    +0.000 OA
ATOM     23  H   UNL     1       0.130   9.160  17.401  0.00  0.00    +0.000 HD
ENDBRANCH  20  22
ENDBRANCH  13  20
TORSDOF 3
ENDMDL
MODEL 7
REMARK VINA RESULT:      -6.0      5.933      9.689
REMARK  Name = 
REMARK  7 active torsions:
REMARK  status: ('A' for Active; 'I' for Inactive)
REMARK    1  A    between atoms: C_1  and  N_2
REMARK    2  A    between atoms: C_13  and  C_14
REMARK    3  A    between atoms: C_14  and  O_16
REMARK    4  A    between atoms: N_18  and  C_19
REMARK    5  A    between atoms: C_19  and  C_20
REMARK    6  A    between atoms: C_19  and  C_21
REMARK    7  A    between atoms: C_19  and  C_22
REMARK                            x       y       z     vdW  Elec       q    Type
REMARK                         _______ _______ _______ _____ _____    ______ ____
ROOT
ATOM      1  C   UNL     1       2.888   7.080  18.188  0.00  0.00    +0.000 C 
ATOM      2  N   UNL     1       2.211   8.327  18.429  0.00  0.00    +0.000 N 
ATOM      3  N   UNL     1       2.144   9.245  17.462  0.00  0.00    +0.000 NA
ATOM      4  N   UNL     1       1.472  10.270  17.950  0.00  0.00    +0.000 NA
ATOM      5  C   UNL     1       1.114  10.021  19.257  0.00  0.00    +0.000 A 
ATOM      6  C   UNL     1       0.412  10.825  20.208  0.00  0.00    +0.000 A 
ATOM      7  C   UNL     1       0.204  10.146  21.455  0.00  0.00    +0.000 A 
ATOM      8  C   UNL     1       0.660   8.841  21.733  0.00  0.00    +0.000 A 
ATOM      9  C   UNL     1       1.369   8.111  20.793  0.00  0.00    +0.000 A 
ATOM     10  C   UNL     1       1.572   8.739  19.570  0.00  0.00    +0.000 A 
ATOM     11  C   UNL     1      -0.533  10.804  22.556  0.00  0.00    +0.000 A 
ATOM     12  O   UNL     1      -0.736  10.241  23.633  0.00  0.00    +0.000 OA
ATOM     13  C   UNL     1      -1.032  12.164  22.351  0.00  0.00    +0.000 A 
ATOM     14  C   UNL     1      -0.779  12.721  21.157  0.00  0.00    +0.000 A 
ATOM     15  N   UNL     1      -0.090  12.176  20.065  0.00  0.00    +0.000 N 
ENDROOT
BRANCH  15  16
ATOM     16  C   UNL     1       0.131  12.971  18.776  0.00  0.00    +0.000 C 
ATOM     17  C   UNL     1      -0.264  14.474  18.934  0.00  0.00    +0.000 C 
ATOM     18  C   UNL     1       1.624  13.037  18.389  0.00  0.00    +0.000 C 
ATOM     19  C   UNL     1      -0.792  12.469  17.647  0.00  0.00    +0.000 C 
ENDBRANCH  15  16
BRANCH  13  20
ATOM     20  C   UNL     1      -1.780  12.925  23.376  0.00  0.00    +0.000 C 
ATOM     21  O   UNL     1      -1.377  13.970  23.869  0.00  0.00    +0.000 OA
BRANCH  20  22
ATOM     22  O   UNL     1      -2.959  12.374  23.738  0.00  0.00    +0.000 OA
ATOM     23  H   UNL     1      -2.965  11.384  23.703  0.00  0.00    +0.000 HD
ENDBRANCH  20  22
ENDBRANCH  13  20
TORSDOF 3
ENDMDL
MODEL 8
REMARK VINA RESULT:      -5.6      7.525     11.123
REMARK  Name = 
REMARK  7 active torsions:
REMARK  status: ('A' for Active; 'I' for Inactive)
REMARK    1  A    between atoms: C_1  and  N_2
REMARK    2  A    between atoms: C_13  and  C_14
REMARK    3  A    between atoms: C_14  and  O_16
REMARK    4  A    between atoms: N_18  and  C_19
REMARK    5  A    between atoms: C_19  and  C_20
REMARK    6  A    between atoms: C_19  and  C_21
REMARK    7  A    between atoms: C_19  and  C_22
REMARK                            x       y       z     vdW  Elec       q    Type
REMARK                         _______ _______ _______ _____ _____    ______ ____
ROOT
ATOM      1  C   UNL     1       1.546   9.344  17.922  0.00  0.00    +0.000 C 
ATOM      2  N   UNL     1       0.615  10.183  18.629  0.00  0.00    +0.000 N 
ATOM      3  N   UNL     1       1.012  10.851  19.714  0.00  0.00    +0.000 NA
ATOM      4  N   UNL     1      -0.030  11.534  20.149  0.00  0.00    +0.000 NA
ATOM      5  C   UNL     1      -1.123  11.291  19.346  0.00  0.00    +0.000 A 
ATOM      6  C   UNL     1      -2.469  11.766  19.422  0.00  0.00    +0.000 A 
ATOM      7  C   UNL     1      -3.279  11.299  18.334  0.00  0.00    +0.000 A 
ATOM      8  C   UNL     1      -2.818  10.444  17.311  0.00  0.00    +0.000 A 
ATOM      9  C   UNL     1      -1.513   9.978  17.297  0.00  0.00    +0.000 A 
ATOM     10  C   UNL     1      -0.701  10.427  18.332  0.00  0.00    +0.000 A 
ATOM     11  C   UNL     1      -4.696  11.710  18.221  0.00  0.00    +0.000 A 
ATOM     12  O   UNL     1      -5.412  11.334  17.291  0.00  0.00    +0.000 OA
ATOM     13  C   UNL     1      -5.254  12.590  19.247  0.00  0.00    +0.000 A 
ATOM     14  C   UNL     1      -4.424  12.964  20.231  0.00  0.00    +0.000 A 
ATOM     15  N   UNL     1      -3.078  12.623  20.419  0.00  0.00    +0.000 N 
ENDROOT
BRANCH  15  16
ATOM     16  C   UNL     1      -2.281  13.125  21.625  0.00  0.00    +0.000 C 
ATOM     17  C   UNL     1      -3.152  13.995  22.587  0.00  0.00    +0.000 C 
ATOM     18  C   UNL     1      -1.810  11.964  22.528  0.00  0.00    +0.000 C 
ATOM     19  C   UNL     1      -1.154  14.082  21.189  0.00  0.00    +0.000 C 
ENDBRANCH  15  16
BRANCH  13  20
ATOM     20  C   UNL     1      -6.655  13.066  19.243  0.00  0.00    +0.000 C 
ATOM     21  O   UNL     1      -6.967  14.248  19.312  0.00  0.00    +0.000 OA
BRANCH  20  22
ATOM     22  O   UNL     1      -7.583  12.088  19.158  0.00  0.00    +0.000 OA
ATOM     23  H   UNL     1      -7.527  11.419  19.886  0.00  0.00    +0.000 HD
ENDBRANCH  20  22
ENDBRANCH  13  20
TORSDOF 3
ENDMDL
MODEL 9
REMARK VINA RESULT:      -5.6      9.606     11.396
REMARK  Name = 
REMARK  7 active torsions:
REMARK  status: ('A' for Active; 'I' for Inactive)
REMARK    1  A    between atoms: C_1  and  N_2
REMARK    2  A    between atoms: C_13  and  C_14
REMARK    3  A    between atoms: C_14  and  O_16
REMARK    4  A    between atoms: N_18  and  C_19
REMARK    5  A    between atoms: C_19  and  C_20
REMARK    6  A    between atoms: C_19  and  C_21
REMARK    7  A    between atoms: C_19  and  C_22
REMARK                            x       y       z     vdW  Elec       q    Type
REMARK                         _______ _______ _______ _____ _____    ______ ____
ROOT
ATOM      1  C   UNL     1      -3.100  14.715  25.106  0.00  0.00    +0.000 C 
ATOM      2  N   UNL     1      -3.712  14.255  23.888  0.00  0.00    +0.000 N 
ATOM      3  N   UNL     1      -5.025  14.408  23.704  0.00  0.00    +0.000 NA
ATOM      4  N   UNL     1      -5.308  13.909  22.516  0.00  0.00    +0.000 NA
ATOM      5  C   UNL     1      -4.166  13.410  21.929  0.00  0.00    +0.000 A 
ATOM      6  C   UNL     1      -3.965  12.753  20.675  0.00  0.00    +0.000 A 
ATOM      7  C   UNL     1      -2.585  12.443  20.432  0.00  0.00    +0.000 A 
ATOM      8  C   UNL     1      -1.538  12.726  21.334  0.00  0.00    +0.000 A 
ATOM      9  C   UNL     1      -1.785  13.331  22.555  0.00  0.00    +0.000 A 
ATOM     10  C   UNL     1      -3.111  13.657  22.811  0.00  0.00    +0.000 A 
ATOM     11  C   UNL     1      -2.172  11.789  19.171  0.00  0.00    +0.000 A 
ATOM     12  O   UNL     1      -0.993  11.522  18.931  0.00  0.00    +0.000 OA
ATOM     13  C   UNL     1      -3.200  11.455  18.186  0.00  0.00    +0.000 A 
ATOM     14  C   UNL     1      -4.463  11.773  18.506  0.00  0.00    +0.000 A 
ATOM     15  N   UNL     1      -4.943  12.385  19.671  0.00  0.00    +0.000 N 
ENDROOT
BRANCH  15  16
ATOM     16  C   UNL     1      -6.435  12.652  19.884  0.00  0.00    +0.000 C 
ATOM     17  C   UNL     1      -7.308  12.076  18.724  0.00  0.00    +0.000 C 
ATOM     18  C   UNL     1      -6.978  11.921  21.131  0.00  0.00    +0.000 C 
ATOM     19  C   UNL     1      -6.741  14.163  19.855  0.00  0.00    +0.000 C 
ENDBRANCH  15  16
BRANCH  13  20
ATOM     20  C   UNL     1      -2.910  10.800  16.891  0.00  0.00    +0.000 C 
ATOM     21  O   UNL     1      -3.231   9.648  16.630  0.00  0.00    +0.000 OA
BRANCH  20  22
ATOM     22  O   UNL     1      -2.253  11.575  16.002  0.00  0.00    +0.000 OA
ATOM     23  H   UNL     1      -2.744  11.716  15.153  0.00  0.00    +0.000 HD
ENDBRANCH  20  22
ENDBRANCH  13  20
TORSDOF 3
ENDMDL
