MODEL 1
REMARK VINA RESULT:      -6.9      0.000      0.000
REMARK  Name = 
REMARK  8 active torsions:
REMARK  status: ('A' for Active; 'I' for Inactive)
REMARK    1  A    between atoms: C_1  and  C_2
REMARK    2  A    between atoms: N_6  and  C_7
REMARK    3  A    between atoms: C_7  and  C_8
REMARK    4  A    between atoms: C_8  and  N_9
REMARK    5  A    between atoms: N_9  and  C_10
REMARK    6  A    between atoms: N_9  and  C_11
REMARK    7  A    between atoms: C_11  and  C_12
REMARK    8  A    between atoms: C_12  and  C_13
REMARK                            x       y       z     vdW  Elec       q    Type
REMARK                         _______ _______ _______ _____ _____    ______ ____
ROOT
ATOM      1  C   UNL     1       3.304   6.867  18.799  0.00  0.00    +0.000 C 
ENDROOT
BRANCH   1   2
ATOM      2  C   UNL     1       3.810   5.389  18.216  0.00  0.00    +0.000 C 
ATOM      3  C   UNL     1       3.677   4.223  17.107  0.00  0.00    +0.000 C 
ATOM      4  C   UNL     1       5.057   4.029  16.531  0.00  0.00    +0.000 C 
ATOM      5  O   UNL     1       5.431   5.340  16.223  0.00  0.00    +0.000 OA
ATOM      6  C   UNL     1       4.570   6.154  17.015  0.00  0.00    +0.000 C 
BRANCH   2   7
ATOM      7  C   UNL     1       2.753   4.589  19.024  0.00  0.00    +0.000 A 
ATOM      8  C   UNL     1       2.819   4.658  20.426  0.00  0.00    +0.000 A 
ATOM      9  C   UNL     1       1.936   3.921  21.226  0.00  0.00    +0.000 A 
ATOM     10  C   UNL     1       0.973   3.096  20.646  0.00  0.00    +0.000 A 
ATOM     11  C   UNL     1       0.887   2.996  19.265  0.00  0.00    +0.000 A 
ATOM     12  C   UNL     1       1.763   3.732  18.469  0.00  0.00    +0.000 A 
ENDBRANCH   2   7
ENDBRANCH   1   2
BRANCH   1  13
ATOM     13  N   UNL     1       2.030   7.631  18.626  0.00  0.00    +0.000 NA
ATOM     14  C   UNL     1       2.198   8.732  17.680  0.00  0.00    +0.000 C 
BRANCH  13  15
ATOM     15  C   UNL     1       1.626   8.210  19.963  0.00  0.00    +0.000 C 
BRANCH  15  16
ATOM     16  C   UNL     1       0.856   9.547  19.912  0.00  0.00    +0.000 C 
BRANCH  16  22
ATOM     17  C   UNL     1       0.443  12.441  21.025  0.00  0.00    +0.000 C 
ATOM     18  C   UNL     1       0.075  11.180  21.711  0.00  0.00    +0.000 A 
ATOM     19  N   UNL     1      -0.432  11.109  22.928  0.00  0.00    +0.000 NA
ATOM     20  C   UNL     1      -0.576   9.777  23.206  0.00  0.00    +0.000 A 
ATOM     21  C   UNL     1      -0.180   9.017  22.132  0.00  0.00    +0.000 A 
ATOM     22  N   UNL     1       0.232   9.913  21.177  0.00  0.00    +0.000 N 
ENDBRANCH  16  22
ENDBRANCH  15  16
ENDBRANCH  13  15
ENDBRANCH   1  13
TORSDOF 6
ENDMDL
MODEL 2
REMARK VINA RESULT:      -6.8      3.913      7.425
REMARK  Name = 
REMARK  8 active torsions:
REMARK  status: ('A' for Active; 'I' for Inactive)
REMARK    1  A    between atoms: C_1  and  C_2
REMARK    2  A    between atoms: N_6  and  C_7
REMARK    3  A    between atoms: C_7  and  C_8
REMARK    4  A    between atoms: C_8  and  N_9
REMARK    5  A    between atoms: N_9  and  C_10
REMARK    6  A    between atoms: N_9  and  C_11
REMARK    7  A    between atoms: C_11  and  C_12
REMARK    8  A    between atoms: C_12  and  C_13
REMARK                            x       y       z     vdW  Elec       q    Type
REMARK                         _______ _______ _______ _____ _____    ______ ____
ROOT
ATOM      1  C   UNL     1       5.476   5.321  18.784  0.00  0.00    +0.000 C 
ENDROOT
BRANCH   1   2
ATOM      2  C   UNL     1       4.033   4.873  19.491  0.00  0.00    +0.000 C 
ATOM      3  C   UNL     1       2.575   4.197  19.343  0.00  0.00    +0.000 C 
ATOM      4  C   UNL     1       2.508   3.107  20.383  0.00  0.00    +0.000 C 
ATOM      5  O   UNL     1       3.701   2.414  20.158  0.00  0.00    +0.000 OA
ATOM      6  C   UNL     1       4.520   3.335  19.442  0.00  0.00    +0.000 C 
BRANCH   2   7
ATOM      7  C   UNL     1       3.326   6.211  19.145  0.00  0.00    +0.000 A 
ATOM      8  C   UNL     1       2.434   6.739  20.094  0.00  0.00    +0.000 A 
ATOM      9  C   UNL     1       1.715   7.912  19.832  0.00  0.00    +0.000 A 
ATOM     10  C   UNL     1       1.865   8.582  18.619  0.00  0.00    +0.000 A 
ATOM     11  C   UNL     1       2.729   8.082  17.654  0.00  0.00    +0.000 A 
ATOM     12  C   UNL     1       3.447   6.916  17.915  0.00  0.00    +0.000 A 
ENDBRANCH   2   7
ENDBRANCH   1   2
BRANCH   1  13
ATOM     13  N   UNL     1       6.866   4.786  18.914  0.00  0.00    +0.000 NA
ATOM     14  C   UNL     1       7.714   5.698  19.679  0.00  0.00    +0.000 C 
BRANCH  13  15
ATOM     15  C   UNL     1       7.459   4.633  17.532  0.00  0.00    +0.000 C 
BRANCH  15  16
ATOM     16  C   UNL     1       6.985   5.659  16.480  0.00  0.00    +0.000 C 
BRANCH  16  22
ATOM     17  C   UNL     1       4.436   3.953  15.864  0.00  0.00    +0.000 C 
ATOM     18  C   UNL     1       5.527   4.271  14.911  0.00  0.00    +0.000 A 
ATOM     19  N   UNL     1       5.595   3.819  13.672  0.00  0.00    +0.000 NA
ATOM     20  C   UNL     1       6.769   4.296  13.156  0.00  0.00    +0.000 A 
ATOM     21  C   UNL     1       7.419   5.077  14.081  0.00  0.00    +0.000 A 
ATOM     22  N   UNL     1       6.624   5.063  15.200  0.00  0.00    +0.000 N 
ENDBRANCH  16  22
ENDBRANCH  15  16
ENDBRANCH  13  15
ENDBRANCH   1  13
TORSDOF 6
ENDMDL
MODEL 3
REMARK VINA RESULT:      -6.8      2.313      5.168
REMARK  Name = 
REMARK  8 active torsions:
REMARK  status: ('A' for Active; 'I' for Inactive)
REMARK    1  A    between atoms: C_1  and  C_2
REMARK    2  A    between atoms: N_6  and  C_7
REMARK    3  A    between atoms: C_7  and  C_8
REMARK    4  A    between atoms: C_8  and  N_9
REMARK    5  A    between atoms: N_9  and  C_10
REMARK    6  A    between atoms: N_9  and  C_11
REMARK    7  A    between atoms: C_11  and  C_12
REMARK    8  A    between atoms: C_12  and  C_13
REMARK                            x       y       z     vdW  Elec       q    Type
REMARK                         _______ _______ _______ _____ _____    ______ ____
ROOT
ATOM      1  C   UNL     1       4.309   4.541  17.681  0.00  0.00    +0.000 C 
ENDROOT
BRANCH   1   2
ATOM      2  C   UNL     1       5.967   4.710  17.763  0.00  0.00    +0.000 C 
ATOM      3  C   UNL     1       7.257   5.679  17.750  0.00  0.00    +0.000 C 
ATOM      4  C   UNL     1       8.022   5.379  19.014  0.00  0.00    +0.000 C 
ATOM      5  O   UNL     1       7.020   5.450  19.986  0.00  0.00    +0.000 OA
ATOM      6  C   UNL     1       5.804   5.293  19.259  0.00  0.00    +0.000 C 
BRANCH   2   7
ATOM      7  C   UNL     1       6.158   4.617  16.225  0.00  0.00    +0.000 A 
ATOM      8  C   UNL     1       5.136   4.004  15.479  0.00  0.00    +0.000 A 
ATOM      9  C   UNL     1       5.260   3.831  14.094  0.00  0.00    +0.000 A 
ATOM     10  C   UNL     1       6.405   4.261  13.424  0.00  0.00    +0.000 A 
ATOM     11  C   UNL     1       7.437   4.860  14.131  0.00  0.00    +0.000 A 
ATOM     12  C   UNL     1       7.314   5.035  15.509  0.00  0.00    +0.000 A 
ENDBRANCH   2   7
ENDBRANCH   1   2
BRANCH   1  13
ATOM     13  N   UNL     1       3.319   3.899  18.601  0.00  0.00    +0.000 NA
ATOM     14  C   UNL     1       2.762   2.683  18.013  0.00  0.00    +0.000 C 
BRANCH  13  15
ATOM     15  C   UNL     1       2.187   4.870  18.848  0.00  0.00    +0.000 C 
BRANCH  15  16
ATOM     16  C   UNL     1       2.490   6.020  19.832  0.00  0.00    +0.000 C 
BRANCH  16  22
ATOM     17  C   UNL     1       0.929   8.369  21.186  0.00  0.00    +0.000 C 
ATOM     18  C   UNL     1       1.535   8.387  19.833  0.00  0.00    +0.000 A 
ATOM     19  N   UNL     1       1.444   9.395  18.985  0.00  0.00    +0.000 NA
ATOM     20  C   UNL     1       2.085   8.994  17.845  0.00  0.00    +0.000 A 
ATOM     21  C   UNL     1       2.605   7.732  18.004  0.00  0.00    +0.000 A 
ATOM     22  N   UNL     1       2.256   7.346  19.275  0.00  0.00    +0.000 N 
ENDBRANCH  16  22
ENDBRANCH  15  16
ENDBRANCH  13  15
ENDBRANCH   1  13
TORSDOF 6
ENDMDL
MODEL 4
REMARK VINA RESULT:      -6.8      3.895      7.420
REMARK  Name = 
REMARK  8 active torsions:
REMARK  status: ('A' for Active; 'I' for Inactive)
REMARK    1  A    between atoms: C_1  and  C_2
REMARK    2  A    between atoms: N_6  and  C_7
REMARK    3  A    between atoms: C_7  and  C_8
REMARK    4  A    between atoms: C_8  and  N_9
REMARK    5  A    between atoms: N_9  and  C_10
REMARK    6  A    between atoms: N_9  and  C_11
REMARK    7  A    between atoms: C_11  and  C_12
REMARK    8  A    between atoms: C_12  and  C_13
REMARK                            x       y       z     vdW  Elec       q    Type
REMARK                         _______ _______ _______ _____ _____    ______ ____
ROOT
ATOM      1  C   UNL     1       5.480   5.433  18.993  0.00  0.00    +0.000 C 
ENDROOT
BRANCH   1   2
ATOM      2  C   UNL     1       4.007   4.859  19.524  0.00  0.00    +0.000 C 
ATOM      3  C   UNL     1       2.622   4.098  19.193  0.00  0.00    +0.000 C 
ATOM      4  C   UNL     1       2.522   2.958  20.176  0.00  0.00    +0.000 C 
ATOM      5  O   UNL     1       3.777   2.355  20.051  0.00  0.00    +0.000 OA
ATOM      6  C   UNL     1       4.601   3.360  19.465  0.00  0.00    +0.000 C 
BRANCH   2   7
ATOM      7  C   UNL     1       3.248   6.164  19.159  0.00  0.00    +0.000 A 
ATOM      8  C   UNL     1       3.548   6.766  17.924  0.00  0.00    +0.000 A 
ATOM      9  C   UNL     1       2.948   7.975  17.548  0.00  0.00    +0.000 A 
ATOM     10  C   UNL     1       2.042   8.611  18.395  0.00  0.00    +0.000 A 
ATOM     11  C   UNL     1       1.732   8.051  19.625  0.00  0.00    +0.000 A 
ATOM     12  C   UNL     1       2.326   6.847  19.999  0.00  0.00    +0.000 A 
ENDBRANCH   2   7
ENDBRANCH   1   2
BRANCH   1  13
ATOM     13  N   UNL     1       6.863   4.867  19.068  0.00  0.00    +0.000 NA
ATOM     14  C   UNL     1       7.768   5.775  19.769  0.00  0.00    +0.000 C 
BRANCH  13  15
ATOM     15  C   UNL     1       7.383   4.669  17.663  0.00  0.00    +0.000 C 
BRANCH  15  16
ATOM     16  C   UNL     1       6.897   5.694  16.615  0.00  0.00    +0.000 C 
BRANCH  16  22
ATOM     17  C   UNL     1       4.438   3.891  15.914  0.00  0.00    +0.000 C 
ATOM     18  C   UNL     1       5.534   4.273  14.992  0.00  0.00    +0.000 A 
ATOM     19  N   UNL     1       5.648   3.847  13.747  0.00  0.00    +0.000 NA
ATOM     20  C   UNL     1       6.811   4.382  13.265  0.00  0.00    +0.000 A 
ATOM     21  C   UNL     1       7.407   5.174  14.217  0.00  0.00    +0.000 A 
ATOM     22  N   UNL     1       6.589   5.106  15.318  0.00  0.00    +0.000 N 
ENDBRANCH  16  22
ENDBRANCH  15  16
ENDBRANCH  13  15
ENDBRANCH   1  13
TORSDOF 6
ENDMDL
MODEL 5
REMARK VINA RESULT:      -6.8      3.722      6.234
REMARK  Name = 
REMARK  8 active torsions:
REMARK  status: ('A' for Active; 'I' for Inactive)
REMARK    1  A    between atoms: C_1  and  C_2
REMARK    2  A    between atoms: N_6  and  C_7
REMARK    3  A    between atoms: C_7  and  C_8
REMARK    4  A    between atoms: C_8  and  N_9
REMARK    5  A    between atoms: N_9  and  C_10
REMARK    6  A    between atoms: N_9  and  C_11
REMARK    7  A    between atoms: C_11  and  C_12
REMARK    8  A    between atoms: C_12  and  C_13
REMARK                            x       y       z     vdW  Elec       q    Type
REMARK                         _______ _______ _______ _____ _____    ______ ____
ROOT
ATOM      1  C   UNL     1       4.513   3.734  16.943  0.00  0.00    +0.000 C 
ENDROOT
BRANCH   1   2
ATOM      2  C   UNL     1       6.060   4.327  17.140  0.00  0.00    +0.000 C 
ATOM      3  C   UNL     1       7.051   5.598  17.222  0.00  0.00    +0.000 C 
ATOM      4  C   UNL     1       7.784   5.478  18.534  0.00  0.00    +0.000 C 
ATOM      5  O   UNL     1       6.737   5.264  19.435  0.00  0.00    +0.000 OA
ATOM      6  C   UNL     1       5.654   4.813  18.624  0.00  0.00    +0.000 C 
BRANCH   2   7
ATOM      7  C   UNL     1       6.369   4.323  15.618  0.00  0.00    +0.000 A 
ATOM      8  C   UNL     1       7.400   5.163  15.163  0.00  0.00    +0.000 A 
ATOM      9  C   UNL     1       7.701   5.259  13.798  0.00  0.00    +0.000 A 
ATOM     10  C   UNL     1       6.980   4.524  12.859  0.00  0.00    +0.000 A 
ATOM     11  C   UNL     1       5.948   3.693  13.273  0.00  0.00    +0.000 A 
ATOM     12  C   UNL     1       5.650   3.595  14.631  0.00  0.00    +0.000 A 
ENDBRANCH   2   7
ENDBRANCH   1   2
BRANCH   1  13
ATOM     13  N   UNL     1       3.569   3.061  17.887  0.00  0.00    +0.000 NA
ATOM     14  C   UNL     1       3.903   1.648  18.051  0.00  0.00    +0.000 C 
BRANCH  13  15
ATOM     15  C   UNL     1       2.169   3.156  17.323  0.00  0.00    +0.000 C 
BRANCH  15  16
ATOM     16  C   UNL     1       1.131   3.867  18.217  0.00  0.00    +0.000 C 
BRANCH  16  22
ATOM     17  C   UNL     1       2.435   6.097  19.982  0.00  0.00    +0.000 C 
ATOM     18  C   UNL     1       2.043   4.741  20.435  0.00  0.00    +0.000 A 
ATOM     19  N   UNL     1       2.250   4.268  21.650  0.00  0.00    +0.000 NA
ATOM     20  C   UNL     1       1.796   2.977  21.641  0.00  0.00    +0.000 A 
ATOM     21  C   UNL     1       1.275   2.660  20.409  0.00  0.00    +0.000 A 
ATOM     22  N   UNL     1       1.430   3.788  19.641  0.00  0.00    +0.000 N 
ENDBRANCH  16  22
ENDBRANCH  15  16
ENDBRANCH  13  15
ENDBRANCH   1  13
TORSDOF 6
ENDMDL
MODEL 6
REMARK VINA RESULT:      -6.8      1.651      3.220
REMARK  Name = 
REMARK  8 active torsions:
REMARK  status: ('A' for Active; 'I' for Inactive)
REMARK    1  A    between atoms: C_1  and  C_2
REMARK    2  A    between atoms: N_6  and  C_7
REMARK    3  A    between atoms: C_7  and  C_8
REMARK    4  A    between atoms: C_8  and  N_9
REMARK    5  A    between atoms: N_9  and  C_10
REMARK    6  A    between atoms: N_9  and  C_11
REMARK    7  A    between atoms: C_11  and  C_12
REMARK    8  A    between atoms: C_12  and  C_13
REMARK                            x       y       z     vdW  Elec       q    Type
REMARK                         _______ _______ _______ _____ _____    ______ ____
ROOT
ATOM      1  C   UNL     1       2.945   6.813  18.848  0.00  0.00    +0.000 C 
ENDROOT
BRANCH   1   2
ATOM      2  C   UNL     1       3.396   5.475  17.960  0.00  0.00    +0.000 C 
ATOM      3  C   UNL     1       3.849   3.926  17.931  0.00  0.00    +0.000 C 
ATOM      4  C   UNL     1       2.882   3.222  17.013  0.00  0.00    +0.000 C 
ATOM      5  O   UNL     1       1.646   3.650  17.505  0.00  0.00    +0.000 OA
ATOM      6  C   UNL     1       1.946   4.830  18.249  0.00  0.00    +0.000 C 
BRANCH   2   7
ATOM      7  C   UNL     1       4.912   5.802  18.042  0.00  0.00    +0.000 A 
ATOM      8  C   UNL     1       5.643   5.231  19.098  0.00  0.00    +0.000 A 
ATOM      9  C   UNL     1       7.002   5.523  19.273  0.00  0.00    +0.000 A 
ATOM     10  C   UNL     1       7.660   6.391  18.403  0.00  0.00    +0.000 A 
ATOM     11  C   UNL     1       6.966   6.980  17.356  0.00  0.00    +0.000 A 
ATOM     12  C   UNL     1       5.615   6.689  17.180  0.00  0.00    +0.000 A 
ENDBRANCH   2   7
ENDBRANCH   1   2
BRANCH   1  13
ATOM     13  N   UNL     1       1.973   7.917  18.575  0.00  0.00    +0.000 NA
ATOM     14  C   UNL     1       2.545   8.913  17.672  0.00  0.00    +0.000 C 
BRANCH  13  15
ATOM     15  C   UNL     1       1.634   8.598  19.881  0.00  0.00    +0.000 C 
BRANCH  15  16
ATOM     16  C   UNL     1       0.472   9.614  19.829  0.00  0.00    +0.000 C 
BRANCH  16  22
ATOM     17  C   UNL     1       0.353  12.523  20.973  0.00  0.00    +0.000 C 
ATOM     18  C   UNL     1      -0.042  11.285  21.687  0.00  0.00    +0.000 A 
ATOM     19  N   UNL     1      -0.448  11.242  22.943  0.00  0.00    +0.000 NA
ATOM     20  C   UNL     1      -0.659   9.922  23.232  0.00  0.00    +0.000 A 
ATOM     21  C   UNL     1      -0.408   9.142  22.128  0.00  0.00    +0.000 A 
ATOM     22  N   UNL     1      -0.016  10.014  21.142  0.00  0.00    +0.000 N 
ENDBRANCH  16  22
ENDBRANCH  15  16
ENDBRANCH  13  15
ENDBRANCH   1  13
TORSDOF 6
ENDMDL
MODEL 7
REMARK VINA RESULT:      -6.8      4.001      7.992
REMARK  Name = 
REMARK  8 active torsions:
REMARK  status: ('A' for Active; 'I' for Inactive)
REMARK    1  A    between atoms: C_1  and  C_2
REMARK    2  A    between atoms: N_6  and  C_7
REMARK    3  A    between atoms: C_7  and  C_8
REMARK    4  A    between atoms: C_8  and  N_9
REMARK    5  A    between atoms: N_9  and  C_10
REMARK    6  A    between atoms: N_9  and  C_11
REMARK    7  A    between atoms: C_11  and  C_12
REMARK    8  A    between atoms: C_12  and  C_13
REMARK                            x       y       z     vdW  Elec       q    Type
REMARK                         _______ _______ _______ _____ _____    ______ ____
ROOT
ATOM      1  C   UNL     1       5.022   4.599  18.550  0.00  0.00    +0.000 C 
ENDROOT
BRANCH   1   2
ATOM      2  C   UNL     1       3.402   4.230  18.692  0.00  0.00    +0.000 C 
ATOM      3  C   UNL     1       1.975   3.985  17.979  0.00  0.00    +0.000 C 
ATOM      4  C   UNL     1       1.509   2.621  18.425  0.00  0.00    +0.000 C 
ATOM      5  O   UNL     1       2.635   1.832  18.176  0.00  0.00    +0.000 OA
ATOM      6  C   UNL     1       3.714   2.761  18.099  0.00  0.00    +0.000 C 
BRANCH   2   7
ATOM      7  C   UNL     1       2.965   5.715  18.807  0.00  0.00    +0.000 A 
ATOM      8  C   UNL     1       2.343   6.119  20.001  0.00  0.00    +0.000 A 
ATOM      9  C   UNL     1       1.870   7.428  20.159  0.00  0.00    +0.000 A 
ATOM     10  C   UNL     1       2.002   8.360  19.132  0.00  0.00    +0.000 A 
ATOM     11  C   UNL     1       2.601   7.993  17.936  0.00  0.00    +0.000 A 
ATOM     12  C   UNL     1       3.075   6.691  17.778  0.00  0.00    +0.000 A 
ENDBRANCH   2   7
ENDBRANCH   1   2
BRANCH   1  13
ATOM     13  N   UNL     1       6.031   4.298  17.487  0.00  0.00    +0.000 NA
ATOM     14  C   UNL     1       7.363   4.754  17.878  0.00  0.00    +0.000 C 
BRANCH  13  15
ATOM     15  C   UNL     1       5.633   5.022  16.221  0.00  0.00    +0.000 C 
BRANCH  15  16
ATOM     16  C   UNL     1       5.407   4.132  14.980  0.00  0.00    +0.000 C 
BRANCH  16  22
ATOM     17  C   UNL     1       5.336   2.864  12.121  0.00  0.00    +0.000 C 
ATOM     18  C   UNL     1       6.316   3.862  12.611  0.00  0.00    +0.000 A 
ATOM     19  N   UNL     1       7.341   4.312  11.910  0.00  0.00    +0.000 NA
ATOM     20  C   UNL     1       8.022   5.167  12.734  0.00  0.00    +0.000 A 
ATOM     21  C   UNL     1       7.390   5.268  13.950  0.00  0.00    +0.000 A 
ATOM     22  N   UNL     1       6.299   4.437  13.870  0.00  0.00    +0.000 N 
ENDBRANCH  16  22
ENDBRANCH  15  16
ENDBRANCH  13  15
ENDBRANCH   1  13
TORSDOF 6
ENDMDL
MODEL 8
REMARK VINA RESULT:      -6.7      3.205      5.794
REMARK  Name = 
REMARK  8 active torsions:
REMARK  status: ('A' for Active; 'I' for Inactive)
REMARK    1  A    between atoms: C_1  and  C_2
REMARK    2  A    between atoms: N_6  and  C_7
REMARK    3  A    between atoms: C_7  and  C_8
REMARK    4  A    between atoms: C_8  and  N_9
REMARK    5  A    between atoms: N_9  and  C_10
REMARK    6  A    between atoms: N_9  and  C_11
REMARK    7  A    between atoms: C_11  and  C_12
REMARK    8  A    between atoms: C_12  and  C_13
REMARK                            x       y       z     vdW  Elec       q    Type
REMARK                         _______ _______ _______ _____ _____    ______ ____
ROOT
ATOM      1  C   UNL     1       4.552   3.524  17.395  0.00  0.00    +0.000 C 
ENDROOT
BRANCH   1   2
ATOM      2  C   UNL     1       5.997   4.343  17.552  0.00  0.00    +0.000 C 
ATOM      3  C   UNL     1       6.783   5.750  17.643  0.00  0.00    +0.000 C 
ATOM      4  C   UNL     1       7.587   5.701  18.918  0.00  0.00    +0.000 C 
ATOM      5  O   UNL     1       6.629   5.297  19.852  0.00  0.00    +0.000 OA
ATOM      6  C   UNL     1       5.591   4.710  19.070  0.00  0.00    +0.000 C 
BRANCH   2   7
ATOM      7  C   UNL     1       6.230   4.438  16.019  0.00  0.00    +0.000 A 
ATOM      8  C   UNL     1       5.282   3.829  15.179  0.00  0.00    +0.000 A 
ATOM      9  C   UNL     1       5.452   3.823  13.788  0.00  0.00    +0.000 A 
ATOM     10  C   UNL     1       6.570   4.418  13.206  0.00  0.00    +0.000 A 
ATOM     11  C   UNL     1       7.530   5.019  14.007  0.00  0.00    +0.000 A 
ATOM     12  C   UNL     1       7.361   5.028  15.390  0.00  0.00    +0.000 A 
ENDBRANCH   2   7
ENDBRANCH   1   2
BRANCH   1  13
ATOM     13  N   UNL     1       3.680   2.829  18.392  0.00  0.00    +0.000 NA
ATOM     14  C   UNL     1       4.010   1.408  18.483  0.00  0.00    +0.000 C 
BRANCH  13  15
ATOM     15  C   UNL     1       2.240   2.955  17.947  0.00  0.00    +0.000 C 
BRANCH  15  16
ATOM     16  C   UNL     1       1.747   4.390  17.666  0.00  0.00    +0.000 C 
BRANCH  16  22
ATOM     17  C   UNL     1       3.106   7.204  17.813  0.00  0.00    +0.000 C 
ATOM     18  C   UNL     1       2.435   6.497  18.930  0.00  0.00    +0.000 A 
ATOM     19  N   UNL     1       2.373   6.946  20.171  0.00  0.00    +0.000 NA
ATOM     20  C   UNL     1       1.724   5.982  20.893  0.00  0.00    +0.000 A 
ATOM     21  C   UNL     1       1.355   4.938  20.080  0.00  0.00    +0.000 A 
ATOM     22  N   UNL     1       1.806   5.269  18.826  0.00  0.00    +0.000 N 
ENDBRANCH  16  22
ENDBRANCH  15  16
ENDBRANCH  13  15
ENDBRANCH   1  13
TORSDOF 6
ENDMDL
MODEL 9
REMARK VINA RESULT:      -6.6      3.715      7.946
REMARK  Name = 
REMARK  8 active torsions:
REMARK  status: ('A' for Active; 'I' for Inactive)
REMARK    1  A    between atoms: C_1  and  C_2
REMARK    2  A    between atoms: N_6  and  C_7
REMARK    3  A    between atoms: C_7  and  C_8
REMARK    4  A    between atoms: C_8  and  N_9
REMARK    5  A    between atoms: N_9  and  C_10
REMARK    6  A    between atoms: N_9  and  C_11
REMARK    7  A    between atoms: C_11  and  C_12
REMARK    8  A    between atoms: C_12  and  C_13
REMARK                            x       y       z     vdW  Elec       q    Type
REMARK                         _______ _______ _______ _____ _____    ______ ____
ROOT
ATOM      1  C   UNL     1       4.056   5.156  17.673  0.00  0.00    +0.000 C 
ENDROOT
BRANCH   1   2
ATOM      2  C   UNL     1       2.841   4.431  18.556  0.00  0.00    +0.000 C 
ATOM      3  C   UNL     1       1.305   3.943  18.649  0.00  0.00    +0.000 C 
ATOM      4  C   UNL     1       1.349   2.477  19.002  0.00  0.00    +0.000 C 
ATOM      5  O   UNL     1       2.256   1.978  18.062  0.00  0.00    +0.000 OA
ATOM      6  C   UNL     1       2.980   3.124  17.620  0.00  0.00    +0.000 C 
BRANCH   2   7
ATOM      7  C   UNL     1       2.338   5.769  19.161  0.00  0.00    +0.000 A 
ATOM      8  C   UNL     1       2.476   6.928  18.379  0.00  0.00    +0.000 A 
ATOM      9  C   UNL     1       2.098   8.182  18.876  0.00  0.00    +0.000 A 
ATOM     10  C   UNL     1       1.578   8.309  20.163  0.00  0.00    +0.000 A 
ATOM     11  C   UNL     1       1.438   7.186  20.967  0.00  0.00    +0.000 A 
ATOM     12  C   UNL     1       1.812   5.938  20.472  0.00  0.00    +0.000 A 
ENDBRANCH   2   7
ENDBRANCH   1   2
BRANCH   1  13
ATOM     13  N   UNL     1       5.375   4.652  17.178  0.00  0.00    +0.000 NA
ATOM     14  C   UNL     1       6.387   4.696  18.230  0.00  0.00    +0.000 C 
BRANCH  13  15
ATOM     15  C   UNL     1       5.834   5.533  16.039  0.00  0.00    +0.000 C 
BRANCH  15  16
ATOM     16  C   UNL     1       7.153   5.116  15.355  0.00  0.00    +0.000 C 
BRANCH  16  22
ATOM     17  C   UNL     1       8.663   5.932  12.739  0.00  0.00    +0.000 C 
ATOM     18  C   UNL     1       7.593   4.912  12.849  0.00  0.00    +0.000 A 
ATOM     19  N   UNL     1       7.088   4.243  11.829  0.00  0.00    +0.000 NA
ATOM     20  C   UNL     1       6.099   3.450  12.343  0.00  0.00    +0.000 A 
ATOM     21  C   UNL     1       6.014   3.611  13.705  0.00  0.00    +0.000 A 
ATOM     22  N   UNL     1       6.970   4.542  14.028  0.00  0.00    +0.000 N 
ENDBRANCH  16  22
ENDBRANCH  15  16
ENDBRANCH  13  15
ENDBRANCH   1  13
TORSDOF 6
ENDMDL
