MODEL 1
REMARK VINA RESULT:      -7.3      0.000      0.000
REMARK  Name = 
REMARK  10 active torsions:
REMARK  status: ('A' for Active; 'I' for Inactive)
REMARK    1  A    between atoms: C_1  and  C_2
REMARK    2  A    between atoms: C_8  and  C_9
REMARK    3  A    between atoms: C_12  and  C_13
REMARK    4  A    between atoms: C_13  and  N_14
REMARK    5  A    between atoms: N_14  and  C_15
REMARK    6  A    between atoms: C_15  and  C_16
REMARK    7  A    between atoms: C_16  and  C_17
REMARK    8  A    between atoms: C_17  and  S_18
REMARK    9  A    between atoms: S_18  and  C_19
REMARK   10  A    between atoms: N_23  and  C_24
REMARK                            x       y       z     vdW  Elec       q    Type
REMARK                         _______ _______ _______ _____ _____    ______ ____
ROOT
ATOM      1  C   UNL     1       2.268   6.546  19.831  0.00  0.00    +0.000 A 
ATOM      2  C   UNL     1       1.671   5.595  20.641  0.00  0.00    +0.000 A 
ATOM      3  C   UNL     1       2.499   4.448  20.609  0.00  0.00    +0.000 A 
ATOM      4  C   UNL     1       3.544   4.746  19.761  0.00  0.00    +0.000 A 
ATOM      5  O   UNL     1       3.394   6.012  19.269  0.00  0.00    +0.000 OA
ENDROOT
BRANCH   1  13
ATOM      6  C   UNL     1       1.020   8.403  21.843  0.00  0.00    +0.000 C 
ATOM      7  C   UNL     1       1.281   8.822  20.417  0.00  0.00    +0.000 A 
ATOM      8  C   UNL     1       0.866  10.086  19.943  0.00  0.00    +0.000 A 
ATOM      9 CL   UNL     1       0.006  11.219  20.933  0.00  0.00    +0.000 Cl
ATOM     10  C   UNL     1       1.105  10.482  18.622  0.00  0.00    +0.000 A 
ATOM     11  C   UNL     1       1.774   9.636  17.751  0.00  0.00    +0.000 A 
ATOM     12  C   UNL     1       2.178   8.377  18.193  0.00  0.00    +0.000 A 
ATOM     13  C   UNL     1       1.926   7.938  19.511  0.00  0.00    +0.000 A 
ENDBRANCH   1  13
BRANCH   4  14
ATOM     14  C   UNL     1       4.737   3.976  19.310  0.00  0.00    +0.000 C 
BRANCH  14  15
ATOM     15  N   UNL     1       4.321   2.657  18.831  0.00  0.00    +0.000 NA
ATOM     16  H   UNL     1       3.454   2.412  19.310  0.00  0.00    +0.000 HD
BRANCH  15  17
ATOM     17  C   UNL     1       4.122   2.626  17.382  0.00  0.00    +0.000 C 
BRANCH  17  18
ATOM     18  C   UNL     1       4.794   3.862  16.768  0.00  0.00    +0.000 C 
BRANCH  18  19
ATOM     19  C   UNL     1       5.620   3.511  15.532  0.00  0.00    +0.000 C 
BRANCH  19  20
ATOM     20  S   UNL     1       6.942   4.752  15.301  0.00  0.00    +0.000 S 
BRANCH  20  21
ATOM     21  C   UNL     1       7.422   5.030  16.938  0.00  0.00    +0.000 A 
ATOM     22  N   UNL     1       8.101   4.221  17.714  0.00  0.00    +0.000 NA
ATOM     23  N   UNL     1       8.230   4.875  18.918  0.00  0.00    +0.000 NA
ATOM     24  N   UNL     1       7.640   6.063  18.881  0.00  0.00    +0.000 NA
ATOM     25  N   UNL     1       7.135   6.165  17.640  0.00  0.00    +0.000 N 
ATOM     26  C   UNL     1       6.419   7.346  17.243  0.00  0.00    +0.000 C 
ENDBRANCH  20  21
ENDBRANCH  19  20
ENDBRANCH  18  19
ENDBRANCH  17  18
ENDBRANCH  15  17
ENDBRANCH  14  15
ENDBRANCH   4  14
TORSDOF 8
ENDMDL
MODEL 2
REMARK VINA RESULT:      -7.2      1.850      3.058
REMARK  Name = 
REMARK  10 active torsions:
REMARK  status: ('A' for Active; 'I' for Inactive)
REMARK    1  A    between atoms: C_1  and  C_2
REMARK    2  A    between atoms: C_8  and  C_9
REMARK    3  A    between atoms: C_12  and  C_13
REMARK    4  A    between atoms: C_13  and  N_14
REMARK    5  A    between atoms: N_14  and  C_15
REMARK    6  A    between atoms: C_15  and  C_16
REMARK    7  A    between atoms: C_16  and  C_17
REMARK    8  A    between atoms: C_17  and  S_18
REMARK    9  A    between atoms: S_18  and  C_19
REMARK   10  A    between atoms: N_23  and  C_24
REMARK                            x       y       z     vdW  Elec       q    Type
REMARK                         _______ _______ _______ _____ _____    ______ ____
ROOT
ATOM      1  C   UNL     1       1.192   7.916  20.696  0.00  0.00    +0.000 A 
ATOM      2  C   UNL     1       2.187   7.845  19.737  0.00  0.00    +0.000 A 
ATOM      3  C   UNL     1       2.555   6.484  19.623  0.00  0.00    +0.000 A 
ATOM      4  C   UNL     1       1.787   5.796  20.537  0.00  0.00    +0.000 A 
ATOM      5  O   UNL     1       0.973   6.666  21.207  0.00  0.00    +0.000 OA
ENDROOT
BRANCH   1  13
ATOM      6  C   UNL     1       0.050  10.041  18.900  0.00  0.00    +0.000 C 
ATOM      7  C   UNL     1      -0.123  10.079  20.398  0.00  0.00    +0.000 A 
ATOM      8  C   UNL     1      -0.760  11.170  21.030  0.00  0.00    +0.000 A 
ATOM      9 CL   UNL     1      -1.348  12.544  20.153  0.00  0.00    +0.000 Cl
ATOM     10  C   UNL     1      -0.925  11.211  22.418  0.00  0.00    +0.000 A 
ATOM     11  C   UNL     1      -0.474  10.163  23.205  0.00  0.00    +0.000 A 
ATOM     12  C   UNL     1       0.172   9.084  22.605  0.00  0.00    +0.000 A 
ATOM     13  C   UNL     1       0.379   9.026  21.210  0.00  0.00    +0.000 A 
ENDBRANCH   1  13
BRANCH   4  14
ATOM     14  C   UNL     1       1.692   4.355  20.905  0.00  0.00    +0.000 C 
BRANCH  14  15
ATOM     15  N   UNL     1       1.524   3.548  19.697  0.00  0.00    +0.000 NA
ATOM     16  H   UNL     1       1.802   4.120  18.899  0.00  0.00    +0.000 HD
BRANCH  15  17
ATOM     17  C   UNL     1       2.314   2.317  19.732  0.00  0.00    +0.000 C 
BRANCH  17  18
ATOM     18  C   UNL     1       3.697   2.605  19.130  0.00  0.00    +0.000 C 
BRANCH  18  19
ATOM     19  C   UNL     1       3.626   2.846  17.622  0.00  0.00    +0.000 C 
BRANCH  19  20
ATOM     20  S   UNL     1       4.099   4.571  17.251  0.00  0.00    +0.000 S 
BRANCH  20  21
ATOM     21  C   UNL     1       5.813   4.496  17.465  0.00  0.00    +0.000 A 
ATOM     22  N   UNL     1       6.480   4.630  18.585  0.00  0.00    +0.000 NA
ATOM     23  N   UNL     1       7.808   4.500  18.250  0.00  0.00    +0.000 NA
ATOM     24  N   UNL     1       7.954   4.292  16.948  0.00  0.00    +0.000 NA
ATOM     25  N   UNL     1       6.704   4.286  16.453  0.00  0.00    +0.000 N 
ATOM     26  C   UNL     1       6.482   4.081  15.047  0.00  0.00    +0.000 C 
ENDBRANCH  20  21
ENDBRANCH  19  20
ENDBRANCH  18  19
ENDBRANCH  17  18
ENDBRANCH  15  17
ENDBRANCH  14  15
ENDBRANCH   4  14
TORSDOF 8
ENDMDL
MODEL 3
REMARK VINA RESULT:      -7.1      2.390      3.381
REMARK  Name = 
REMARK  10 active torsions:
REMARK  status: ('A' for Active; 'I' for Inactive)
REMARK    1  A    between atoms: C_1  and  C_2
REMARK    2  A    between atoms: C_8  and  C_9
REMARK    3  A    between atoms: C_12  and  C_13
REMARK    4  A    between atoms: C_13  and  N_14
REMARK    5  A    between atoms: N_14  and  C_15
REMARK    6  A    between atoms: C_15  and  C_16
REMARK    7  A    between atoms: C_16  and  C_17
REMARK    8  A    between atoms: C_17  and  S_18
REMARK    9  A    between atoms: S_18  and  C_19
REMARK   10  A    between atoms: N_23  and  C_24
REMARK                            x       y       z     vdW  Elec       q    Type
REMARK                         _______ _______ _______ _____ _____    ______ ____
ROOT
ATOM      1  C   UNL     1       2.270   6.388  19.236  0.00  0.00    +0.000 A 
ATOM      2  C   UNL     1       1.975   5.666  18.093  0.00  0.00    +0.000 A 
ATOM      3  C   UNL     1       2.781   4.503  18.120  0.00  0.00    +0.000 A 
ATOM      4  C   UNL     1       3.547   4.587  19.263  0.00  0.00    +0.000 A 
ATOM      5  O   UNL     1       3.255   5.743  19.932  0.00  0.00    +0.000 OA
ENDROOT
BRANCH   1  13
ATOM      6  C   UNL     1       2.147   8.943  17.652  0.00  0.00    +0.000 C 
ATOM      7  C   UNL     1       1.714   8.871  19.095  0.00  0.00    +0.000 A 
ATOM      8  C   UNL     1       1.312  10.032  19.793  0.00  0.00    +0.000 A 
ATOM      9 CL   UNL     1       1.320  11.607  19.068  0.00  0.00    +0.000 Cl
ATOM     10  C   UNL     1       0.909   9.975  21.131  0.00  0.00    +0.000 A 
ATOM     11  C   UNL     1       0.883   8.760  21.799  0.00  0.00    +0.000 A 
ATOM     12  C   UNL     1       1.292   7.604  21.136  0.00  0.00    +0.000 A 
ATOM     13  C   UNL     1       1.730   7.635  19.795  0.00  0.00    +0.000 A 
ENDBRANCH   1  13
BRANCH   4  14
ATOM     14  C   UNL     1       4.578   3.695  19.863  0.00  0.00    +0.000 C 
BRANCH  14  15
ATOM     15  N   UNL     1       5.859   3.896  19.185  0.00  0.00    +0.000 NA
ATOM     16  H   UNL     1       5.798   3.453  18.268  0.00  0.00    +0.000 HD
BRANCH  15  17
ATOM     17  C   UNL     1       6.196   5.312  19.037  0.00  0.00    +0.000 C 
BRANCH  17  18
ATOM     18  C   UNL     1       6.528   5.585  17.564  0.00  0.00    +0.000 C 
BRANCH  18  19
ATOM     19  C   UNL     1       6.975   4.320  16.832  0.00  0.00    +0.000 C 
BRANCH  19  20
ATOM     20  S   UNL     1       5.854   3.993  15.426  0.00  0.00    +0.000 S 
BRANCH  20  21
ATOM     21  C   UNL     1       6.799   4.586  14.106  0.00  0.00    +0.000 A 
ATOM     22  N   UNL     1       7.738   5.499  14.150  0.00  0.00    +0.000 NA
ATOM     23  N   UNL     1       8.190   5.636  12.857  0.00  0.00    +0.000 NA
ATOM     24  N   UNL     1       7.540   4.822  12.036  0.00  0.00    +0.000 NA
ATOM     25  N   UNL     1       6.668   4.160  12.816  0.00  0.00    +0.000 N 
ATOM     26  C   UNL     1       5.786   3.179  12.247  0.00  0.00    +0.000 C 
ENDBRANCH  20  21
ENDBRANCH  19  20
ENDBRANCH  18  19
ENDBRANCH  17  18
ENDBRANCH  15  17
ENDBRANCH  14  15
ENDBRANCH   4  14
TORSDOF 8
ENDMDL
MODEL 4
REMARK VINA RESULT:      -7.1      5.579      7.633
REMARK  Name = 
REMARK  10 active torsions:
REMARK  status: ('A' for Active; 'I' for Inactive)
REMARK    1  A    between atoms: C_1  and  C_2
REMARK    2  A    between atoms: C_8  and  C_9
REMARK    3  A    between atoms: C_12  and  C_13
REMARK    4  A    between atoms: C_13  and  N_14
REMARK    5  A    between atoms: N_14  and  C_15
REMARK    6  A    between atoms: C_15  and  C_16
REMARK    7  A    between atoms: C_16  and  C_17
REMARK    8  A    between atoms: C_17  and  S_18
REMARK    9  A    between atoms: S_18  and  C_19
REMARK   10  A    between atoms: N_23  and  C_24
REMARK                            x       y       z     vdW  Elec       q    Type
REMARK                         _______ _______ _______ _____ _____    ______ ____
ROOT
ATOM      1  C   UNL     1       9.533  11.237  18.427  0.00  0.00    +0.000 A 
ATOM      2  C   UNL     1       9.743  10.412  19.518  0.00  0.00    +0.000 A 
ATOM      3  C   UNL     1       8.948   9.259  19.323  0.00  0.00    +0.000 A 
ATOM      4  C   UNL     1       8.272   9.449  18.137  0.00  0.00    +0.000 A 
ATOM      5  O   UNL     1       8.608  10.660  17.601  0.00  0.00    +0.000 OA
ENDROOT
BRANCH   1  13
ATOM      6  C   UNL     1       8.287  13.864  19.200  0.00  0.00    +0.000 C 
ATOM      7  C   UNL     1       9.512  13.784  18.324  0.00  0.00    +0.000 A 
ATOM      8  C   UNL     1      10.077  14.946  17.754  0.00  0.00    +0.000 A 
ATOM      9 CL   UNL     1       9.397  16.524  17.983  0.00  0.00    +0.000 Cl
ATOM     10  C   UNL     1      11.214  14.881  16.941  0.00  0.00    +0.000 A 
ATOM     11  C   UNL     1      11.821  13.660  16.690  0.00  0.00    +0.000 A 
ATOM     12  C   UNL     1      11.271  12.497  17.227  0.00  0.00    +0.000 A 
ATOM     13  C   UNL     1      10.109  12.528  18.028  0.00  0.00    +0.000 A 
ENDBRANCH   1  13
BRANCH   4  14
ATOM     14  C   UNL     1       7.294   8.618  17.380  0.00  0.00    +0.000 C 
BRANCH  14  15
ATOM     15  N   UNL     1       7.883   7.311  17.083  0.00  0.00    +0.000 NA
ATOM     16  H   UNL     1       8.852   7.328  17.403  0.00  0.00    +0.000 HD
BRANCH  15  17
ATOM     17  C   UNL     1       7.161   6.214  17.726  0.00  0.00    +0.000 C 
BRANCH  17  18
ATOM     18  C   UNL     1       5.654   6.449  17.550  0.00  0.00    +0.000 C 
BRANCH  18  19
ATOM     19  C   UNL     1       5.152   5.966  16.190  0.00  0.00    +0.000 C 
BRANCH  19  20
ATOM     20  S   UNL     1       5.915   4.355  15.789  0.00  0.00    +0.000 S 
BRANCH  20  21
ATOM     21  C   UNL     1       6.888   4.782  14.424  0.00  0.00    +0.000 A 
ATOM     22  N   UNL     1       7.904   5.609  14.402  0.00  0.00    +0.000 NA
ATOM     23  N   UNL     1       8.345   5.627  13.099  0.00  0.00    +0.000 NA
ATOM     24  N   UNL     1       7.612   4.827  12.336  0.00  0.00    +0.000 NA
ATOM     25  N   UNL     1       6.699   4.293  13.165  0.00  0.00    +0.000 N 
ATOM     26  C   UNL     1       5.725   3.361  12.666  0.00  0.00    +0.000 C 
ENDBRANCH  20  21
ENDBRANCH  19  20
ENDBRANCH  18  19
ENDBRANCH  17  18
ENDBRANCH  15  17
ENDBRANCH  14  15
ENDBRANCH   4  14
TORSDOF 8
ENDMDL
MODEL 5
REMARK VINA RESULT:      -7.0      1.756      2.530
REMARK  Name = 
REMARK  10 active torsions:
REMARK  status: ('A' for Active; 'I' for Inactive)
REMARK    1  A    between atoms: C_1  and  C_2
REMARK    2  A    between atoms: C_8  and  C_9
REMARK    3  A    between atoms: C_12  and  C_13
REMARK    4  A    between atoms: C_13  and  N_14
REMARK    5  A    between atoms: N_14  and  C_15
REMARK    6  A    between atoms: C_15  and  C_16
REMARK    7  A    between atoms: C_16  and  C_17
REMARK    8  A    between atoms: C_17  and  S_18
REMARK    9  A    between atoms: S_18  and  C_19
REMARK   10  A    between atoms: N_23  and  C_24
REMARK                            x       y       z     vdW  Elec       q    Type
REMARK                         _______ _______ _______ _____ _____    ______ ____
ROOT
ATOM      1  C   UNL     1       1.602   8.219  19.567  0.00  0.00    +0.000 A 
ATOM      2  C   UNL     1       2.499   7.935  18.552  0.00  0.00    +0.000 A 
ATOM      3  C   UNL     1       2.939   6.605  18.751  0.00  0.00    +0.000 A 
ATOM      4  C   UNL     1       2.311   6.154  19.892  0.00  0.00    +0.000 A 
ATOM      5  O   UNL     1       1.515   7.140  20.403  0.00  0.00    +0.000 OA
ENDROOT
BRANCH   1  13
ATOM      6  C   UNL     1       1.161   9.206  22.375  0.00  0.00    +0.000 C 
ATOM      7  C   UNL     1       0.497   9.851  21.184  0.00  0.00    +0.000 A 
ATOM      8  C   UNL     1      -0.435  10.899  21.349  0.00  0.00    +0.000 A 
ATOM      9 CL   UNL     1      -0.909  11.491  22.908  0.00  0.00    +0.000 Cl
ATOM     10  C   UNL     1      -1.054  11.503  20.250  0.00  0.00    +0.000 A 
ATOM     11  C   UNL     1      -0.749  11.088  18.963  0.00  0.00    +0.000 A 
ATOM     12  C   UNL     1       0.156  10.044  18.776  0.00  0.00    +0.000 A 
ATOM     13  C   UNL     1       0.776   9.396  19.867  0.00  0.00    +0.000 A 
ENDBRANCH   1  13
BRANCH   4  14
ATOM     14  C   UNL     1       2.345   4.858  20.626  0.00  0.00    +0.000 C 
BRANCH  14  15
ATOM     15  N   UNL     1       1.285   3.981  20.128  0.00  0.00    +0.000 NA
ATOM     16  H   UNL     1       0.865   4.432  19.314  0.00  0.00    +0.000 HD
BRANCH  15  17
ATOM     17  C   UNL     1       1.781   2.653  19.767  0.00  0.00    +0.000 C 
BRANCH  17  18
ATOM     18  C   UNL     1       2.188   2.668  18.286  0.00  0.00    +0.000 C 
BRANCH  18  19
ATOM     19  C   UNL     1       3.678   2.382  18.098  0.00  0.00    +0.000 C 
BRANCH  19  20
ATOM     20  S   UNL     1       4.407   3.627  16.977  0.00  0.00    +0.000 S 
BRANCH  20  21
ATOM     21  C   UNL     1       5.571   4.367  18.020  0.00  0.00    +0.000 A 
ATOM     22  N   UNL     1       5.660   4.246  19.322  0.00  0.00    +0.000 NA
ATOM     23  N   UNL     1       6.733   5.022  19.699  0.00  0.00    +0.000 NA
ATOM     24  N   UNL     1       7.291   5.608  18.648  0.00  0.00    +0.000 NA
ATOM     25  N   UNL     1       6.566   5.197  17.593  0.00  0.00    +0.000 N 
ATOM     26  C   UNL     1       6.898   5.645  16.267  0.00  0.00    +0.000 C 
ENDBRANCH  20  21
ENDBRANCH  19  20
ENDBRANCH  18  19
ENDBRANCH  17  18
ENDBRANCH  15  17
ENDBRANCH  14  15
ENDBRANCH   4  14
TORSDOF 8
ENDMDL
MODEL 6
REMARK VINA RESULT:      -7.0      1.057      1.769
REMARK  Name = 
REMARK  10 active torsions:
REMARK  status: ('A' for Active; 'I' for Inactive)
REMARK    1  A    between atoms: C_1  and  C_2
REMARK    2  A    between atoms: C_8  and  C_9
REMARK    3  A    between atoms: C_12  and  C_13
REMARK    4  A    between atoms: C_13  and  N_14
REMARK    5  A    between atoms: N_14  and  C_15
REMARK    6  A    between atoms: C_15  and  C_16
REMARK    7  A    between atoms: C_16  and  C_17
REMARK    8  A    between atoms: C_17  and  S_18
REMARK    9  A    between atoms: S_18  and  C_19
REMARK   10  A    between atoms: N_23  and  C_24
REMARK                            x       y       z     vdW  Elec       q    Type
REMARK                         _______ _______ _______ _____ _____    ______ ____
ROOT
ATOM      1  C   UNL     1       1.968   6.153  20.231  0.00  0.00    +0.000 A 
ATOM      2  C   UNL     1       1.354   4.951  20.538  0.00  0.00    +0.000 A 
ATOM      3  C   UNL     1       2.300   3.930  20.287  0.00  0.00    +0.000 A 
ATOM      4  C   UNL     1       3.433   4.556  19.814  0.00  0.00    +0.000 A 
ATOM      5  O   UNL     1       3.226   5.906  19.758  0.00  0.00    +0.000 OA
ENDROOT
BRANCH   1  13
ATOM      6  C   UNL     1       2.132   8.072  17.920  0.00  0.00    +0.000 C 
ATOM      7  C   UNL     1       1.651   8.499  19.284  0.00  0.00    +0.000 A 
ATOM      8  C   UNL     1       1.338   9.849  19.556  0.00  0.00    +0.000 A 
ATOM      9 CL   UNL     1       1.515  11.105  18.376  0.00  0.00    +0.000 Cl
ATOM     10  C   UNL     1       0.890  10.253  20.819  0.00  0.00    +0.000 A 
ATOM     11  C   UNL     1       0.731   9.320  21.832  0.00  0.00    +0.000 A 
ATOM     12  C   UNL     1       1.049   7.985  21.592  0.00  0.00    +0.000 A 
ATOM     13  C   UNL     1       1.530   7.552  20.337  0.00  0.00    +0.000 A 
ENDBRANCH   1  13
BRANCH   4  14
ATOM     14  C   UNL     1       4.765   4.052  19.376  0.00  0.00    +0.000 C 
BRANCH  14  15
ATOM     15  N   UNL     1       4.607   3.208  18.191  0.00  0.00    +0.000 NA
ATOM     16  H   UNL     1       4.007   2.423  18.445  0.00  0.00    +0.000 HD
BRANCH  15  17
ATOM     17  C   UNL     1       4.031   3.936  17.060  0.00  0.00    +0.000 C 
BRANCH  17  18
ATOM     18  C   UNL     1       4.650   5.340  17.014  0.00  0.00    +0.000 C 
BRANCH  18  19
ATOM     19  C   UNL     1       5.274   5.647  15.653  0.00  0.00    +0.000 C 
BRANCH  19  20
ATOM     20  S   UNL     1       6.986   5.011  15.602  0.00  0.00    +0.000 S 
BRANCH  20  21
ATOM     21  C   UNL     1       7.482   5.271  17.238  0.00  0.00    +0.000 A 
ATOM     22  N   UNL     1       7.775   4.359  18.132  0.00  0.00    +0.000 NA
ATOM     23  N   UNL     1       8.105   5.048  19.277  0.00  0.00    +0.000 NA
ATOM     24  N   UNL     1       8.014   6.358  19.088  0.00  0.00    +0.000 NA
ATOM     25  N   UNL     1       7.627   6.502  17.809  0.00  0.00    +0.000 N 
ATOM     26  C   UNL     1       7.428   7.813  17.254  0.00  0.00    +0.000 C 
ENDBRANCH  20  21
ENDBRANCH  19  20
ENDBRANCH  18  19
ENDBRANCH  17  18
ENDBRANCH  15  17
ENDBRANCH  14  15
ENDBRANCH   4  14
TORSDOF 8
ENDMDL
MODEL 7
REMARK VINA RESULT:      -7.0      5.289      7.894
REMARK  Name = 
REMARK  10 active torsions:
REMARK  status: ('A' for Active; 'I' for Inactive)
REMARK    1  A    between atoms: C_1  and  C_2
REMARK    2  A    between atoms: C_8  and  C_9
REMARK    3  A    between atoms: C_12  and  C_13
REMARK    4  A    between atoms: C_13  and  N_14
REMARK    5  A    between atoms: N_14  and  C_15
REMARK    6  A    between atoms: C_15  and  C_16
REMARK    7  A    between atoms: C_16  and  C_17
REMARK    8  A    between atoms: C_17  and  S_18
REMARK    9  A    between atoms: S_18  and  C_19
REMARK   10  A    between atoms: N_23  and  C_24
REMARK                            x       y       z     vdW  Elec       q    Type
REMARK                         _______ _______ _______ _____ _____    ______ ____
ROOT
ATOM      1  C   UNL     1       3.696   4.945  19.561  0.00  0.00    +0.000 A 
ATOM      2  C   UNL     1       3.031   3.946  20.249  0.00  0.00    +0.000 A 
ATOM      3  C   UNL     1       1.919   4.549  20.881  0.00  0.00    +0.000 A 
ATOM      4  C   UNL     1       1.976   5.891  20.571  0.00  0.00    +0.000 A 
ATOM      5  O   UNL     1       3.067   6.139  19.787  0.00  0.00    +0.000 OA
ENDROOT
BRANCH   1  13
ATOM      6  C   UNL     1       3.568   3.976  16.716  0.00  0.00    +0.000 C 
ATOM      7  C   UNL     1       4.859   4.429  17.352  0.00  0.00    +0.000 A 
ATOM      8  C   UNL     1       6.085   4.334  16.658  0.00  0.00    +0.000 A 
ATOM      9 CL   UNL     1       6.207   3.665  15.064  0.00  0.00    +0.000 Cl
ATOM     10  C   UNL     1       7.286   4.753  17.241  0.00  0.00    +0.000 A 
ATOM     11  C   UNL     1       7.290   5.289  18.520  0.00  0.00    +0.000 A 
ATOM     12  C   UNL     1       6.094   5.378  19.230  0.00  0.00    +0.000 A 
ATOM     13  C   UNL     1       4.871   4.937  18.679  0.00  0.00    +0.000 A 
ENDBRANCH   1  13
BRANCH   4  14
ATOM     14  C   UNL     1       1.110   7.052  20.920  0.00  0.00    +0.000 C 
BRANCH  14  15
ATOM     15  N   UNL     1       1.945   8.211  21.238  0.00  0.00    +0.000 NA
ATOM     16  H   UNL     1       2.070   8.749  20.379  0.00  0.00    +0.000 HD
BRANCH  15  17
ATOM     17  C   UNL     1       1.357   9.055  22.278  0.00  0.00    +0.000 C 
BRANCH  17  18
ATOM     18  C   UNL     1      -0.160   9.124  22.055  0.00  0.00    +0.000 C 
BRANCH  18  19
ATOM     19  C   UNL     1      -0.666  10.565  22.000  0.00  0.00    +0.000 C 
BRANCH  19  20
ATOM     20  S   UNL     1       0.177  11.463  20.651  0.00  0.00    +0.000 S 
BRANCH  20  21
ATOM     21  C   UNL     1      -0.763  10.966  19.287  0.00  0.00    +0.000 A 
ATOM     22  N   UNL     1      -2.013  11.266  19.033  0.00  0.00    +0.000 NA
ATOM     23  N   UNL     1      -2.317  10.637  17.847  0.00  0.00    +0.000 NA
ATOM     24  N   UNL     1      -1.273   9.964  17.383  0.00  0.00    +0.000 NA
ATOM     25  N   UNL     1      -0.295  10.170  18.282  0.00  0.00    +0.000 N 
ATOM     26  C   UNL     1       1.001   9.578  18.092  0.00  0.00    +0.000 C 
ENDBRANCH  20  21
ENDBRANCH  19  20
ENDBRANCH  18  19
ENDBRANCH  17  18
ENDBRANCH  15  17
ENDBRANCH  14  15
ENDBRANCH   4  14
TORSDOF 8
ENDMDL
MODEL 8
REMARK VINA RESULT:      -6.9      2.742      4.837
REMARK  Name = 
REMARK  10 active torsions:
REMARK  status: ('A' for Active; 'I' for Inactive)
REMARK    1  A    between atoms: C_1  and  C_2
REMARK    2  A    between atoms: C_8  and  C_9
REMARK    3  A    between atoms: C_12  and  C_13
REMARK    4  A    between atoms: C_13  and  N_14
REMARK    5  A    between atoms: N_14  and  C_15
REMARK    6  A    between atoms: C_15  and  C_16
REMARK    7  A    between atoms: C_16  and  C_17
REMARK    8  A    between atoms: C_17  and  S_18
REMARK    9  A    between atoms: S_18  and  C_19
REMARK   10  A    between atoms: N_23  and  C_24
REMARK                            x       y       z     vdW  Elec       q    Type
REMARK                         _______ _______ _______ _____ _____    ______ ____
ROOT
ATOM      1  C   UNL     1       1.145   9.651  19.099  0.00  0.00    +0.000 A 
ATOM      2  C   UNL     1       1.839   9.735  17.906  0.00  0.00    +0.000 A 
ATOM      3  C   UNL     1       2.468   8.484  17.706  0.00  0.00    +0.000 A 
ATOM      4  C   UNL     1       2.150   7.709  18.800  0.00  0.00    +0.000 A 
ATOM      5  O   UNL     1       1.364   8.423  19.660  0.00  0.00    +0.000 OA
ENDROOT
BRANCH   1  13
ATOM      6  C   UNL     1      -1.709  10.117  18.268  0.00  0.00    +0.000 C 
ATOM      7  C   UNL     1      -1.070  10.877  19.404  0.00  0.00    +0.000 A 
ATOM      8  C   UNL     1      -1.765  11.909  20.071  0.00  0.00    +0.000 A 
ATOM      9 CL   UNL     1      -3.366  12.400  19.622  0.00  0.00    +0.000 Cl
ATOM     10  C   UNL     1      -1.180  12.617  21.126  0.00  0.00    +0.000 A 
ATOM     11  C   UNL     1       0.103  12.305  21.548  0.00  0.00    +0.000 A 
ATOM     12  C   UNL     1       0.815  11.301  20.893  0.00  0.00    +0.000 A 
ATOM     13  C   UNL     1       0.262  10.588  19.807  0.00  0.00    +0.000 A 
ENDBRANCH   1  13
BRANCH   4  14
ATOM     14  C   UNL     1       2.492   6.312  19.190  0.00  0.00    +0.000 C 
BRANCH  14  15
ATOM     15  N   UNL     1       3.915   6.068  18.951  0.00  0.00    +0.000 NA
ATOM     16  H   UNL     1       4.230   5.376  19.631  0.00  0.00    +0.000 HD
BRANCH  15  17
ATOM     17  C   UNL     1       4.180   5.596  17.593  0.00  0.00    +0.000 C 
BRANCH  17  18
ATOM     18  C   UNL     1       4.492   4.094  17.647  0.00  0.00    +0.000 C 
BRANCH  18  19
ATOM     19  C   UNL     1       4.964   3.656  19.034  0.00  0.00    +0.000 C 
BRANCH  19  20
ATOM     20  S   UNL     1       4.272   2.012  19.430  0.00  0.00    +0.000 S 
BRANCH  20  21
ATOM     21  C   UNL     1       2.944   2.450  20.447  0.00  0.00    +0.000 A 
ATOM     22  N   UNL     1       2.953   2.577  21.751  0.00  0.00    +0.000 NA
ATOM     23  N   UNL     1       1.670   2.930  22.102  0.00  0.00    +0.000 NA
ATOM     24  N   UNL     1       0.889   3.016  21.034  0.00  0.00    +0.000 NA
ATOM     25  N   UNL     1       1.686   2.718  19.993  0.00  0.00    +0.000 N 
ATOM     26  C   UNL     1       1.161   2.716  18.655  0.00  0.00    +0.000 C 
ENDBRANCH  20  21
ENDBRANCH  19  20
ENDBRANCH  18  19
ENDBRANCH  17  18
ENDBRANCH  15  17
ENDBRANCH  14  15
ENDBRANCH   4  14
TORSDOF 8
ENDMDL
MODEL 9
REMARK VINA RESULT:      -6.9      3.615      5.251
REMARK  Name = 
REMARK  10 active torsions:
REMARK  status: ('A' for Active; 'I' for Inactive)
REMARK    1  A    between atoms: C_1  and  C_2
REMARK    2  A    between atoms: C_8  and  C_9
REMARK    3  A    between atoms: C_12  and  C_13
REMARK    4  A    between atoms: C_13  and  N_14
REMARK    5  A    between atoms: N_14  and  C_15
REMARK    6  A    between atoms: C_15  and  C_16
REMARK    7  A    between atoms: C_16  and  C_17
REMARK    8  A    between atoms: C_17  and  S_18
REMARK    9  A    between atoms: S_18  and  C_19
REMARK   10  A    between atoms: N_23  and  C_24
REMARK                            x       y       z     vdW  Elec       q    Type
REMARK                         _______ _______ _______ _____ _____    ______ ____
ROOT
ATOM      1  C   UNL     1      -0.946  11.387  18.419  0.00  0.00    +0.000 A 
ATOM      2  C   UNL     1       0.059  12.298  18.693  0.00  0.00    +0.000 A 
ATOM      3  C   UNL     1       1.243  11.554  18.908  0.00  0.00    +0.000 A 
ATOM      4  C   UNL     1       0.896  10.226  18.782  0.00  0.00    +0.000 A 
ATOM      5  O   UNL     1      -0.439  10.121  18.507  0.00  0.00    +0.000 OA
ENDROOT
BRANCH   1  13
ATOM      6  C   UNL     1      -2.987  12.468  20.347  0.00  0.00    +0.000 C 
ATOM      7  C   UNL     1      -3.361  11.992  18.965  0.00  0.00    +0.000 A 
ATOM      8  C   UNL     1      -4.711  11.953  18.550  0.00  0.00    +0.000 A 
ATOM      9 CL   UNL     1      -6.022  12.405  19.589  0.00  0.00    +0.000 Cl
ATOM     10  C   UNL     1      -5.066  11.514  17.270  0.00  0.00    +0.000 A 
ATOM     11  C   UNL     1      -4.086  11.118  16.372  0.00  0.00    +0.000 A 
ATOM     12  C   UNL     1      -2.749  11.132  16.767  0.00  0.00    +0.000 A 
ATOM     13  C   UNL     1      -2.362  11.543  18.060  0.00  0.00    +0.000 A 
ENDBRANCH   1  13
BRANCH   4  14
ATOM     14  C   UNL     1       1.671   8.958  18.888  0.00  0.00    +0.000 C 
BRANCH  14  15
ATOM     15  N   UNL     1       2.423   8.735  17.652  0.00  0.00    +0.000 NA
ATOM     16  H   UNL     1       3.080   9.509  17.544  0.00  0.00    +0.000 HD
BRANCH  15  17
ATOM     17  C   UNL     1       3.143   7.462  17.658  0.00  0.00    +0.000 C 
BRANCH  17  18
ATOM     18  C   UNL     1       2.657   6.629  18.853  0.00  0.00    +0.000 C 
BRANCH  18  19
ATOM     19  C   UNL     1       3.641   5.517  19.215  0.00  0.00    +0.000 C 
BRANCH  19  20
ATOM     20  S   UNL     1       4.015   4.518  17.731  0.00  0.00    +0.000 S 
BRANCH  20  21
ATOM     21  C   UNL     1       5.744   4.529  17.755  0.00  0.00    +0.000 A 
ATOM     22  N   UNL     1       6.523   4.659  18.801  0.00  0.00    +0.000 NA
ATOM     23  N   UNL     1       7.811   4.614  18.318  0.00  0.00    +0.000 NA
ATOM     24  N   UNL     1       7.822   4.460  17.001  0.00  0.00    +0.000 NA
ATOM     25  N   UNL     1       6.527   4.403  16.644  0.00  0.00    +0.000 N 
ATOM     26  C   UNL     1       6.162   4.235  15.264  0.00  0.00    +0.000 C 
ENDBRANCH  20  21
ENDBRANCH  19  20
ENDBRANCH  18  19
ENDBRANCH  17  18
ENDBRANCH  15  17
ENDBRANCH  14  15
ENDBRANCH   4  14
TORSDOF 8
ENDMDL
