MODEL 1
REMARK VINA RESULT:      -8.0      0.000      0.000
REMARK  Name = 
REMARK  11 active torsions:
REMARK  status: ('A' for Active; 'I' for Inactive)
REMARK    1  A    between atoms: C_1  and  C_2
REMARK    2  A    between atoms: C_4  and  C_5
REMARK    3  A    between atoms: C_5  and  C_6
REMARK    4  A    between atoms: C_6  and  C_7
REMARK    5  A    between atoms: C_7  and  O_9
REMARK    6  A    between atoms: C_12  and  C_13
REMARK    7  A    between atoms: C_16  and  C_17
REMARK    8  A    between atoms: C_20  and  C_21
REMARK    9  A    between atoms: C_21  and  C_22
REMARK   10  A    between atoms: C_22  and  C_23
REMARK   11  A    between atoms: C_22  and  C_24
REMARK                            x       y       z     vdW  Elec       q    Type
REMARK                         _______ _______ _______ _____ _____    ______ ____
ROOT
ATOM      1  C   UNL     1       2.746   6.470  19.084  0.00  0.00    +0.000 A 
ATOM      2  N   UNL     1       2.298   5.674  20.069  0.00  0.00    +0.000 NA
ATOM      3  O   UNL     1       1.553   6.529  20.878  0.00  0.00    +0.000 OA
ATOM      4  C   UNL     1       1.633   7.765  20.308  0.00  0.00    +0.000 A 
ATOM      5  N   UNL     1       2.359   7.784  19.215  0.00  0.00    +0.000 NA
ENDROOT
BRANCH   1  12
ATOM      6  C   UNL     1       2.661   3.656  17.962  0.00  0.00    +0.000 C 
ATOM      7  C   UNL     1       3.568   4.738  17.436  0.00  0.00    +0.000 A 
ATOM      8  C   UNL     1       4.423   4.423  16.362  0.00  0.00    +0.000 A 
ATOM      9  C   UNL     1       5.268   5.382  15.784  0.00  0.00    +0.000 A 
ATOM     10  C   UNL     1       5.269   6.676  16.307  0.00  0.00    +0.000 A 
ATOM     11  C   UNL     1       4.440   7.000  17.383  0.00  0.00    +0.000 A 
ATOM     12  C   UNL     1       3.586   6.043  17.966  0.00  0.00    +0.000 A 
BRANCH   9  13
ATOM     13  C   UNL     1       6.178   5.015  14.637  0.00  0.00    +0.000 C 
BRANCH  13  14
ATOM     14  C   UNL     1       5.834   3.656  14.026  0.00  0.00    +0.000 C 
BRANCH  14  15
ATOM     15  C   UNL     1       6.098   3.644  12.542  0.00  0.00    +0.000 C 
ATOM     16  O   UNL     1       7.144   3.973  12.006  0.00  0.00    +0.000 OA
BRANCH  15  17
ATOM     17  O   UNL     1       5.028   3.212  11.834  0.00  0.00    +0.000 OA
ATOM     18  H   UNL     1       4.967   2.241  11.762  0.00  0.00    +0.000 HD
ENDBRANCH  15  17
ENDBRANCH  14  15
ENDBRANCH  13  14
ENDBRANCH   9  13
ENDBRANCH   1  12
BRANCH   4  19
ATOM     19  C   UNL     1       0.935   8.857  20.952  0.00  0.00    +0.000 A 
ATOM     20  C   UNL     1       0.146   9.716  20.184  0.00  0.00    +0.000 A 
ATOM     21  C   UNL     1      -0.526  10.775  20.785  0.00  0.00    +0.000 A 
ATOM     22  C   UNL     1      -0.410  10.945  22.160  0.00  0.00    +0.000 A 
ATOM     23  N   UNL     1       0.349  10.127  22.931  0.00  0.00    +0.000 NA
ATOM     24  C   UNL     1       1.003   9.112  22.314  0.00  0.00    +0.000 A 
BRANCH  22  25
ATOM     25  C   UNL     1      -1.145  12.062  22.861  0.00  0.00    +0.000 C 
BRANCH  25  26
ATOM     26  C   UNL     1      -2.283  12.687  22.028  0.00  0.00    +0.000 C 
ATOM     27  C   UNL     1      -3.647  12.542  22.706  0.00  0.00    +0.000 C 
ATOM     28  C   UNL     1      -1.985  14.166  21.777  0.00  0.00    +0.000 C 
ENDBRANCH  25  26
ENDBRANCH  22  25
ENDBRANCH   4  19
TORSDOF 8
ENDMDL
MODEL 2
REMARK VINA RESULT:      -8.0      1.138      1.500
REMARK  Name = 
REMARK  11 active torsions:
REMARK  status: ('A' for Active; 'I' for Inactive)
REMARK    1  A    between atoms: C_1  and  C_2
REMARK    2  A    between atoms: C_4  and  C_5
REMARK    3  A    between atoms: C_5  and  C_6
REMARK    4  A    between atoms: C_6  and  C_7
REMARK    5  A    between atoms: C_7  and  O_9
REMARK    6  A    between atoms: C_12  and  C_13
REMARK    7  A    between atoms: C_16  and  C_17
REMARK    8  A    between atoms: C_20  and  C_21
REMARK    9  A    between atoms: C_21  and  C_22
REMARK   10  A    between atoms: C_22  and  C_23
REMARK   11  A    between atoms: C_22  and  C_24
REMARK                            x       y       z     vdW  Elec       q    Type
REMARK                         _______ _______ _______ _____ _____    ______ ____
ROOT
ATOM      1  C   UNL     1       2.723   6.103  19.434  0.00  0.00    +0.000 A 
ATOM      2  N   UNL     1       2.156   5.458  20.468  0.00  0.00    +0.000 NA
ATOM      3  O   UNL     1       1.439   6.453  21.129  0.00  0.00    +0.000 OA
ATOM      4  C   UNL     1       1.651   7.607  20.435  0.00  0.00    +0.000 A 
ATOM      5  N   UNL     1       2.437   7.449  19.397  0.00  0.00    +0.000 NA
ENDROOT
BRANCH   1  12
ATOM      6  C   UNL     1       1.857   3.722  17.771  0.00  0.00    +0.000 C 
ATOM      7  C   UNL     1       3.206   4.378  17.649  0.00  0.00    +0.000 A 
ATOM      8  C   UNL     1       4.116   3.856  16.709  0.00  0.00    +0.000 A 
ATOM      9  C   UNL     1       5.377   4.434  16.502  0.00  0.00    +0.000 A 
ATOM     10  C   UNL     1       5.740   5.543  17.266  0.00  0.00    +0.000 A 
ATOM     11  C   UNL     1       4.856   6.063  18.214  0.00  0.00    +0.000 A 
ATOM     12  C   UNL     1       3.587   5.490  18.426  0.00  0.00    +0.000 A 
BRANCH   9  13
ATOM     13  C   UNL     1       6.334   3.850  15.490  0.00  0.00    +0.000 C 
BRANCH  13  14
ATOM     14  C   UNL     1       5.946   4.189  14.051  0.00  0.00    +0.000 C 
BRANCH  14  15
ATOM     15  C   UNL     1       7.125   4.731  13.283  0.00  0.00    +0.000 C 
ATOM     16  O   UNL     1       7.360   4.519  12.104  0.00  0.00    +0.000 OA
BRANCH  15  17
ATOM     17  O   UNL     1       7.923   5.511  14.050  0.00  0.00    +0.000 OA
ATOM     18  H   UNL     1       8.532   6.078  13.539  0.00  0.00    +0.000 HD
ENDBRANCH  15  17
ENDBRANCH  14  15
ENDBRANCH  13  14
ENDBRANCH   9  13
ENDBRANCH   1  12
BRANCH   4  19
ATOM     19  C   UNL     1       1.009   8.814  20.910  0.00  0.00    +0.000 A 
ATOM     20  C   UNL     1       0.595   8.895  22.241  0.00  0.00    +0.000 A 
ATOM     21  C   UNL     1      -0.029  10.044  22.712  0.00  0.00    +0.000 A 
ATOM     22  C   UNL     1      -0.211  11.112  21.840  0.00  0.00    +0.000 A 
ATOM     23  N   UNL     1       0.182  11.062  20.542  0.00  0.00    +0.000 NA
ATOM     24  C   UNL     1       0.774   9.923  20.108  0.00  0.00    +0.000 A 
BRANCH  22  25
ATOM     25  C   UNL     1      -0.855  12.391  22.314  0.00  0.00    +0.000 C 
BRANCH  25  26
ATOM     26  C   UNL     1      -2.388  12.308  22.460  0.00  0.00    +0.000 C 
ATOM     27  C   UNL     1      -2.914  13.196  23.590  0.00  0.00    +0.000 C 
ATOM     28  C   UNL     1      -3.053  12.703  21.140  0.00  0.00    +0.000 C 
ENDBRANCH  25  26
ENDBRANCH  22  25
ENDBRANCH   4  19
TORSDOF 8
ENDMDL
MODEL 3
REMARK VINA RESULT:      -7.9      1.012      1.498
REMARK  Name = 
REMARK  11 active torsions:
REMARK  status: ('A' for Active; 'I' for Inactive)
REMARK    1  A    between atoms: C_1  and  C_2
REMARK    2  A    between atoms: C_4  and  C_5
REMARK    3  A    between atoms: C_5  and  C_6
REMARK    4  A    between atoms: C_6  and  C_7
REMARK    5  A    between atoms: C_7  and  O_9
REMARK    6  A    between atoms: C_12  and  C_13
REMARK    7  A    between atoms: C_16  and  C_17
REMARK    8  A    between atoms: C_20  and  C_21
REMARK    9  A    between atoms: C_21  and  C_22
REMARK   10  A    between atoms: C_22  and  C_23
REMARK   11  A    between atoms: C_22  and  C_24
REMARK                            x       y       z     vdW  Elec       q    Type
REMARK                         _______ _______ _______ _____ _____    ______ ____
ROOT
ATOM      1  C   UNL     1       2.943   6.364  18.914  0.00  0.00    +0.000 A 
ATOM      2  N   UNL     1       2.682   5.820  20.115  0.00  0.00    +0.000 NA
ATOM      3  O   UNL     1       1.893   6.776  20.751  0.00  0.00    +0.000 OA
ATOM      4  C   UNL     1       1.763   7.812  19.875  0.00  0.00    +0.000 A 
ATOM      5  N   UNL     1       2.394   7.615  18.742  0.00  0.00    +0.000 NA
ENDROOT
BRANCH   1  12
ATOM      6  C   UNL     1       2.496   3.514  17.988  0.00  0.00    +0.000 C 
ATOM      7  C   UNL     1       3.558   4.418  17.422  0.00  0.00    +0.000 A 
ATOM      8  C   UNL     1       4.390   3.911  16.405  0.00  0.00    +0.000 A 
ATOM      9  C   UNL     1       5.375   4.700  15.793  0.00  0.00    +0.000 A 
ATOM     10  C   UNL     1       5.543   6.016  16.225  0.00  0.00    +0.000 A 
ATOM     11  C   UNL     1       4.738   6.529  17.245  0.00  0.00    +0.000 A 
ATOM     12  C   UNL     1       3.744   5.744  17.861  0.00  0.00    +0.000 A 
BRANCH   9  13
ATOM     13  C   UNL     1       6.255   4.128  14.709  0.00  0.00    +0.000 C 
BRANCH  13  14
ATOM     14  C   UNL     1       5.511   3.939  13.387  0.00  0.00    +0.000 C 
BRANCH  14  15
ATOM     15  C   UNL     1       6.444   3.473  12.298  0.00  0.00    +0.000 C 
ATOM     16  O   UNL     1       6.421   2.374  11.768  0.00  0.00    +0.000 OA
BRANCH  15  17
ATOM     17  O   UNL     1       7.339   4.427  11.946  0.00  0.00    +0.000 OA
ATOM     18  H   UNL     1       7.072   4.952  11.167  0.00  0.00    +0.000 HD
ENDBRANCH  15  17
ENDBRANCH  14  15
ENDBRANCH  13  14
ENDBRANCH   9  13
ENDBRANCH   1  12
BRANCH   4  19
ATOM     19  C   UNL     1       0.976   8.956  20.286  0.00  0.00    +0.000 A 
ATOM     20  C   UNL     1       0.549   9.056  21.612  0.00  0.00    +0.000 A 
ATOM     21  C   UNL     1      -0.212  10.145  22.022  0.00  0.00    +0.000 A 
ATOM     22  C   UNL     1      -0.520  11.133  21.094  0.00  0.00    +0.000 A 
ATOM     23  N   UNL     1      -0.119  11.063  19.800  0.00  0.00    +0.000 NA
ATOM     24  C   UNL     1       0.610   9.983  19.426  0.00  0.00    +0.000 A 
BRANCH  22  25
ATOM     25  C   UNL     1      -1.318  12.348  21.500  0.00  0.00    +0.000 C 
BRANCH  25  26
ATOM     26  C   UNL     1      -1.525  12.485  23.022  0.00  0.00    +0.000 C 
ATOM     27  C   UNL     1      -1.163  13.881  23.535  0.00  0.00    +0.000 C 
ATOM     28  C   UNL     1      -2.978  12.166  23.377  0.00  0.00    +0.000 C 
ENDBRANCH  25  26
ENDBRANCH  22  25
ENDBRANCH   4  19
TORSDOF 8
ENDMDL
MODEL 4
REMARK VINA RESULT:      -7.7      2.111      2.872
REMARK  Name = 
REMARK  11 active torsions:
REMARK  status: ('A' for Active; 'I' for Inactive)
REMARK    1  A    between atoms: C_1  and  C_2
REMARK    2  A    between atoms: C_4  and  C_5
REMARK    3  A    between atoms: C_5  and  C_6
REMARK    4  A    between atoms: C_6  and  C_7
REMARK    5  A    between atoms: C_7  and  O_9
REMARK    6  A    between atoms: C_12  and  C_13
REMARK    7  A    between atoms: C_16  and  C_17
REMARK    8  A    between atoms: C_20  and  C_21
REMARK    9  A    between atoms: C_21  and  C_22
REMARK   10  A    between atoms: C_22  and  C_23
REMARK   11  A    between atoms: C_22  and  C_24
REMARK                            x       y       z     vdW  Elec       q    Type
REMARK                         _______ _______ _______ _____ _____    ______ ____
ROOT
ATOM      1  C   UNL     1       1.781   8.603  18.811  0.00  0.00    +0.000 A 
ATOM      2  N   UNL     1       1.336   9.443  17.862  0.00  0.00    +0.000 NA
ATOM      3  O   UNL     1       0.549  10.354  18.563  0.00  0.00    +0.000 OA
ATOM      4  C   UNL     1       0.586   9.968  19.870  0.00  0.00    +0.000 A 
ATOM      5  N   UNL     1       1.316   8.897  20.073  0.00  0.00    +0.000 NA
ENDROOT
BRANCH   1  12
ATOM      6  C   UNL     1       1.675   6.104  20.522  0.00  0.00    +0.000 C 
ATOM      7  C   UNL     1       2.631   6.289  19.373  0.00  0.00    +0.000 A 
ATOM      8  C   UNL     1       3.524   5.240  19.077  0.00  0.00    +0.000 A 
ATOM      9  C   UNL     1       4.416   5.313  17.997  0.00  0.00    +0.000 A 
ATOM     10  C   UNL     1       4.427   6.467  17.213  0.00  0.00    +0.000 A 
ATOM     11  C   UNL     1       3.560   7.523  17.504  0.00  0.00    +0.000 A 
ATOM     12  C   UNL     1       2.658   7.456  18.584  0.00  0.00    +0.000 A 
BRANCH   9  13
ATOM     13  C   UNL     1       5.366   4.177  17.706  0.00  0.00    +0.000 C 
BRANCH  13  14
ATOM     14  C   UNL     1       5.770   4.110  16.233  0.00  0.00    +0.000 C 
BRANCH  14  15
ATOM     15  C   UNL     1       7.201   4.544  16.041  0.00  0.00    +0.000 C 
ATOM     16  O   UNL     1       7.627   5.176  15.088  0.00  0.00    +0.000 OA
BRANCH  15  17
ATOM     17  O   UNL     1       7.997   4.158  17.066  0.00  0.00    +0.000 OA
ATOM     18  H   UNL     1       7.634   3.420  17.592  0.00  0.00    +0.000 HD
ENDBRANCH  15  17
ENDBRANCH  14  15
ENDBRANCH  13  14
ENDBRANCH   9  13
ENDBRANCH   1  12
BRANCH   4  19
ATOM     19  C   UNL     1      -0.156  10.755  20.832  0.00  0.00    +0.000 A 
ATOM     20  C   UNL     1      -0.771  11.940  20.424  0.00  0.00    +0.000 A 
ATOM     21  C   UNL     1      -1.481  12.711  21.337  0.00  0.00    +0.000 A 
ATOM     22  C   UNL     1      -1.581  12.269  22.651  0.00  0.00    +0.000 A 
ATOM     23  N   UNL     1      -0.994  11.122  23.076  0.00  0.00    +0.000 NA
ATOM     24  C   UNL     1      -0.296  10.399  22.167  0.00  0.00    +0.000 A 
BRANCH  22  25
ATOM     25  C   UNL     1      -2.367  13.058  23.670  0.00  0.00    +0.000 C 
BRANCH  25  26
ATOM     26  C   UNL     1      -3.890  12.828  23.605  0.00  0.00    +0.000 C 
ATOM     27  C   UNL     1      -4.475  12.419  24.959  0.00  0.00    +0.000 C 
ATOM     28  C   UNL     1      -4.582  14.097  23.106  0.00  0.00    +0.000 C 
ENDBRANCH  25  26
ENDBRANCH  22  25
ENDBRANCH   4  19
TORSDOF 8
ENDMDL
MODEL 5
REMARK VINA RESULT:      -7.7      0.714      1.017
REMARK  Name = 
REMARK  11 active torsions:
REMARK  status: ('A' for Active; 'I' for Inactive)
REMARK    1  A    between atoms: C_1  and  C_2
REMARK    2  A    between atoms: C_4  and  C_5
REMARK    3  A    between atoms: C_5  and  C_6
REMARK    4  A    between atoms: C_6  and  C_7
REMARK    5  A    between atoms: C_7  and  O_9
REMARK    6  A    between atoms: C_12  and  C_13
REMARK    7  A    between atoms: C_16  and  C_17
REMARK    8  A    between atoms: C_20  and  C_21
REMARK    9  A    between atoms: C_21  and  C_22
REMARK   10  A    between atoms: C_22  and  C_23
REMARK   11  A    between atoms: C_22  and  C_24
REMARK                            x       y       z     vdW  Elec       q    Type
REMARK                         _______ _______ _______ _____ _____    ______ ____
ROOT
ATOM      1  C   UNL     1       2.849   6.693  18.856  0.00  0.00    +0.000 A 
ATOM      2  N   UNL     1       2.468   6.065  19.981  0.00  0.00    +0.000 NA
ATOM      3  O   UNL     1       1.666   7.000  20.632  0.00  0.00    +0.000 OA
ATOM      4  C   UNL     1       1.650   8.110  19.840  0.00  0.00    +0.000 A 
ATOM      5  N   UNL     1       2.366   7.977  18.749  0.00  0.00    +0.000 NA
ENDROOT
BRANCH   1  12
ATOM      6  C   UNL     1       2.689   3.788  18.009  0.00  0.00    +0.000 C 
ATOM      7  C   UNL     1       3.659   4.777  17.419  0.00  0.00    +0.000 A 
ATOM      8  C   UNL     1       4.540   4.326  16.417  0.00  0.00    +0.000 A 
ATOM      9  C   UNL     1       5.445   5.191  15.784  0.00  0.00    +0.000 A 
ATOM     10  C   UNL     1       5.481   6.529  16.180  0.00  0.00    +0.000 A 
ATOM     11  C   UNL     1       4.626   6.988  17.184  0.00  0.00    +0.000 A 
ATOM     12  C   UNL     1       3.712   6.127  17.820  0.00  0.00    +0.000 A 
BRANCH   9  13
ATOM     13  C   UNL     1       6.381   4.679  14.717  0.00  0.00    +0.000 C 
BRANCH  13  14
ATOM     14  C   UNL     1       5.805   3.485  13.954  0.00  0.00    +0.000 C 
BRANCH  14  15
ATOM     15  C   UNL     1       6.088   3.595  12.477  0.00  0.00    +0.000 C 
ATOM     16  O   UNL     1       7.126   4.004  11.984  0.00  0.00    +0.000 OA
BRANCH  15  17
ATOM     17  O   UNL     1       5.045   3.173  11.722  0.00  0.00    +0.000 OA
ATOM     18  H   UNL     1       5.308   2.780  10.869  0.00  0.00    +0.000 HD
ENDBRANCH  15  17
ENDBRANCH  14  15
ENDBRANCH  13  14
ENDBRANCH   9  13
ENDBRANCH   1  12
BRANCH   4  19
ATOM     19  C   UNL     1       0.876   9.250  20.283  0.00  0.00    +0.000 A 
ATOM     20  C   UNL     1       0.103   9.958  19.360  0.00  0.00    +0.000 A 
ATOM     21  C   UNL     1      -0.640  11.059  19.768  0.00  0.00    +0.000 A 
ATOM     22  C   UNL     1      -0.613  11.426  21.109  0.00  0.00    +0.000 A 
ATOM     23  N   UNL     1       0.128  10.757  22.028  0.00  0.00    +0.000 NA
ATOM     24  C   UNL     1       0.854   9.696  21.598  0.00  0.00    +0.000 A 
BRANCH  22  25
ATOM     25  C   UNL     1      -1.428  12.596  21.602  0.00  0.00    +0.000 C 
BRANCH  25  26
ATOM     26  C   UNL     1      -1.597  12.644  23.134  0.00  0.00    +0.000 C 
ATOM     27  C   UNL     1      -1.309  14.033  23.708  0.00  0.00    +0.000 C 
ATOM     28  C   UNL     1      -3.015  12.214  23.511  0.00  0.00    +0.000 C 
ENDBRANCH  25  26
ENDBRANCH  22  25
ENDBRANCH   4  19
TORSDOF 8
ENDMDL
MODEL 6
REMARK VINA RESULT:      -7.7      1.479      1.910
REMARK  Name = 
REMARK  11 active torsions:
REMARK  status: ('A' for Active; 'I' for Inactive)
REMARK    1  A    between atoms: C_1  and  C_2
REMARK    2  A    between atoms: C_4  and  C_5
REMARK    3  A    between atoms: C_5  and  C_6
REMARK    4  A    between atoms: C_6  and  C_7
REMARK    5  A    between atoms: C_7  and  O_9
REMARK    6  A    between atoms: C_12  and  C_13
REMARK    7  A    between atoms: C_16  and  C_17
REMARK    8  A    between atoms: C_20  and  C_21
REMARK    9  A    between atoms: C_21  and  C_22
REMARK   10  A    between atoms: C_22  and  C_23
REMARK   11  A    between atoms: C_22  and  C_24
REMARK                            x       y       z     vdW  Elec       q    Type
REMARK                         _______ _______ _______ _____ _____    ______ ____
ROOT
ATOM      1  C   UNL     1       2.675   6.847  18.929  0.00  0.00    +0.000 A 
ATOM      2  N   UNL     1       2.371   6.543  20.203  0.00  0.00    +0.000 NA
ATOM      3  O   UNL     1       1.569   7.604  20.617  0.00  0.00    +0.000 OA
ATOM      4  C   UNL     1       1.474   8.453  19.555  0.00  0.00    +0.000 A 
ATOM      5  N   UNL     1       2.141   8.041  18.503  0.00  0.00    +0.000 NA
ENDROOT
BRANCH   1  12
ATOM      6  C   UNL     1       1.844   4.091  17.981  0.00  0.00    +0.000 C 
ATOM      7  C   UNL     1       3.142   4.750  17.596  0.00  0.00    +0.000 A 
ATOM      8  C   UNL     1       4.018   4.045  16.747  0.00  0.00    +0.000 A 
ATOM      9  C   UNL     1       5.227   4.603  16.306  0.00  0.00    +0.000 A 
ATOM     10  C   UNL     1       5.573   5.883  16.741  0.00  0.00    +0.000 A 
ATOM     11  C   UNL     1       4.724   6.588  17.597  0.00  0.00    +0.000 A 
ATOM     12  C   UNL     1       3.507   6.036  18.041  0.00  0.00    +0.000 A 
BRANCH   9  13
ATOM     13  C   UNL     1       6.149   3.823  15.401  0.00  0.00    +0.000 C 
BRANCH  13  14
ATOM     14  C   UNL     1       5.847   4.049  13.919  0.00  0.00    +0.000 C 
BRANCH  14  15
ATOM     15  C   UNL     1       7.049   4.604  13.197  0.00  0.00    +0.000 C 
ATOM     16  O   UNL     1       7.343   4.377  12.034  0.00  0.00    +0.000 OA
BRANCH  15  17
ATOM     17  O   UNL     1       7.795   5.412  13.986  0.00  0.00    +0.000 OA
ATOM     18  H   UNL     1       7.278   6.095  14.454  0.00  0.00    +0.000 HD
ENDBRANCH  15  17
ENDBRANCH  14  15
ENDBRANCH  13  14
ENDBRANCH   9  13
ENDBRANCH   1  12
BRANCH   4  19
ATOM     19  C   UNL     1       0.683   9.655  19.713  0.00  0.00    +0.000 A 
ATOM     20  C   UNL     1       0.546  10.226  20.980  0.00  0.00    +0.000 A 
ATOM     21  C   UNL     1      -0.216  11.376  21.150  0.00  0.00    +0.000 A 
ATOM     22  C   UNL     1      -0.818  11.951  20.036  0.00  0.00    +0.000 A 
ATOM     23  N   UNL     1      -0.702  11.418  18.794  0.00  0.00    +0.000 NA
ATOM     24  C   UNL     1       0.035  10.289  18.661  0.00  0.00    +0.000 A 
BRANCH  22  25
ATOM     25  C   UNL     1      -1.629  13.217  20.168  0.00  0.00    +0.000 C 
BRANCH  25  26
ATOM     26  C   UNL     1      -2.922  13.053  20.992  0.00  0.00    +0.000 C 
ATOM     27  C   UNL     1      -3.282  14.322  21.768  0.00  0.00    +0.000 C 
ATOM     28  C   UNL     1      -4.078  12.669  20.066  0.00  0.00    +0.000 C 
ENDBRANCH  25  26
ENDBRANCH  22  25
ENDBRANCH   4  19
TORSDOF 8
ENDMDL
MODEL 7
REMARK VINA RESULT:      -7.7      1.303      1.485
REMARK  Name = 
REMARK  11 active torsions:
REMARK  status: ('A' for Active; 'I' for Inactive)
REMARK    1  A    between atoms: C_1  and  C_2
REMARK    2  A    between atoms: C_4  and  C_5
REMARK    3  A    between atoms: C_5  and  C_6
REMARK    4  A    between atoms: C_6  and  C_7
REMARK    5  A    between atoms: C_7  and  O_9
REMARK    6  A    between atoms: C_12  and  C_13
REMARK    7  A    between atoms: C_16  and  C_17
REMARK    8  A    between atoms: C_20  and  C_21
REMARK    9  A    between atoms: C_21  and  C_22
REMARK   10  A    between atoms: C_22  and  C_23
REMARK   11  A    between atoms: C_22  and  C_24
REMARK                            x       y       z     vdW  Elec       q    Type
REMARK                         _______ _______ _______ _____ _____    ______ ____
ROOT
ATOM      1  C   UNL     1       2.773   7.041  18.656  0.00  0.00    +0.000 A 
ATOM      2  N   UNL     1       2.583   6.721  19.947  0.00  0.00    +0.000 NA
ATOM      3  O   UNL     1       1.754   7.734  20.424  0.00  0.00    +0.000 OA
ATOM      4  C   UNL     1       1.531   8.575  19.375  0.00  0.00    +0.000 A 
ATOM      5  N   UNL     1       2.141   8.203  18.274  0.00  0.00    +0.000 NA
ENDROOT
BRANCH   1  12
ATOM      6  C   UNL     1       2.406   4.065  18.219  0.00  0.00    +0.000 C 
ATOM      7  C   UNL     1       3.432   4.895  17.494  0.00  0.00    +0.000 A 
ATOM      8  C   UNL     1       4.268   4.250  16.560  0.00  0.00    +0.000 A 
ATOM      9  C   UNL     1       5.220   4.956  15.811  0.00  0.00    +0.000 A 
ATOM     10  C   UNL     1       5.352   6.330  16.018  0.00  0.00    +0.000 A 
ATOM     11  C   UNL     1       4.543   6.980  16.952  0.00  0.00    +0.000 A 
ATOM     12  C   UNL     1       3.582   6.280  17.705  0.00  0.00    +0.000 A 
BRANCH   9  13
ATOM     13  C   UNL     1       6.105   4.239  14.821  0.00  0.00    +0.000 C 
BRANCH  13  14
ATOM     14  C   UNL     1       5.402   3.972  13.490  0.00  0.00    +0.000 C 
BRANCH  14  15
ATOM     15  C   UNL     1       6.378   3.493  12.445  0.00  0.00    +0.000 C 
ATOM     16  O   UNL     1       7.274   4.160  11.954  0.00  0.00    +0.000 OA
BRANCH  15  17
ATOM     17  O   UNL     1       6.163   2.202  12.095  0.00  0.00    +0.000 OA
ATOM     18  H   UNL     1       6.918   1.785  11.639  0.00  0.00    +0.000 HD
ENDBRANCH  15  17
ENDBRANCH  14  15
ENDBRANCH  13  14
ENDBRANCH   9  13
ENDBRANCH   1  12
BRANCH   4  19
ATOM     19  C   UNL     1       0.685   9.729  19.596  0.00  0.00    +0.000 A 
ATOM     20  C   UNL     1      -0.412   9.948  18.759  0.00  0.00    +0.000 A 
ATOM     21  C   UNL     1      -1.230  11.054  18.953  0.00  0.00    +0.000 A 
ATOM     22  C   UNL     1      -0.946  11.921  20.003  0.00  0.00    +0.000 A 
ATOM     23  N   UNL     1       0.112  11.734  20.831  0.00  0.00    +0.000 NA
ATOM     24  C   UNL     1       0.901  10.654  20.608  0.00  0.00    +0.000 A 
BRANCH  22  25
ATOM     25  C   UNL     1      -1.825  13.118  20.270  0.00  0.00    +0.000 C 
BRANCH  25  26
ATOM     26  C   UNL     1      -3.093  12.799  21.086  0.00  0.00    +0.000 C 
ATOM     27  C   UNL     1      -3.277  13.748  22.272  0.00  0.00    +0.000 C 
ATOM     28  C   UNL     1      -4.322  12.866  20.177  0.00  0.00    +0.000 C 
ENDBRANCH  25  26
ENDBRANCH  22  25
ENDBRANCH   4  19
TORSDOF 8
ENDMDL
MODEL 8
REMARK VINA RESULT:      -7.7      4.239     11.288
REMARK  Name = 
REMARK  11 active torsions:
REMARK  status: ('A' for Active; 'I' for Inactive)
REMARK    1  A    between atoms: C_1  and  C_2
REMARK    2  A    between atoms: C_4  and  C_5
REMARK    3  A    between atoms: C_5  and  C_6
REMARK    4  A    between atoms: C_6  and  C_7
REMARK    5  A    between atoms: C_7  and  O_9
REMARK    6  A    between atoms: C_12  and  C_13
REMARK    7  A    between atoms: C_16  and  C_17
REMARK    8  A    between atoms: C_20  and  C_21
REMARK    9  A    between atoms: C_21  and  C_22
REMARK   10  A    between atoms: C_22  and  C_23
REMARK   11  A    between atoms: C_22  and  C_24
REMARK                            x       y       z     vdW  Elec       q    Type
REMARK                         _______ _______ _______ _____ _____    ______ ____
ROOT
ATOM      1  C   UNL     1      -0.953  11.603  21.658  0.00  0.00    +0.000 A 
ATOM      2  N   UNL     1       0.237  12.182  21.890  0.00  0.00    +0.000 NA
ATOM      3  O   UNL     1       1.148  11.339  21.256  0.00  0.00    +0.000 OA
ATOM      4  C   UNL     1       0.419  10.325  20.710  0.00  0.00    +0.000 A 
ATOM      5  N   UNL     1      -0.869  10.434  20.937  0.00  0.00    +0.000 NA
ENDROOT
BRANCH   1  12
ATOM      6  C   UNL     1      -2.981  12.857  19.787  0.00  0.00    +0.000 C 
ATOM      7  C   UNL     1      -3.197  12.702  21.269  0.00  0.00    +0.000 A 
ATOM      8  C   UNL     1      -4.410  13.165  21.815  0.00  0.00    +0.000 A 
ATOM      9  C   UNL     1      -4.709  13.021  23.178  0.00  0.00    +0.000 A 
ATOM     10  C   UNL     1      -3.766  12.420  24.012  0.00  0.00    +0.000 A 
ATOM     11  C   UNL     1      -2.551  11.970  23.489  0.00  0.00    +0.000 A 
ATOM     12  C   UNL     1      -2.245  12.108  22.121  0.00  0.00    +0.000 A 
BRANCH   9  13
ATOM     13  C   UNL     1      -6.015  13.532  23.737  0.00  0.00    +0.000 C 
BRANCH  13  14
ATOM     14  C   UNL     1      -7.205  13.220  22.828  0.00  0.00    +0.000 C 
BRANCH  14  15
ATOM     15  C   UNL     1      -7.552  11.754  22.869  0.00  0.00    +0.000 C 
ATOM     16  O   UNL     1      -7.839  11.122  23.873  0.00  0.00    +0.000 OA
BRANCH  15  17
ATOM     17  O   UNL     1      -7.522  11.184  21.640  0.00  0.00    +0.000 OA
ATOM     18  H   UNL     1      -8.396  11.123  21.211  0.00  0.00    +0.000 HD
ENDBRANCH  15  17
ENDBRANCH  14  15
ENDBRANCH  13  14
ENDBRANCH   9  13
ENDBRANCH   1  12
BRANCH   4  19
ATOM     19  C   UNL     1       1.126   9.296  19.978  0.00  0.00    +0.000 A 
ATOM     20  C   UNL     1       1.402   9.483  18.622  0.00  0.00    +0.000 A 
ATOM     21  C   UNL     1       2.075   8.502  17.903  0.00  0.00    +0.000 A 
ATOM     22  C   UNL     1       2.481   7.347  18.564  0.00  0.00    +0.000 A 
ATOM     23  N   UNL     1       2.227   7.139  19.881  0.00  0.00    +0.000 NA
ATOM     24  C   UNL     1       1.557   8.107  20.552  0.00  0.00    +0.000 A 
BRANCH  22  25
ATOM     25  C   UNL     1       3.240   6.269  17.832  0.00  0.00    +0.000 C 
BRANCH  25  26
ATOM     26  C   UNL     1       2.898   4.836  18.288  0.00  0.00    +0.000 C 
ATOM     27  C   UNL     1       1.580   4.335  17.693  0.00  0.00    +0.000 C 
ATOM     28  C   UNL     1       4.033   3.887  17.903  0.00  0.00    +0.000 C 
ENDBRANCH  25  26
ENDBRANCH  22  25
ENDBRANCH   4  19
TORSDOF 8
ENDMDL
MODEL 9
REMARK VINA RESULT:      -7.7      2.203      3.003
REMARK  Name = 
REMARK  11 active torsions:
REMARK  status: ('A' for Active; 'I' for Inactive)
REMARK    1  A    between atoms: C_1  and  C_2
REMARK    2  A    between atoms: C_4  and  C_5
REMARK    3  A    between atoms: C_5  and  C_6
REMARK    4  A    between atoms: C_6  and  C_7
REMARK    5  A    between atoms: C_7  and  O_9
REMARK    6  A    between atoms: C_12  and  C_13
REMARK    7  A    between atoms: C_16  and  C_17
REMARK    8  A    between atoms: C_20  and  C_21
REMARK    9  A    between atoms: C_21  and  C_22
REMARK   10  A    between atoms: C_22  and  C_23
REMARK   11  A    between atoms: C_22  and  C_24
REMARK                            x       y       z     vdW  Elec       q    Type
REMARK                         _______ _______ _______ _____ _____    ______ ____
ROOT
ATOM      1  C   UNL     1       1.778   8.591  18.806  0.00  0.00    +0.000 A 
ATOM      2  N   UNL     1       1.509   9.563  17.918  0.00  0.00    +0.000 NA
ATOM      3  O   UNL     1       0.657  10.421  18.610  0.00  0.00    +0.000 OA
ATOM      4  C   UNL     1       0.485   9.878  19.848  0.00  0.00    +0.000 A 
ATOM      5  N   UNL     1       1.140   8.753  20.014  0.00  0.00    +0.000 NA
ENDROOT
BRANCH   1  12
ATOM      6  C   UNL     1       1.660   6.080  20.498  0.00  0.00    +0.000 C 
ATOM      7  C   UNL     1       2.607   6.263  19.341  0.00  0.00    +0.000 A 
ATOM      8  C   UNL     1       3.485   5.207  19.029  0.00  0.00    +0.000 A 
ATOM      9  C   UNL     1       4.369   5.279  17.942  0.00  0.00    +0.000 A 
ATOM     10  C   UNL     1       4.386   6.439  17.167  0.00  0.00    +0.000 A 
ATOM     11  C   UNL     1       3.533   7.501  17.474  0.00  0.00    +0.000 A 
ATOM     12  C   UNL     1       2.640   7.436  18.561  0.00  0.00    +0.000 A 
BRANCH   9  13
ATOM     13  C   UNL     1       5.303   4.134  17.633  0.00  0.00    +0.000 C 
BRANCH  13  14
ATOM     14  C   UNL     1       5.769   4.132  16.177  0.00  0.00    +0.000 C 
BRANCH  14  15
ATOM     15  C   UNL     1       7.186   4.636  16.059  0.00  0.00    +0.000 C 
ATOM     16  O   UNL     1       7.598   5.391  15.194  0.00  0.00    +0.000 OA
BRANCH  15  17
ATOM     17  O   UNL     1       7.984   4.159  17.043  0.00  0.00    +0.000 OA
ATOM     18  H   UNL     1       7.805   3.231  17.283  0.00  0.00    +0.000 HD
ENDBRANCH  15  17
ENDBRANCH  14  15
ENDBRANCH  13  14
ENDBRANCH   9  13
ENDBRANCH   1  12
BRANCH   4  19
ATOM     19  C   UNL     1      -0.365  10.579  20.787  0.00  0.00    +0.000 A 
ATOM     20  C   UNL     1      -0.315  10.244  22.142  0.00  0.00    +0.000 A 
ATOM     21  C   UNL     1      -1.129  10.903  23.056  0.00  0.00    +0.000 A 
ATOM     22  C   UNL     1      -1.973  11.909  22.597  0.00  0.00    +0.000 A 
ATOM     23  N   UNL     1      -2.042  12.255  21.288  0.00  0.00    +0.000 NA
ATOM     24  C   UNL     1      -1.247  11.586  20.418  0.00  0.00    +0.000 A 
BRANCH  22  25
ATOM     25  C   UNL     1      -2.852  12.672  23.557  0.00  0.00    +0.000 C 
BRANCH  25  26
ATOM     26  C   UNL     1      -2.654  14.200  23.514  0.00  0.00    +0.000 C 
ATOM     27  C   UNL     1      -3.675  14.944  24.377  0.00  0.00    +0.000 C 
ATOM     28  C   UNL     1      -1.237  14.550  23.972  0.00  0.00    +0.000 C 
ENDBRANCH  25  26
ENDBRANCH  22  25
ENDBRANCH   4  19
TORSDOF 8
ENDMDL
