MODEL 1
REMARK VINA RESULT:      -7.9      0.000      0.000
REMARK  Name = 
REMARK  6 active torsions:
REMARK  status: ('A' for Active; 'I' for Inactive)
REMARK    1  A    between atoms: C_1  and  C_2
REMARK    2  A    between atoms: C_2  and  C_3
REMARK    3  A    between atoms: C_2  and  C_4
REMARK    4  A    between atoms: C_2  and  C_5
REMARK    5  A    between atoms: C_8  and  N_9
REMARK    6  A    between atoms: C_10  and  C_12
REMARK                            x       y       z     vdW  Elec       q    Type
REMARK                         _______ _______ _______ _____ _____    ______ ____
ROOT
ATOM      1  N   UNL     1       2.673   5.397  18.526  0.00  0.00    +0.000 N 
ATOM      2  C   UNL     1       1.932   4.422  17.875  0.00  0.00    +0.000 C 
ATOM      3  O   UNL     1       0.899   4.647  17.243  0.00  0.00    +0.000 OA
ATOM      4  H   UNL     1       3.601   5.161  18.849  0.00  0.00    +0.000 HD
ENDROOT
BRANCH   2   5
ATOM      5  C   UNL     1       2.569   3.032  17.841  0.00  0.00    +0.000 C 
ATOM      6  C   UNL     1       2.456   2.354  19.219  0.00  0.00    +0.000 C 
ATOM      7  C   UNL     1       3.428   2.958  20.231  0.00  0.00    +0.000 C 
ATOM      8  C   UNL     1       4.866   2.932  19.720  0.00  0.00    +0.000 C 
ATOM      9  N   UNL     1       4.949   3.521  18.386  0.00  0.00    +0.000 N 
ATOM     10  C   UNL     1       5.667   4.675  18.131  0.00  0.00    +0.000 A 
ATOM     11  C   UNL     1       6.767   5.079  18.905  0.00  0.00    +0.000 A 
ATOM     12  N   UNL     1       7.495   6.211  18.696  0.00  0.00    +0.000 NA
ATOM     13  C   UNL     1       7.089   6.954  17.656  0.00  0.00    +0.000 A 
ATOM     14  C   UNL     1       6.027   6.577  16.856  0.00  0.00    +0.000 A 
ATOM     15  N   UNL     1       5.317   5.440  17.071  0.00  0.00    +0.000 NA
ATOM     16  C   UNL     1       4.024   3.016  17.368  0.00  0.00    +0.000 C 
ENDBRANCH   2   5
BRANCH   1  20
ATOM     17  C   UNL     1       1.413   9.420  19.149  0.00  0.00    +0.000 A 
ATOM     18  C   UNL     1       1.862   8.985  17.898  0.00  0.00    +0.000 A 
ATOM     19  C   UNL     1       2.273   7.671  17.682  0.00  0.00    +0.000 A 
ATOM     20  C   UNL     1       2.262   6.735  18.712  0.00  0.00    +0.000 A 
ATOM     21  C   UNL     1       1.811   7.141  19.969  0.00  0.00    +0.000 A 
ATOM     22  C   UNL     1       1.406   8.468  20.188  0.00  0.00    +0.000 A 
BRANCH  17  24
ATOM     23  C   UNL     1       1.784  11.920  18.675  0.00  0.00    +0.000 C 
ATOM     24  C   UNL     1       0.907  10.856  19.375  0.00  0.00    +0.000 C 
ATOM     25  C   UNL     1       0.887  11.195  20.879  0.00  0.00    +0.000 C 
ATOM     26  C   UNL     1      -0.521  10.995  18.809  0.00  0.00    +0.000 C 
ENDBRANCH  17  24
ENDBRANCH   1  20
TORSDOF 3
ENDMDL
MODEL 2
REMARK VINA RESULT:      -7.8      3.808      8.573
REMARK  Name = 
REMARK  6 active torsions:
REMARK  status: ('A' for Active; 'I' for Inactive)
REMARK    1  A    between atoms: C_1  and  C_2
REMARK    2  A    between atoms: C_2  and  C_3
REMARK    3  A    between atoms: C_2  and  C_4
REMARK    4  A    between atoms: C_2  and  C_5
REMARK    5  A    between atoms: C_8  and  N_9
REMARK    6  A    between atoms: C_10  and  C_12
REMARK                            x       y       z     vdW  Elec       q    Type
REMARK                         _______ _______ _______ _____ _____    ______ ____
ROOT
ATOM      1  N   UNL     1       0.999  10.587  19.926  0.00  0.00    +0.000 N 
ATOM      2  C   UNL     1       0.555  11.026  21.165  0.00  0.00    +0.000 C 
ATOM      3  O   UNL     1       0.625  10.362  22.199  0.00  0.00    +0.000 OA
ATOM      4  H   UNL     1       1.085  11.261  19.178  0.00  0.00    +0.000 HD
ENDROOT
BRANCH   2   5
ATOM      5  C   UNL     1       0.108  12.488  21.216  0.00  0.00    +0.000 C 
ATOM      6  C   UNL     1      -0.755  12.744  22.466  0.00  0.00    +0.000 C 
ATOM      7  C   UNL     1      -2.155  12.147  22.321  0.00  0.00    +0.000 C 
ATOM      8  C   UNL     1      -2.853  12.642  21.057  0.00  0.00    +0.000 C 
ATOM      9  N   UNL     1      -1.998  12.451  19.889  0.00  0.00    +0.000 N 
ATOM     10  C   UNL     1      -2.343  11.604  18.851  0.00  0.00    +0.000 A 
ATOM     11  C   UNL     1      -3.672  11.286  18.532  0.00  0.00    +0.000 A 
ATOM     12  N   UNL     1      -4.056  10.451  17.527  0.00  0.00    +0.000 NA
ATOM     13  C   UNL     1      -3.045   9.925  16.819  0.00  0.00    +0.000 A 
ATOM     14  C   UNL     1      -1.725  10.233  17.088  0.00  0.00    +0.000 A 
ATOM     15  N   UNL     1      -1.359  11.076  18.086  0.00  0.00    +0.000 NA
ATOM     16  C   UNL     1      -0.629  12.967  19.964  0.00  0.00    +0.000 C 
ENDBRANCH   2   5
BRANCH   1  20
ATOM     17  C   UNL     1       2.272   6.628  18.996  0.00  0.00    +0.000 A 
ATOM     18  C   UNL     1       1.852   6.971  20.285  0.00  0.00    +0.000 A 
ATOM     19  C   UNL     1       1.429   8.261  20.599  0.00  0.00    +0.000 A 
ATOM     20  C   UNL     1       1.419   9.269  19.639  0.00  0.00    +0.000 A 
ATOM     21  C   UNL     1       1.828   8.952  18.343  0.00  0.00    +0.000 A 
ATOM     22  C   UNL     1       2.262   7.653  18.030  0.00  0.00    +0.000 A 
BRANCH  17  24
ATOM     23  C   UNL     1       1.619   4.450  17.794  0.00  0.00    +0.000 C 
ATOM     24  C   UNL     1       2.687   5.190  18.634  0.00  0.00    +0.000 C 
ATOM     25  C   UNL     1       2.929   4.356  19.906  0.00  0.00    +0.000 C 
ATOM     26  C   UNL     1       3.983   5.222  17.798  0.00  0.00    +0.000 C 
ENDBRANCH  17  24
ENDBRANCH   1  20
TORSDOF 3
ENDMDL
MODEL 3
REMARK VINA RESULT:      -7.7      3.946      8.624
REMARK  Name = 
REMARK  6 active torsions:
REMARK  status: ('A' for Active; 'I' for Inactive)
REMARK    1  A    between atoms: C_1  and  C_2
REMARK    2  A    between atoms: C_2  and  C_3
REMARK    3  A    between atoms: C_2  and  C_4
REMARK    4  A    between atoms: C_2  and  C_5
REMARK    5  A    between atoms: C_8  and  N_9
REMARK    6  A    between atoms: C_10  and  C_12
REMARK                            x       y       z     vdW  Elec       q    Type
REMARK                         _______ _______ _______ _____ _____    ______ ____
ROOT
ATOM      1  N   UNL     1       0.904  10.948  19.736  0.00  0.00    +0.000 N 
ATOM      2  C   UNL     1       0.523  11.334  21.013  0.00  0.00    +0.000 C 
ATOM      3  O   UNL     1       0.719  10.661  22.025  0.00  0.00    +0.000 OA
ATOM      4  H   UNL     1       0.885  11.639  18.998  0.00  0.00    +0.000 HD
ENDROOT
BRANCH   2   5
ATOM      5  C   UNL     1      -0.024  12.757  21.128  0.00  0.00    +0.000 C 
ATOM      6  C   UNL     1      -0.839  12.918  22.425  0.00  0.00    +0.000 C 
ATOM      7  C   UNL     1      -2.197  12.226  22.331  0.00  0.00    +0.000 C 
ATOM      8  C   UNL     1      -2.992  12.699  21.118  0.00  0.00    +0.000 C 
ATOM      9  N   UNL     1      -2.186  12.601  19.904  0.00  0.00    +0.000 N 
ATOM     10  C   UNL     1      -2.522  11.757  18.861  0.00  0.00    +0.000 A 
ATOM     11  C   UNL     1      -3.839  11.351  18.597  0.00  0.00    +0.000 A 
ATOM     12  N   UNL     1      -4.213  10.516  17.588  0.00  0.00    +0.000 NA
ATOM     13  C   UNL     1      -3.204  10.083  16.818  0.00  0.00    +0.000 A 
ATOM     14  C   UNL     1      -1.897  10.479  17.030  0.00  0.00    +0.000 A 
ATOM     15  N   UNL     1      -1.543  11.322  18.033  0.00  0.00    +0.000 NA
ATOM     16  C   UNL     1      -0.855  13.213  19.928  0.00  0.00    +0.000 C 
ENDBRANCH   2   5
BRANCH   1  20
ATOM     17  C   UNL     1       2.391   7.076  18.759  0.00  0.00    +0.000 A 
ATOM     18  C   UNL     1       2.306   8.085  17.796  0.00  0.00    +0.000 A 
ATOM     19  C   UNL     1       1.826   9.356  18.105  0.00  0.00    +0.000 A 
ATOM     20  C   UNL     1       1.397   9.671  19.391  0.00  0.00    +0.000 A 
ATOM     21  C   UNL     1       1.477   8.683  20.374  0.00  0.00    +0.000 A 
ATOM     22  C   UNL     1       1.953   7.399  20.059  0.00  0.00    +0.000 A 
BRANCH  17  24
ATOM     23  C   UNL     1       4.107   5.744  17.383  0.00  0.00    +0.000 C 
ATOM     24  C   UNL     1       2.973   5.689  18.433  0.00  0.00    +0.000 C 
ATOM     25  C   UNL     1       1.878   4.756  17.878  0.00  0.00    +0.000 C 
ATOM     26  C   UNL     1       3.565   5.064  19.713  0.00  0.00    +0.000 C 
ENDBRANCH  17  24
ENDBRANCH   1  20
TORSDOF 3
ENDMDL
MODEL 4
REMARK VINA RESULT:      -7.6      3.952      8.737
REMARK  Name = 
REMARK  6 active torsions:
REMARK  status: ('A' for Active; 'I' for Inactive)
REMARK    1  A    between atoms: C_1  and  C_2
REMARK    2  A    between atoms: C_2  and  C_3
REMARK    3  A    between atoms: C_2  and  C_4
REMARK    4  A    between atoms: C_2  and  C_5
REMARK    5  A    between atoms: C_8  and  N_9
REMARK    6  A    between atoms: C_10  and  C_12
REMARK                            x       y       z     vdW  Elec       q    Type
REMARK                         _______ _______ _______ _____ _____    ______ ____
ROOT
ATOM      1  N   UNL     1       1.073  11.029  19.281  0.00  0.00    +0.000 N 
ATOM      2  C   UNL     1       0.969  11.842  20.400  0.00  0.00    +0.000 C 
ATOM      3  O   UNL     1       1.333  11.512  21.529  0.00  0.00    +0.000 OA
ATOM      4  H   UNL     1       0.937  11.444  18.370  0.00  0.00    +0.000 HD
ENDROOT
BRANCH   2   5
ATOM      5  C   UNL     1       0.516  13.276  20.124  0.00  0.00    +0.000 C 
ATOM      6  C   UNL     1      -0.117  13.893  21.386  0.00  0.00    +0.000 C 
ATOM      7  C   UNL     1      -1.511  13.328  21.655  0.00  0.00    +0.000 C 
ATOM      8  C   UNL     1      -2.428  13.482  20.445  0.00  0.00    +0.000 C 
ATOM      9  N   UNL     1      -1.790  12.950  19.244  0.00  0.00    +0.000 N 
ATOM     10  C   UNL     1      -2.299  11.864  18.556  0.00  0.00    +0.000 A 
ATOM     11  C   UNL     1      -3.659  11.516  18.572  0.00  0.00    +0.000 A 
ATOM     12  N   UNL     1      -4.201  10.452  17.918  0.00  0.00    +0.000 NA
ATOM     13  C   UNL     1      -3.323   9.718  17.218  0.00  0.00    +0.000 A 
ATOM     14  C   UNL     1      -1.981  10.042  17.158  0.00  0.00    +0.000 A 
ATOM     15  N   UNL     1      -1.458  11.113  17.807  0.00  0.00    +0.000 NA
ATOM     16  C   UNL     1      -0.437  13.420  18.936  0.00  0.00    +0.000 C 
ENDBRANCH   2   5
BRANCH   1  20
ATOM     17  C   UNL     1       2.174   6.912  19.287  0.00  0.00    +0.000 A 
ATOM     18  C   UNL     1       1.623   7.517  20.420  0.00  0.00    +0.000 A 
ATOM     19  C   UNL     1       1.255   8.861  20.428  0.00  0.00    +0.000 A 
ATOM     20  C   UNL     1       1.434   9.663  19.305  0.00  0.00    +0.000 A 
ATOM     21  C   UNL     1       1.976   9.082  18.158  0.00  0.00    +0.000 A 
ATOM     22  C   UNL     1       2.355   7.729  18.154  0.00  0.00    +0.000 A 
BRANCH  17  24
ATOM     23  C   UNL     1       1.846   4.612  20.390  0.00  0.00    +0.000 C 
ATOM     24  C   UNL     1       2.529   5.414  19.258  0.00  0.00    +0.000 C 
ATOM     25  C   UNL     1       4.050   5.213  19.407  0.00  0.00    +0.000 C 
ATOM     26  C   UNL     1       2.069   4.800  17.920  0.00  0.00    +0.000 C 
ENDBRANCH  17  24
ENDBRANCH   1  20
TORSDOF 3
ENDMDL
MODEL 5
REMARK VINA RESULT:      -7.4      1.794      3.750
REMARK  Name = 
REMARK  6 active torsions:
REMARK  status: ('A' for Active; 'I' for Inactive)
REMARK    1  A    between atoms: C_1  and  C_2
REMARK    2  A    between atoms: C_2  and  C_3
REMARK    3  A    between atoms: C_2  and  C_4
REMARK    4  A    between atoms: C_2  and  C_5
REMARK    5  A    between atoms: C_8  and  N_9
REMARK    6  A    between atoms: C_10  and  C_12
REMARK                            x       y       z     vdW  Elec       q    Type
REMARK                         _______ _______ _______ _____ _____    ______ ____
ROOT
ATOM      1  N   UNL     1       3.713   6.786  18.868  0.00  0.00    +0.000 N 
ATOM      2  C   UNL     1       4.518   6.536  17.766  0.00  0.00    +0.000 C 
ATOM      3  O   UNL     1       4.529   7.228  16.747  0.00  0.00    +0.000 OA
ATOM      4  H   UNL     1       3.908   6.293  19.728  0.00  0.00    +0.000 HD
ENDROOT
BRANCH   2   5
ATOM      5  C   UNL     1       5.543   5.416  17.947  0.00  0.00    +0.000 C 
ATOM      6  C   UNL     1       5.937   4.820  16.583  0.00  0.00    +0.000 C 
ATOM      7  C   UNL     1       4.830   3.939  16.006  0.00  0.00    +0.000 C 
ATOM      8  C   UNL     1       4.408   2.847  16.984  0.00  0.00    +0.000 C 
ATOM      9  N   UNL     1       4.097   3.418  18.292  0.00  0.00    +0.000 N 
ATOM     10  C   UNL     1       2.829   3.362  18.840  0.00  0.00    +0.000 A 
ATOM     11  C   UNL     1       1.900   2.359  18.521  0.00  0.00    +0.000 A 
ATOM     12  N   UNL     1       0.639   2.271  19.029  0.00  0.00    +0.000 NA
ATOM     13  C   UNL     1       0.317   3.240  19.899  0.00  0.00    +0.000 A 
ATOM     14  C   UNL     1       1.213   4.230  20.257  0.00  0.00    +0.000 A 
ATOM     15  N   UNL     1       2.470   4.297  19.751  0.00  0.00    +0.000 NA
ATOM     16  C   UNL     1       5.098   4.301  18.896  0.00  0.00    +0.000 C 
ENDBRANCH   2   5
BRANCH   1  20
ATOM     17  C   UNL     1       0.571   9.658  19.059  0.00  0.00    +0.000 A 
ATOM     18  C   UNL     1       1.280   9.437  17.875  0.00  0.00    +0.000 A 
ATOM     19  C   UNL     1       2.307   8.497  17.800  0.00  0.00    +0.000 A 
ATOM     20  C   UNL     1       2.677   7.745  18.911  0.00  0.00    +0.000 A 
ATOM     21  C   UNL     1       1.980   7.941  20.104  0.00  0.00    +0.000 A 
ATOM     22  C   UNL     1       0.951   8.895  20.180  0.00  0.00    +0.000 A 
BRANCH  17  24
ATOM     23  C   UNL     1      -0.238  12.049  18.563  0.00  0.00    +0.000 C 
ATOM     24  C   UNL     1      -0.600  10.655  19.130  0.00  0.00    +0.000 C 
ATOM     25  C   UNL     1      -1.056  10.857  20.588  0.00  0.00    +0.000 C 
ATOM     26  C   UNL     1      -1.785  10.119  18.301  0.00  0.00    +0.000 C 
ENDBRANCH  17  24
ENDBRANCH   1  20
TORSDOF 3
ENDMDL
MODEL 6
REMARK VINA RESULT:      -7.4      3.537      8.401
REMARK  Name = 
REMARK  6 active torsions:
REMARK  status: ('A' for Active; 'I' for Inactive)
REMARK    1  A    between atoms: C_1  and  C_2
REMARK    2  A    between atoms: C_2  and  C_3
REMARK    3  A    between atoms: C_2  and  C_4
REMARK    4  A    between atoms: C_2  and  C_5
REMARK    5  A    between atoms: C_8  and  N_9
REMARK    6  A    between atoms: C_10  and  C_12
REMARK                            x       y       z     vdW  Elec       q    Type
REMARK                         _______ _______ _______ _____ _____    ______ ____
ROOT
ATOM      1  N   UNL     1       1.653   9.054  19.934  0.00  0.00    +0.000 N 
ATOM      2  C   UNL     1       1.027   9.976  19.109  0.00  0.00    +0.000 C 
ATOM      3  O   UNL     1       0.396   9.678  18.094  0.00  0.00    +0.000 OA
ATOM      4  H   UNL     1       1.976   9.360  20.841  0.00  0.00    +0.000 HD
ENDROOT
BRANCH   2   5
ATOM      5  C   UNL     1       1.020  11.415  19.626  0.00  0.00    +0.000 C 
ATOM      6  C   UNL     1       0.748  11.442  21.142  0.00  0.00    +0.000 C 
ATOM      7  C   UNL     1      -0.717  11.144  21.460  0.00  0.00    +0.000 C 
ATOM      8  C   UNL     1      -1.661  12.081  20.713  0.00  0.00    +0.000 C 
ATOM      9  N   UNL     1      -1.351  12.095  19.286  0.00  0.00    +0.000 N 
ATOM     10  C   UNL     1      -2.244  11.643  18.332  0.00  0.00    +0.000 A 
ATOM     11  C   UNL     1      -3.634  11.647  18.521  0.00  0.00    +0.000 A 
ATOM     12  N   UNL     1      -4.548  11.203  17.614  0.00  0.00    +0.000 NA
ATOM     13  C   UNL     1      -4.022  10.744  16.469  0.00  0.00    +0.000 A 
ATOM     14  C   UNL     1      -2.660  10.748  16.235  0.00  0.00    +0.000 A 
ATOM     15  N   UNL     1      -1.763  11.203  17.145  0.00  0.00    +0.000 NA
ATOM     16  C   UNL     1       0.041  12.341  18.902  0.00  0.00    +0.000 C 
ENDBRANCH   2   5
BRANCH   1  20
ATOM     17  C   UNL     1       2.115   4.899  19.107  0.00  0.00    +0.000 A 
ATOM     18  C   UNL     1       2.477   5.870  18.169  0.00  0.00    +0.000 A 
ATOM     19  C   UNL     1       2.335   7.231  18.430  0.00  0.00    +0.000 A 
ATOM     20  C   UNL     1       1.812   7.682  19.639  0.00  0.00    +0.000 A 
ATOM     21  C   UNL     1       1.449   6.733  20.596  0.00  0.00    +0.000 A 
ATOM     22  C   UNL     1       1.584   5.360  20.327  0.00  0.00    +0.000 A 
BRANCH  17  24
ATOM     23  C   UNL     1       1.018   2.577  18.969  0.00  0.00    +0.000 C 
ATOM     24  C   UNL     1       2.323   3.397  18.842  0.00  0.00    +0.000 C 
ATOM     25  C   UNL     1       3.337   2.804  19.840  0.00  0.00    +0.000 C 
ATOM     26  C   UNL     1       2.852   3.195  17.407  0.00  0.00    +0.000 C 
ENDBRANCH  17  24
ENDBRANCH   1  20
TORSDOF 3
ENDMDL
MODEL 7
REMARK VINA RESULT:      -7.4      1.789      3.956
REMARK  Name = 
REMARK  6 active torsions:
REMARK  status: ('A' for Active; 'I' for Inactive)
REMARK    1  A    between atoms: C_1  and  C_2
REMARK    2  A    between atoms: C_2  and  C_3
REMARK    3  A    between atoms: C_2  and  C_4
REMARK    4  A    between atoms: C_2  and  C_5
REMARK    5  A    between atoms: C_8  and  N_9
REMARK    6  A    between atoms: C_10  and  C_12
REMARK                            x       y       z     vdW  Elec       q    Type
REMARK                         _______ _______ _______ _____ _____    ______ ____
ROOT
ATOM      1  N   UNL     1       3.691   6.777  18.915  0.00  0.00    +0.000 N 
ATOM      2  C   UNL     1       4.513   6.586  17.813  0.00  0.00    +0.000 C 
ATOM      3  O   UNL     1       4.523   7.321  16.825  0.00  0.00    +0.000 OA
ATOM      4  H   UNL     1       3.884   6.251  19.756  0.00  0.00    +0.000 HD
ENDROOT
BRANCH   2   5
ATOM      5  C   UNL     1       5.555   5.478  17.961  0.00  0.00    +0.000 C 
ATOM      6  C   UNL     1       5.972   4.943  16.578  0.00  0.00    +0.000 C 
ATOM      7  C   UNL     1       4.885   4.067  15.956  0.00  0.00    +0.000 C 
ATOM      8  C   UNL     1       4.473   2.930  16.886  0.00  0.00    +0.000 C 
ATOM      9  N   UNL     1       4.141   3.443  18.213  0.00  0.00    +0.000 N 
ATOM     10  C   UNL     1       2.869   3.344  18.746  0.00  0.00    +0.000 A 
ATOM     11  C   UNL     1       1.960   2.340  18.378  0.00  0.00    +0.000 A 
ATOM     12  N   UNL     1       0.697   2.210  18.870  0.00  0.00    +0.000 NA
ATOM     13  C   UNL     1       0.351   3.138  19.774  0.00  0.00    +0.000 A 
ATOM     14  C   UNL     1       1.226   4.128  20.180  0.00  0.00    +0.000 A 
ATOM     15  N   UNL     1       2.486   4.237  19.689  0.00  0.00    +0.000 NA
ATOM     16  C   UNL     1       5.121   4.319  18.860  0.00  0.00    +0.000 C 
ENDBRANCH   2   5
BRANCH   1  20
ATOM     17  C   UNL     1       0.527   9.627  19.067  0.00  0.00    +0.000 A 
ATOM     18  C   UNL     1       0.887   8.881  20.193  0.00  0.00    +0.000 A 
ATOM     19  C   UNL     1       1.923   7.950  20.156  0.00  0.00    +0.000 A 
ATOM     20  C   UNL     1       2.638   7.714  18.986  0.00  0.00    +0.000 A 
ATOM     21  C   UNL     1       2.303   8.450  17.848  0.00  0.00    +0.000 A 
ATOM     22  C   UNL     1       1.252   9.382  17.884  0.00  0.00    +0.000 A 
BRANCH  17  24
ATOM     23  C   UNL     1      -1.836  10.301  18.308  0.00  0.00    +0.000 C 
ATOM     24  C   UNL     1      -0.580  10.695  19.120  0.00  0.00    +0.000 C 
ATOM     25  C   UNL     1      -0.070  12.035  18.555  0.00  0.00    +0.000 C 
ATOM     26  C   UNL     1      -1.027  10.903  20.581  0.00  0.00    +0.000 C 
ENDBRANCH  17  24
ENDBRANCH   1  20
TORSDOF 3
ENDMDL
MODEL 8
REMARK VINA RESULT:      -7.4      3.520      8.433
REMARK  Name = 
REMARK  6 active torsions:
REMARK  status: ('A' for Active; 'I' for Inactive)
REMARK    1  A    between atoms: C_1  and  C_2
REMARK    2  A    between atoms: C_2  and  C_3
REMARK    3  A    between atoms: C_2  and  C_4
REMARK    4  A    between atoms: C_2  and  C_5
REMARK    5  A    between atoms: C_8  and  N_9
REMARK    6  A    between atoms: C_10  and  C_12
REMARK                            x       y       z     vdW  Elec       q    Type
REMARK                         _______ _______ _______ _____ _____    ______ ____
ROOT
ATOM      1  N   UNL     1       1.705   9.133  19.999  0.00  0.00    +0.000 N 
ATOM      2  C   UNL     1       0.552   9.731  20.486  0.00  0.00    +0.000 C 
ATOM      3  O   UNL     1      -0.425   9.108  20.904  0.00  0.00    +0.000 OA
ATOM      4  H   UNL     1       2.525   9.708  19.864  0.00  0.00    +0.000 HD
ENDROOT
BRANCH   2   5
ATOM      5  C   UNL     1       0.619  11.251  20.637  0.00  0.00    +0.000 C 
ATOM      6  C   UNL     1      -0.011  11.688  21.973  0.00  0.00    +0.000 C 
ATOM      7  C   UNL     1      -1.535  11.592  21.941  0.00  0.00    +0.000 C 
ATOM      8  C   UNL     1      -2.127  12.372  20.770  0.00  0.00    +0.000 C 
ATOM      9  N   UNL     1      -1.478  11.994  19.518  0.00  0.00    +0.000 N 
ATOM     10  C   UNL     1      -2.163  11.378  18.487  0.00  0.00    +0.000 A 
ATOM     11  C   UNL     1      -3.544  11.533  18.285  0.00  0.00    +0.000 A 
ATOM     12  N   UNL     1      -4.260  10.940  17.290  0.00  0.00    +0.000 NA
ATOM     13  C   UNL     1      -3.538  10.163  16.468  0.00  0.00    +0.000 A 
ATOM     14  C   UNL     1      -2.174  10.005  16.620  0.00  0.00    +0.000 A 
ATOM     15  N   UNL     1      -1.473  10.612  17.610  0.00  0.00    +0.000 NA
ATOM     16  C   UNL     1      -0.014  12.029  19.482  0.00  0.00    +0.000 C 
ENDBRANCH   2   5
BRANCH   1  20
ATOM     17  C   UNL     1       2.162   4.979  19.163  0.00  0.00    +0.000 A 
ATOM     18  C   UNL     1       1.787   5.427  20.434  0.00  0.00    +0.000 A 
ATOM     19  C   UNL     1       1.630   6.782  20.717  0.00  0.00    +0.000 A 
ATOM     20  C   UNL     1       1.853   7.752  19.743  0.00  0.00    +0.000 A 
ATOM     21  C   UNL     1       2.222   7.331  18.465  0.00  0.00    +0.000 A 
ATOM     22  C   UNL     1       2.388   5.965  18.183  0.00  0.00    +0.000 A 
BRANCH  17  24
ATOM     23  C   UNL     1       0.984   2.693  19.134  0.00  0.00    +0.000 C 
ATOM     24  C   UNL     1       2.281   3.481  18.833  0.00  0.00    +0.000 C 
ATOM     25  C   UNL     1       3.412   2.831  19.655  0.00  0.00    +0.000 C 
ATOM     26  C   UNL     1       2.585   3.306  17.332  0.00  0.00    +0.000 C 
ENDBRANCH  17  24
ENDBRANCH   1  20
TORSDOF 3
ENDMDL
MODEL 9
REMARK VINA RESULT:      -7.4      3.557      8.461
REMARK  Name = 
REMARK  6 active torsions:
REMARK  status: ('A' for Active; 'I' for Inactive)
REMARK    1  A    between atoms: C_1  and  C_2
REMARK    2  A    between atoms: C_2  and  C_3
REMARK    3  A    between atoms: C_2  and  C_4
REMARK    4  A    between atoms: C_2  and  C_5
REMARK    5  A    between atoms: C_8  and  N_9
REMARK    6  A    between atoms: C_10  and  C_12
REMARK                            x       y       z     vdW  Elec       q    Type
REMARK                         _______ _______ _______ _____ _____    ______ ____
ROOT
ATOM      1  N   UNL     1       1.656   9.158  19.891  0.00  0.00    +0.000 N 
ATOM      2  C   UNL     1       1.008  10.041  19.040  0.00  0.00    +0.000 C 
ATOM      3  O   UNL     1       0.377   9.699  18.040  0.00  0.00    +0.000 OA
ATOM      4  H   UNL     1       1.978   9.499  20.786  0.00  0.00    +0.000 HD
ENDROOT
BRANCH   2   5
ATOM      5  C   UNL     1       0.977  11.495  19.512  0.00  0.00    +0.000 C 
ATOM      6  C   UNL     1       0.701  11.565  21.026  0.00  0.00    +0.000 C 
ATOM      7  C   UNL     1      -0.758  11.253  21.352  0.00  0.00    +0.000 C 
ATOM      8  C   UNL     1      -1.717  12.150  20.576  0.00  0.00    +0.000 C 
ATOM      9  N   UNL     1      -1.405  12.124  19.149  0.00  0.00    +0.000 N 
ATOM     10  C   UNL     1      -2.289  11.628  18.209  0.00  0.00    +0.000 A 
ATOM     11  C   UNL     1      -3.680  11.614  18.397  0.00  0.00    +0.000 A 
ATOM     12  N   UNL     1      -4.585  11.127  17.503  0.00  0.00    +0.000 NA
ATOM     13  C   UNL     1      -4.050  10.641  16.373  0.00  0.00    +0.000 A 
ATOM     14  C   UNL     1      -2.688  10.659  16.141  0.00  0.00    +0.000 A 
ATOM     15  N   UNL     1      -1.799  11.159  17.037  0.00  0.00    +0.000 NA
ATOM     16  C   UNL     1      -0.017  12.382  18.758  0.00  0.00    +0.000 C 
ENDBRANCH   2   5
BRANCH   1  20
ATOM     17  C   UNL     1       2.225   5.015  19.066  0.00  0.00    +0.000 A 
ATOM     18  C   UNL     1       1.723   5.448  20.297  0.00  0.00    +0.000 A 
ATOM     19  C   UNL     1       1.529   6.799  20.576  0.00  0.00    +0.000 A 
ATOM     20  C   UNL     1       1.840   7.780  19.638  0.00  0.00    +0.000 A 
ATOM     21  C   UNL     1       2.336   7.375  18.399  0.00  0.00    +0.000 A 
ATOM     22  C   UNL     1       2.540   6.012  18.122  0.00  0.00    +0.000 A 
BRANCH  17  24
ATOM     23  C   UNL     1       2.903   3.275  17.298  0.00  0.00    +0.000 C 
ATOM     24  C   UNL     1       2.387   3.521  18.736  0.00  0.00    +0.000 C 
ATOM     25  C   UNL     1       1.041   2.783  18.872  0.00  0.00    +0.000 C 
ATOM     26  C   UNL     1       3.409   2.887  19.702  0.00  0.00    +0.000 C 
ENDBRANCH  17  24
ENDBRANCH   1  20
TORSDOF 3
ENDMDL
