MODEL 1
REMARK VINA RESULT:      -8.7      0.000      0.000
REMARK  Name = 
REMARK  6 active torsions:
REMARK  status: ('A' for Active; 'I' for Inactive)
REMARK    1  A    between atoms: C_1  and  N_2
REMARK    2  A    between atoms: C_4  and  C_5
REMARK    3  A    between atoms: C_11  and  S_12
REMARK    4  A    between atoms: S_12  and  C_13
REMARK    5  A    between atoms: C_19  and  N_20
REMARK    6  A    between atoms: N_20  and  C_21
REMARK                            x       y       z     vdW  Elec       q    Type
REMARK                         _______ _______ _______ _____ _____    ______ ____
ROOT
ATOM      1  C   UNL     1       1.144   9.320  19.288  0.00  0.00    +0.000 A 
ATOM      2  C   UNL     1       0.874   8.704  20.511  0.00  0.00    +0.000 A 
ATOM      3  C   UNL     1       1.432   7.460  20.819  0.00  0.00    +0.000 A 
ATOM      4  C   UNL     1       2.269   6.799  19.931  0.00  0.00    +0.000 A 
ATOM      5  N   UNL     1       2.835   5.647  20.317  0.00  0.00    +0.000 NA
ATOM      6  C   UNL     1       3.658   5.015  19.436  0.00  0.00    +0.000 A 
ATOM      7  C   UNL     1       3.892   5.401  18.119  0.00  0.00    +0.000 A 
ATOM      8  C   UNL     1       3.321   6.634  17.770  0.00  0.00    +0.000 A 
ATOM      9  C   UNL     1       2.508   7.372  18.669  0.00  0.00    +0.000 A 
ATOM     10  C   UNL     1       1.957   8.644  18.362  0.00  0.00    +0.000 A 
ENDROOT
BRANCH   7  11
ATOM     11  N   UNL     1       4.738   4.730  17.225  0.00  0.00    +0.000 N 
ATOM     12  H   UNL     1       4.340   3.867  16.859  0.00  0.00    +0.000 HD
BRANCH  11  13
ATOM     13  C   UNL     1       6.193   4.633  17.478  0.00  0.00    +0.000 C 
ATOM     14  C   UNL     1       6.683   5.825  18.282  0.00  0.00    +0.000 C 
ATOM     15  C   UNL     1       7.357   6.750  17.291  0.00  0.00    +0.000 C 
ATOM     16  O   UNL     1       7.508   6.059  16.053  0.00  0.00    +0.000 OA
ATOM     17  C   UNL     1       7.036   4.714  16.205  0.00  0.00    +0.000 C 
ENDBRANCH  11  13
ENDBRANCH   7  11
BRANCH   1  18
ATOM     18  S   UNL     1       0.517  10.967  19.065  0.00  0.00    +0.000 S 
BRANCH  18  25
ATOM     19  C   UNL     1      -3.770  12.721  20.171  0.00  0.00    +0.000 A 
ATOM     20  C   UNL     1      -4.819  12.228  19.267  0.00  0.00    +0.000 A 
ATOM     21  C   UNL     1      -4.551  11.410  18.232  0.00  0.00    +0.000 A 
ATOM     22  C   UNL     1      -3.221  10.971  18.013  0.00  0.00    +0.000 A 
ATOM     23  N   UNL     1      -2.699  10.170  17.114  0.00  0.00    +0.000 NA
ATOM     24  N   UNL     1      -1.358  10.061  17.386  0.00  0.00    +0.000 NA
ATOM     25  C   UNL     1      -1.089  10.790  18.451  0.00  0.00    +0.000 A 
ATOM     26  N   UNL     1      -2.234  11.432  18.877  0.00  0.00    +0.000 N 
ATOM     27  C   UNL     1      -2.504  12.323  19.914  0.00  0.00    +0.000 A 
BRANCH  19  31
ATOM     28  C   UNL     1      -3.573  15.184  24.457  0.00  0.00    +0.000 C 
ATOM     29  N   UNL     1      -3.993  14.648  23.187  0.00  0.00    +0.000 N 
ATOM     30  C   UNL     1      -3.278  13.823  22.368  0.00  0.00    +0.000 A 
ATOM     31  C   UNL     1      -4.090  13.564  21.282  0.00  0.00    +0.000 A 
ATOM     32  C   UNL     1      -5.273  14.287  21.549  0.00  0.00    +0.000 A 
ATOM     33  N   UNL     1      -5.214  14.949  22.709  0.00  0.00    +0.000 NA
ENDBRANCH  19  31
ENDBRANCH  18  25
ENDBRANCH   1  18
TORSDOF 5
ENDMDL
MODEL 2
REMARK VINA RESULT:      -8.7      0.967      1.240
REMARK  Name = 
REMARK  6 active torsions:
REMARK  status: ('A' for Active; 'I' for Inactive)
REMARK    1  A    between atoms: C_1  and  N_2
REMARK    2  A    between atoms: C_4  and  C_5
REMARK    3  A    between atoms: C_11  and  S_12
REMARK    4  A    between atoms: S_12  and  C_13
REMARK    5  A    between atoms: C_19  and  N_20
REMARK    6  A    between atoms: N_20  and  C_21
REMARK                            x       y       z     vdW  Elec       q    Type
REMARK                         _______ _______ _______ _____ _____    ______ ____
ROOT
ATOM      1  C   UNL     1       0.837  10.114  19.074  0.00  0.00    +0.000 A 
ATOM      2  C   UNL     1       0.619   9.568  20.339  0.00  0.00    +0.000 A 
ATOM      3  C   UNL     1       1.197   8.345  20.695  0.00  0.00    +0.000 A 
ATOM      4  C   UNL     1       2.001   7.637  19.813  0.00  0.00    +0.000 A 
ATOM      5  N   UNL     1       2.589   6.511  20.240  0.00  0.00    +0.000 NA
ATOM      6  C   UNL     1       3.381   5.833  19.364  0.00  0.00    +0.000 A 
ATOM      7  C   UNL     1       3.559   6.145  18.018  0.00  0.00    +0.000 A 
ATOM      8  C   UNL     1       2.968   7.354  17.624  0.00  0.00    +0.000 A 
ATOM      9  C   UNL     1       2.187   8.139  18.511  0.00  0.00    +0.000 A 
ATOM     10  C   UNL     1       1.617   9.389  18.156  0.00  0.00    +0.000 A 
ENDROOT
BRANCH   7  11
ATOM     11  N   UNL     1       4.373   5.427  17.131  0.00  0.00    +0.000 N 
ATOM     12  H   UNL     1       4.647   4.512  17.482  0.00  0.00    +0.000 HD
BRANCH  11  13
ATOM     13  C   UNL     1       5.447   6.099  16.367  0.00  0.00    +0.000 C 
ATOM     14  C   UNL     1       5.697   5.390  15.047  0.00  0.00    +0.000 C 
ATOM     15  C   UNL     1       6.950   4.565  15.245  0.00  0.00    +0.000 C 
ATOM     16  O   UNL     1       7.560   4.950  16.475  0.00  0.00    +0.000 OA
ATOM     17  C   UNL     1       6.813   6.029  17.051  0.00  0.00    +0.000 C 
ENDBRANCH  11  13
ENDBRANCH   7  11
BRANCH   1  18
ATOM     18  S   UNL     1       0.193  11.743  18.782  0.00  0.00    +0.000 S 
BRANCH  18  25
ATOM     19  C   UNL     1      -3.987  12.922  20.738  0.00  0.00    +0.000 A 
ATOM     20  C   UNL     1      -5.124  12.496  19.910  0.00  0.00    +0.000 A 
ATOM     21  C   UNL     1      -4.960  11.885  18.721  0.00  0.00    +0.000 A 
ATOM     22  C   UNL     1      -3.652  11.603  18.254  0.00  0.00    +0.000 A 
ATOM     23  N   UNL     1      -3.218  11.007  17.168  0.00  0.00    +0.000 NA
ATOM     24  N   UNL     1      -1.848  10.970  17.236  0.00  0.00    +0.000 NA
ATOM     25  C   UNL     1      -1.472  11.534  18.367  0.00  0.00    +0.000 A 
ATOM     26  N   UNL     1      -2.580  11.997  19.047  0.00  0.00    +0.000 N 
ATOM     27  C   UNL     1      -2.750  12.680  20.249  0.00  0.00    +0.000 A 
BRANCH  19  31
ATOM     28  C   UNL     1      -3.274  15.298  25.019  0.00  0.00    +0.000 C 
ATOM     29  N   UNL     1      -3.865  14.591  23.909  0.00  0.00    +0.000 N 
ATOM     30  C   UNL     1      -3.235  14.185  22.768  0.00  0.00    +0.000 A 
ATOM     31  C   UNL     1      -4.192  13.540  22.012  0.00  0.00    +0.000 A 
ATOM     32  C   UNL     1      -5.366  13.617  22.794  0.00  0.00    +0.000 A 
ATOM     33  N   UNL     1      -5.167  14.258  23.949  0.00  0.00    +0.000 NA
ENDBRANCH  19  31
ENDBRANCH  18  25
ENDBRANCH   1  18
TORSDOF 5
ENDMDL
MODEL 3
REMARK VINA RESULT:      -8.7      2.106      3.080
REMARK  Name = 
REMARK  6 active torsions:
REMARK  status: ('A' for Active; 'I' for Inactive)
REMARK    1  A    between atoms: C_1  and  N_2
REMARK    2  A    between atoms: C_4  and  C_5
REMARK    3  A    between atoms: C_11  and  S_12
REMARK    4  A    between atoms: S_12  and  C_13
REMARK    5  A    between atoms: C_19  and  N_20
REMARK    6  A    between atoms: N_20  and  C_21
REMARK                            x       y       z     vdW  Elec       q    Type
REMARK                         _______ _______ _______ _____ _____    ______ ____
ROOT
ATOM      1  C   UNL     1       0.717  10.270  19.081  0.00  0.00    +0.000 A 
ATOM      2  C   UNL     1       0.450   9.718  20.335  0.00  0.00    +0.000 A 
ATOM      3  C   UNL     1       1.007   8.490  20.705  0.00  0.00    +0.000 A 
ATOM      4  C   UNL     1       1.840   7.782  19.849  0.00  0.00    +0.000 A 
ATOM      5  N   UNL     1       2.405   6.651  20.292  0.00  0.00    +0.000 NA
ATOM      6  C   UNL     1       3.224   5.973  19.442  0.00  0.00    +0.000 A 
ATOM      7  C   UNL     1       3.454   6.290  18.106  0.00  0.00    +0.000 A 
ATOM      8  C   UNL     1       2.884   7.505  17.696  0.00  0.00    +0.000 A 
ATOM      9  C   UNL     1       2.075   8.289  18.558  0.00  0.00    +0.000 A 
ATOM     10  C   UNL     1       1.526   9.544  18.188  0.00  0.00    +0.000 A 
ENDROOT
BRANCH   7  11
ATOM     11  N   UNL     1       4.295   5.572  17.246  0.00  0.00    +0.000 N 
ATOM     12  H   UNL     1       4.694   4.737  17.670  0.00  0.00    +0.000 HD
BRANCH  11  13
ATOM     13  C   UNL     1       5.240   6.268  16.345  0.00  0.00    +0.000 C 
ATOM     14  C   UNL     1       5.607   5.390  15.160  0.00  0.00    +0.000 C 
ATOM     15  C   UNL     1       6.982   4.833  15.461  0.00  0.00    +0.000 C 
ATOM     16  O   UNL     1       7.517   5.526  16.587  0.00  0.00    +0.000 OA
ATOM     17  C   UNL     1       6.598   6.549  16.990  0.00  0.00    +0.000 C 
ENDBRANCH  11  13
ENDBRANCH   7  11
BRANCH   1  18
ATOM     18  S   UNL     1       0.092  11.904  18.775  0.00  0.00    +0.000 S 
BRANCH  18  25
ATOM     19  C   UNL     1      -3.004  13.116  22.184  0.00  0.00    +0.000 A 
ATOM     20  C   UNL     1      -2.354  13.827  23.294  0.00  0.00    +0.000 A 
ATOM     21  C   UNL     1      -1.027  14.051  23.325  0.00  0.00    +0.000 A 
ATOM     22  C   UNL     1      -0.219  13.626  22.241  0.00  0.00    +0.000 A 
ATOM     23  N   UNL     1       1.068  13.737  22.010  0.00  0.00    +0.000 NA
ATOM     24  N   UNL     1       1.318  13.176  20.782  0.00  0.00    +0.000 NA
ATOM     25  C   UNL     1       0.177  12.742  20.284  0.00  0.00    +0.000 A 
ATOM     26  N   UNL     1      -0.841  12.963  21.188  0.00  0.00    +0.000 N 
ATOM     27  C   UNL     1      -2.205  12.682  21.184  0.00  0.00    +0.000 A 
BRANCH  19  31
ATOM     28  C   UNL     1      -7.753  12.727  23.518  0.00  0.00    +0.000 C 
ATOM     29  N   UNL     1      -6.524  12.747  22.765  0.00  0.00    +0.000 N 
ATOM     30  C   UNL     1      -5.279  13.051  23.235  0.00  0.00    +0.000 A 
ATOM     31  C   UNL     1      -4.422  12.921  22.162  0.00  0.00    +0.000 A 
ATOM     32  C   UNL     1      -5.258  12.536  21.091  0.00  0.00    +0.000 A 
ATOM     33  N   UNL     1      -6.539  12.430  21.458  0.00  0.00    +0.000 NA
ENDBRANCH  19  31
ENDBRANCH  18  25
ENDBRANCH   1  18
TORSDOF 5
ENDMDL
MODEL 4
REMARK VINA RESULT:      -8.6      2.201      4.869
REMARK  Name = 
REMARK  6 active torsions:
REMARK  status: ('A' for Active; 'I' for Inactive)
REMARK    1  A    between atoms: C_1  and  N_2
REMARK    2  A    between atoms: C_4  and  C_5
REMARK    3  A    between atoms: C_11  and  S_12
REMARK    4  A    between atoms: S_12  and  C_13
REMARK    5  A    between atoms: C_19  and  N_20
REMARK    6  A    between atoms: N_20  and  C_21
REMARK                            x       y       z     vdW  Elec       q    Type
REMARK                         _______ _______ _______ _____ _____    ______ ____
ROOT
ATOM      1  C   UNL     1       1.146  10.175  18.958  0.00  0.00    +0.000 A 
ATOM      2  C   UNL     1       0.781   9.634  20.192  0.00  0.00    +0.000 A 
ATOM      3  C   UNL     1       1.218   8.360  20.566  0.00  0.00    +0.000 A 
ATOM      4  C   UNL     1       2.024   7.594  19.735  0.00  0.00    +0.000 A 
ATOM      5  N   UNL     1       2.474   6.414  20.184  0.00  0.00    +0.000 NA
ATOM      6  C   UNL     1       3.269   5.679  19.359  0.00  0.00    +0.000 A 
ATOM      7  C   UNL     1       3.580   5.991  18.038  0.00  0.00    +0.000 A 
ATOM      8  C   UNL     1       3.131   7.253  17.622  0.00  0.00    +0.000 A 
ATOM      9  C   UNL     1       2.355   8.094  18.462  0.00  0.00    +0.000 A 
ATOM     10  C   UNL     1       1.928   9.394  18.088  0.00  0.00    +0.000 A 
ENDROOT
BRANCH   7  11
ATOM     11  N   UNL     1       4.394   5.214  17.202  0.00  0.00    +0.000 N 
ATOM     12  H   UNL     1       3.908   4.426  16.780  0.00  0.00    +0.000 HD
BRANCH  11  13
ATOM     13  C   UNL     1       5.791   4.898  17.576  0.00  0.00    +0.000 C 
ATOM     14  C   UNL     1       6.409   6.037  18.370  0.00  0.00    +0.000 C 
ATOM     15  C   UNL     1       7.297   6.789  17.402  0.00  0.00    +0.000 C 
ATOM     16  O   UNL     1       7.424   6.019  16.208  0.00  0.00    +0.000 OA
ATOM     17  C   UNL     1       6.728   4.777  16.373  0.00  0.00    +0.000 C 
ENDBRANCH  11  13
ENDBRANCH   7  11
BRANCH   1  18
ATOM     18  S   UNL     1       0.673  11.859  18.650  0.00  0.00    +0.000 S 
BRANCH  18  25
ATOM     19  C   UNL     1      -3.263  10.770  16.199  0.00  0.00    +0.000 A 
ATOM     20  C   UNL     1      -4.486  11.034  16.971  0.00  0.00    +0.000 A 
ATOM     21  C   UNL     1      -4.453  11.491  18.237  0.00  0.00    +0.000 A 
ATOM     22  C   UNL     1      -3.205  11.766  18.850  0.00  0.00    +0.000 A 
ATOM     23  N   UNL     1      -2.894  12.232  20.037  0.00  0.00    +0.000 NA
ATOM     24  N   UNL     1      -1.526  12.336  20.095  0.00  0.00    +0.000 NA
ATOM     25  C   UNL     1      -1.030  11.941  18.939  0.00  0.00    +0.000 A 
ATOM     26  N   UNL     1      -2.051  11.524  18.111  0.00  0.00    +0.000 N 
ATOM     27  C   UNL     1      -2.085  10.998  16.822  0.00  0.00    +0.000 A 
BRANCH  19  31
ATOM     28  C   UNL     1      -4.855   9.670  11.646  0.00  0.00    +0.000 C 
ATOM     29  N   UNL     1      -4.047   9.828  12.829  0.00  0.00    +0.000 N 
ATOM     30  C   UNL     1      -4.422  10.409  14.006  0.00  0.00    +0.000 A 
ATOM     31  C   UNL     1      -3.330  10.315  14.844  0.00  0.00    +0.000 A 
ATOM     32  C   UNL     1      -2.348   9.661  14.067  0.00  0.00    +0.000 A 
ATOM     33  N   UNL     1      -2.784   9.365  12.840  0.00  0.00    +0.000 NA
ENDBRANCH  19  31
ENDBRANCH  18  25
ENDBRANCH   1  18
TORSDOF 5
ENDMDL
MODEL 5
REMARK VINA RESULT:      -8.5      1.852      3.036
REMARK  Name = 
REMARK  6 active torsions:
REMARK  status: ('A' for Active; 'I' for Inactive)
REMARK    1  A    between atoms: C_1  and  N_2
REMARK    2  A    between atoms: C_4  and  C_5
REMARK    3  A    between atoms: C_11  and  S_12
REMARK    4  A    between atoms: S_12  and  C_13
REMARK    5  A    between atoms: C_19  and  N_20
REMARK    6  A    between atoms: N_20  and  C_21
REMARK                            x       y       z     vdW  Elec       q    Type
REMARK                         _______ _______ _______ _____ _____    ______ ____
ROOT
ATOM      1  C   UNL     1       1.500   9.528  18.944  0.00  0.00    +0.000 A 
ATOM      2  C   UNL     1       1.036   8.969  20.136  0.00  0.00    +0.000 A 
ATOM      3  C   UNL     1       1.427   7.681  20.517  0.00  0.00    +0.000 A 
ATOM      4  C   UNL     1       2.283   6.920  19.733  0.00  0.00    +0.000 A 
ATOM      5  N   UNL     1       2.683   5.725  20.191  0.00  0.00    +0.000 NA
ATOM      6  C   UNL     1       3.528   4.995  19.413  0.00  0.00    +0.000 A 
ATOM      7  C   UNL     1       3.942   5.327  18.125  0.00  0.00    +0.000 A 
ATOM      8  C   UNL     1       3.541   6.604  17.703  0.00  0.00    +0.000 A 
ATOM      9  C   UNL     1       2.716   7.439  18.499  0.00  0.00    +0.000 A 
ATOM     10  C   UNL     1       2.335   8.753  18.121  0.00  0.00    +0.000 A 
ENDROOT
BRANCH   7  11
ATOM     11  N   UNL     1       4.806   4.555  17.338  0.00  0.00    +0.000 N 
ATOM     12  H   UNL     1       4.445   3.627  17.129  0.00  0.00    +0.000 HD
BRANCH  11  13
ATOM     13  C   UNL     1       6.268   4.568  17.571  0.00  0.00    +0.000 C 
ATOM     14  C   UNL     1       6.689   5.834  18.297  0.00  0.00    +0.000 C 
ATOM     15  C   UNL     1       7.288   6.741  17.244  0.00  0.00    +0.000 C 
ATOM     16  O   UNL     1       7.469   5.990  16.045  0.00  0.00    +0.000 OA
ATOM     17  C   UNL     1       7.088   4.629  16.282  0.00  0.00    +0.000 C 
ENDBRANCH  11  13
ENDBRANCH   7  11
BRANCH   1  18
ATOM     18  S   UNL     1       1.073  11.224  18.636  0.00  0.00    +0.000 S 
BRANCH  18  25
ATOM     19  C   UNL     1      -3.341  12.358  20.018  0.00  0.00    +0.000 A 
ATOM     20  C   UNL     1      -3.386  12.794  21.421  0.00  0.00    +0.000 A 
ATOM     21  C   UNL     1      -2.290  12.815  22.204  0.00  0.00    +0.000 A 
ATOM     22  C   UNL     1      -1.036  12.441  21.661  0.00  0.00    +0.000 A 
ATOM     23  N   UNL     1       0.168  12.396  22.184  0.00  0.00    +0.000 NA
ATOM     24  N   UNL     1       1.032  11.992  21.197  0.00  0.00    +0.000 NA
ATOM     25  C   UNL     1       0.342  11.808  20.089  0.00  0.00    +0.000 A 
ATOM     26  N   UNL     1      -0.996  12.040  20.330  0.00  0.00    +0.000 N 
ATOM     27  C   UNL     1      -2.140  11.965  19.538  0.00  0.00    +0.000 A 
BRANCH  19  31
ATOM     28  C   UNL     1      -7.864  13.302  18.249  0.00  0.00    +0.000 C 
ATOM     29  N   UNL     1      -6.524  12.800  18.428  0.00  0.00    +0.000 N 
ATOM     30  C   UNL     1      -5.663  13.106  19.441  0.00  0.00    +0.000 A 
ATOM     31  C   UNL     1      -4.516  12.378  19.202  0.00  0.00    +0.000 A 
ATOM     32  C   UNL     1      -4.794  11.667  18.013  0.00  0.00    +0.000 A 
ATOM     33  N   UNL     1      -6.017  11.925  17.541  0.00  0.00    +0.000 NA
ENDBRANCH  19  31
ENDBRANCH  18  25
ENDBRANCH   1  18
TORSDOF 5
ENDMDL
MODEL 6
REMARK VINA RESULT:      -8.4      3.490     11.335
REMARK  Name = 
REMARK  6 active torsions:
REMARK  status: ('A' for Active; 'I' for Inactive)
REMARK    1  A    between atoms: C_1  and  N_2
REMARK    2  A    between atoms: C_4  and  C_5
REMARK    3  A    between atoms: C_11  and  S_12
REMARK    4  A    between atoms: S_12  and  C_13
REMARK    5  A    between atoms: C_19  and  N_20
REMARK    6  A    between atoms: N_20  and  C_21
REMARK                            x       y       z     vdW  Elec       q    Type
REMARK                         _______ _______ _______ _____ _____    ______ ____
ROOT
ATOM      1  C   UNL     1       0.493  10.119  18.441  0.00  0.00    +0.000 A 
ATOM      2  C   UNL     1      -0.652   9.779  17.718  0.00  0.00    +0.000 A 
ATOM      3  C   UNL     1      -1.878  10.389  17.999  0.00  0.00    +0.000 A 
ATOM      4  C   UNL     1      -2.001  11.347  18.996  0.00  0.00    +0.000 A 
ATOM      5  N   UNL     1      -3.186  11.951  19.164  0.00  0.00    +0.000 NA
ATOM      6  C   UNL     1      -3.288  12.893  20.141  0.00  0.00    +0.000 A 
ATOM      7  C   UNL     1      -2.296  13.221  21.063  0.00  0.00    +0.000 A 
ATOM      8  C   UNL     1      -1.060  12.603  20.823  0.00  0.00    +0.000 A 
ATOM      9  C   UNL     1      -0.875  11.662  19.777  0.00  0.00    +0.000 A 
ATOM     10  C   UNL     1       0.374  11.058  19.481  0.00  0.00    +0.000 A 
ENDROOT
BRANCH   7  11
ATOM     11  N   UNL     1      -2.426  14.190  22.068  0.00  0.00    +0.000 N 
ATOM     12  H   UNL     1      -1.768  14.960  21.976  0.00  0.00    +0.000 HD
BRANCH  11  13
ATOM     13  C   UNL     1      -2.669  13.802  23.475  0.00  0.00    +0.000 C 
ATOM     14  C   UNL     1      -3.476  12.517  23.551  0.00  0.00    +0.000 C 
ATOM     15  C   UNL     1      -4.895  12.931  23.875  0.00  0.00    +0.000 C 
ATOM     16  O   UNL     1      -4.895  14.310  24.237  0.00  0.00    +0.000 OA
ATOM     17  C   UNL     1      -3.547  14.797  24.235  0.00  0.00    +0.000 C 
ENDBRANCH  11  13
ENDBRANCH   7  11
BRANCH   1  18
ATOM     18  S   UNL     1       2.026   9.406  17.897  0.00  0.00    +0.000 S 
BRANCH  18  25
ATOM     19  C   UNL     1       4.665   5.463  17.477  0.00  0.00    +0.000 A 
ATOM     20  C   UNL     1       4.437   4.525  18.585  0.00  0.00    +0.000 A 
ATOM     21  C   UNL     1       3.603   4.804  19.604  0.00  0.00    +0.000 A 
ATOM     22  C   UNL     1       2.884   6.026  19.606  0.00  0.00    +0.000 A 
ATOM     23  N   UNL     1       2.006   6.526  20.444  0.00  0.00    +0.000 NA
ATOM     24  N   UNL     1       1.596   7.735  19.941  0.00  0.00    +0.000 NA
ATOM     25  C   UNL     1       2.224   7.946  18.801  0.00  0.00    +0.000 A 
ATOM     26  N   UNL     1       3.094   6.905  18.549  0.00  0.00    +0.000 N 
ATOM     27  C   UNL     1       4.001   6.640  17.525  0.00  0.00    +0.000 A 
BRANCH  19  31
ATOM     28  C   UNL     1       6.428   3.791  13.167  0.00  0.00    +0.000 C 
ATOM     29  N   UNL     1       6.305   4.378  14.479  0.00  0.00    +0.000 N 
ATOM     30  C   UNL     1       5.157   4.539  15.199  0.00  0.00    +0.000 A 
ATOM     31  C   UNL     1       5.533   5.126  16.391  0.00  0.00    +0.000 A 
ATOM     32  C   UNL     1       6.933   5.275  16.281  0.00  0.00    +0.000 A 
ATOM     33  N   UNL     1       7.403   4.820  15.116  0.00  0.00    +0.000 NA
ENDBRANCH  19  31
ENDBRANCH  18  25
ENDBRANCH   1  18
TORSDOF 5
ENDMDL
MODEL 7
REMARK VINA RESULT:      -8.4      1.818      2.268
REMARK  Name = 
REMARK  6 active torsions:
REMARK  status: ('A' for Active; 'I' for Inactive)
REMARK    1  A    between atoms: C_1  and  N_2
REMARK    2  A    between atoms: C_4  and  C_5
REMARK    3  A    between atoms: C_11  and  S_12
REMARK    4  A    between atoms: S_12  and  C_13
REMARK    5  A    between atoms: C_19  and  N_20
REMARK    6  A    between atoms: N_20  and  C_21
REMARK                            x       y       z     vdW  Elec       q    Type
REMARK                         _______ _______ _______ _____ _____    ______ ____
ROOT
ATOM      1  C   UNL     1       1.738   7.126  20.417  0.00  0.00    +0.000 A 
ATOM      2  C   UNL     1       1.301   5.952  21.032  0.00  0.00    +0.000 A 
ATOM      3  C   UNL     1       1.675   4.703  20.526  0.00  0.00    +0.000 A 
ATOM      4  C   UNL     1       2.486   4.585  19.406  0.00  0.00    +0.000 A 
ATOM      5  N   UNL     1       2.873   3.362  19.018  0.00  0.00    +0.000 NA
ATOM      6  C   UNL     1       3.674   3.265  17.922  0.00  0.00    +0.000 A 
ATOM      7  C   UNL     1       4.052   4.319  17.094  0.00  0.00    +0.000 A 
ATOM      8  C   UNL     1       3.668   5.585  17.561  0.00  0.00    +0.000 A 
ATOM      9  C   UNL     1       2.889   5.753  18.734  0.00  0.00    +0.000 A 
ATOM     10  C   UNL     1       2.527   7.022  19.258  0.00  0.00    +0.000 A 
ENDROOT
BRANCH   7  11
ATOM     11  N   UNL     1       4.872   4.195  15.964  0.00  0.00    +0.000 N 
ATOM     12  H   UNL     1       4.481   3.593  15.243  0.00  0.00    +0.000 HD
BRANCH  11  13
ATOM     13  C   UNL     1       6.340   4.060  16.097  0.00  0.00    +0.000 C 
ATOM     14  C   UNL     1       6.808   4.549  17.457  0.00  0.00    +0.000 C 
ATOM     15  C   UNL     1       7.392   5.926  17.229  0.00  0.00    +0.000 C 
ATOM     16  O   UNL     1       7.521   6.140  15.825  0.00  0.00    +0.000 OA
ATOM     17  C   UNL     1       7.121   4.951  15.130  0.00  0.00    +0.000 C 
ENDBRANCH  11  13
ENDBRANCH   7  11
BRANCH   1  18
ATOM     18  S   UNL     1       1.341   8.653  21.232  0.00  0.00    +0.000 S 
BRANCH  18  25
ATOM     19  C   UNL     1      -1.727  12.290  21.436  0.00  0.00    +0.000 A 
ATOM     20  C   UNL     1      -2.159  12.725  20.100  0.00  0.00    +0.000 A 
ATOM     21  C   UNL     1      -1.685  12.162  18.972  0.00  0.00    +0.000 A 
ATOM     22  C   UNL     1      -0.764  11.088  19.059  0.00  0.00    +0.000 A 
ATOM     23  N   UNL     1      -0.178  10.359  18.139  0.00  0.00    +0.000 NA
ATOM     24  N   UNL     1       0.597   9.426  18.782  0.00  0.00    +0.000 NA
ATOM     25  C   UNL     1       0.460   9.597  20.082  0.00  0.00    +0.000 A 
ATOM     26  N   UNL     1      -0.367  10.673  20.326  0.00  0.00    +0.000 N 
ATOM     27  C   UNL     1      -0.816  11.294  21.490  0.00  0.00    +0.000 A 
BRANCH  19  31
ATOM     28  C   UNL     1      -2.400  15.129  25.432  0.00  0.00    +0.000 C 
ATOM     29  N   UNL     1      -2.559  14.146  24.389  0.00  0.00    +0.000 N 
ATOM     30  C   UNL     1      -1.723  13.929  23.333  0.00  0.00    +0.000 A 
ATOM     31  C   UNL     1      -2.273  12.885  22.618  0.00  0.00    +0.000 A 
ATOM     32  C   UNL     1      -3.443  12.549  23.333  0.00  0.00    +0.000 A 
ATOM     33  N   UNL     1      -3.618  13.318  24.412  0.00  0.00    +0.000 NA
ENDBRANCH  19  31
ENDBRANCH  18  25
ENDBRANCH   1  18
TORSDOF 5
ENDMDL
MODEL 8
REMARK VINA RESULT:      -8.3      3.632     11.378
REMARK  Name = 
REMARK  6 active torsions:
REMARK  status: ('A' for Active; 'I' for Inactive)
REMARK    1  A    between atoms: C_1  and  N_2
REMARK    2  A    between atoms: C_4  and  C_5
REMARK    3  A    between atoms: C_11  and  S_12
REMARK    4  A    between atoms: S_12  and  C_13
REMARK    5  A    between atoms: C_19  and  N_20
REMARK    6  A    between atoms: N_20  and  C_21
REMARK                            x       y       z     vdW  Elec       q    Type
REMARK                         _______ _______ _______ _____ _____    ______ ____
ROOT
ATOM      1  C   UNL     1       0.870   9.915  18.750  0.00  0.00    +0.000 A 
ATOM      2  C   UNL     1      -0.312   9.946  18.008  0.00  0.00    +0.000 A 
ATOM      3  C   UNL     1      -1.438  10.618  18.494  0.00  0.00    +0.000 A 
ATOM      4  C   UNL     1      -1.422  11.273  19.718  0.00  0.00    +0.000 A 
ATOM      5  N   UNL     1      -2.508  11.965  20.092  0.00  0.00    +0.000 NA
ATOM      6  C   UNL     1      -2.473  12.607  21.291  0.00  0.00    +0.000 A 
ATOM      7  C   UNL     1      -1.443  12.530  22.226  0.00  0.00    +0.000 A 
ATOM      8  C   UNL     1      -0.308  11.838  21.778  0.00  0.00    +0.000 A 
ATOM      9  C   UNL     1      -0.261  11.205  20.509  0.00  0.00    +0.000 A 
ATOM     10  C   UNL     1       0.888  10.540  20.009  0.00  0.00    +0.000 A 
ENDROOT
BRANCH   7  11
ATOM     11  N   UNL     1      -1.432  13.194  23.461  0.00  0.00    +0.000 N 
ATOM     12  H   UNL     1      -1.659  12.590  24.248  0.00  0.00    +0.000 HD
BRANCH  11  13
ATOM     13  C   UNL     1      -1.987  14.559  23.599  0.00  0.00    +0.000 C 
ATOM     14  C   UNL     1      -0.907  15.543  24.016  0.00  0.00    +0.000 C 
ATOM     15  C   UNL     1      -1.107  15.780  25.498  0.00  0.00    +0.000 C 
ATOM     16  O   UNL     1      -2.357  15.214  25.886  0.00  0.00    +0.000 OA
ATOM     17  C   UNL     1      -3.013  14.685  24.726  0.00  0.00    +0.000 C 
ENDBRANCH  11  13
ENDBRANCH   7  11
BRANCH   1  18
ATOM     18  S   UNL     1       2.284   9.175  17.971  0.00  0.00    +0.000 S 
BRANCH  18  25
ATOM     19  C   UNL     1       4.851   5.266  17.067  0.00  0.00    +0.000 A 
ATOM     20  C   UNL     1       4.643   4.222  18.080  0.00  0.00    +0.000 A 
ATOM     21  C   UNL     1       3.843   4.405  19.148  0.00  0.00    +0.000 A 
ATOM     22  C   UNL     1       3.143   5.628  19.297  0.00  0.00    +0.000 A 
ATOM     23  N   UNL     1       2.298   6.050  20.210  0.00  0.00    +0.000 NA
ATOM     24  N   UNL     1       1.892   7.309  19.845  0.00  0.00    +0.000 NA
ATOM     25  C   UNL     1       2.488   7.628  18.714  0.00  0.00    +0.000 A 
ATOM     26  N   UNL     1       3.335   6.609  18.330  0.00  0.00    +0.000 N 
ATOM     27  C   UNL     1       4.206   6.439  17.256  0.00  0.00    +0.000 A 
BRANCH  19  31
ATOM     28  C   UNL     1       6.547   3.733  12.680  0.00  0.00    +0.000 C 
ATOM     29  N   UNL     1       6.424   4.344  13.980  0.00  0.00    +0.000 N 
ATOM     30  C   UNL     1       5.322   4.345  14.784  0.00  0.00    +0.000 A 
ATOM     31  C   UNL     1       5.681   5.032  15.926  0.00  0.00    +0.000 A 
ATOM     32  C   UNL     1       7.025   5.404  15.701  0.00  0.00    +0.000 A 
ATOM     33  N   UNL     1       7.478   4.986  14.516  0.00  0.00    +0.000 NA
ENDBRANCH  19  31
ENDBRANCH  18  25
ENDBRANCH   1  18
TORSDOF 5
ENDMDL
MODEL 9
REMARK VINA RESULT:      -8.3      3.233      4.916
REMARK  Name = 
REMARK  6 active torsions:
REMARK  status: ('A' for Active; 'I' for Inactive)
REMARK    1  A    between atoms: C_1  and  N_2
REMARK    2  A    between atoms: C_4  and  C_5
REMARK    3  A    between atoms: C_11  and  S_12
REMARK    4  A    between atoms: S_12  and  C_13
REMARK    5  A    between atoms: C_19  and  N_20
REMARK    6  A    between atoms: N_20  and  C_21
REMARK                            x       y       z     vdW  Elec       q    Type
REMARK                         _______ _______ _______ _____ _____    ______ ____
ROOT
ATOM      1  C   UNL     1       1.596   8.058  20.281  0.00  0.00    +0.000 A 
ATOM      2  C   UNL     1       1.739   8.604  19.004  0.00  0.00    +0.000 A 
ATOM      3  C   UNL     1       2.511   7.954  18.036  0.00  0.00    +0.000 A 
ATOM      4  C   UNL     1       3.156   6.755  18.305  0.00  0.00    +0.000 A 
ATOM      5  N   UNL     1       3.816   6.143  17.311  0.00  0.00    +0.000 NA
ATOM      6  C   UNL     1       4.436   4.964  17.590  0.00  0.00    +0.000 A 
ATOM      7  C   UNL     1       4.540   4.376  18.848  0.00  0.00    +0.000 A 
ATOM      8  C   UNL     1       3.797   5.021  19.849  0.00  0.00    +0.000 A 
ATOM      9  C   UNL     1       3.075   6.216  19.602  0.00  0.00    +0.000 A 
ATOM     10  C   UNL     1       2.276   6.864  20.580  0.00  0.00    +0.000 A 
ENDROOT
BRANCH   7  11
ATOM     11  N   UNL     1       5.193   3.164  19.114  0.00  0.00    +0.000 N 
ATOM     12  H   UNL     1       5.968   2.973  18.483  0.00  0.00    +0.000 HD
BRANCH  11  13
ATOM     13  C   UNL     1       4.429   1.949  19.475  0.00  0.00    +0.000 C 
ATOM     14  C   UNL     1       3.503   1.535  18.344  0.00  0.00    +0.000 C 
ATOM     15  C   UNL     1       2.119   1.997  18.744  0.00  0.00    +0.000 C 
ATOM     16  O   UNL     1       2.152   2.404  20.111  0.00  0.00    +0.000 OA
ATOM     17  C   UNL     1       3.462   2.164  20.640  0.00  0.00    +0.000 C 
ENDBRANCH  11  13
ENDBRANCH   7  11
BRANCH   1  18
ATOM     18  S   UNL     1       0.466   8.876  21.380  0.00  0.00    +0.000 S 
BRANCH  18  25
ATOM     19  C   UNL     1      -1.735  11.781  18.315  0.00  0.00    +0.000 A 
ATOM     20  C   UNL     1      -1.267  13.169  18.436  0.00  0.00    +0.000 A 
ATOM     21  C   UNL     1      -0.351  13.543  19.349  0.00  0.00    +0.000 A 
ATOM     22  C   UNL     1       0.218  12.570  20.208  0.00  0.00    +0.000 A 
ATOM     23  N   UNL     1       1.129  12.656  21.150  0.00  0.00    +0.000 NA
ATOM     24  N   UNL     1       1.332  11.392  21.645  0.00  0.00    +0.000 NA
ATOM     25  C   UNL     1       0.549  10.558  20.990  0.00  0.00    +0.000 A 
ATOM     26  N   UNL     1      -0.221  11.256  20.083  0.00  0.00    +0.000 N 
ATOM     27  C   UNL     1      -1.210  10.881  19.176  0.00  0.00    +0.000 A 
BRANCH  19  31
ATOM     28  C   UNL     1      -3.817  10.071  14.165  0.00  0.00    +0.000 C 
ATOM     29  N   UNL     1      -3.598  10.650  15.468  0.00  0.00    +0.000 N 
ATOM     30  C   UNL     1      -2.403  10.789  16.112  0.00  0.00    +0.000 A 
ATOM     31  C   UNL     1      -2.686  11.407  17.313  0.00  0.00    +0.000 A 
ATOM     32  C   UNL     1      -4.086  11.593  17.290  0.00  0.00    +0.000 A 
ATOM     33  N   UNL     1      -4.642  11.131  16.166  0.00  0.00    +0.000 NA
ENDBRANCH  19  31
ENDBRANCH  18  25
ENDBRANCH   1  18
TORSDOF 5
ENDMDL
