MODEL 1
REMARK VINA RESULT:      -8.0      0.000      0.000
REMARK  Name = 
REMARK  5 active torsions:
REMARK  status: ('A' for Active; 'I' for Inactive)
REMARK    1  A    between atoms: C_1  and  N_2
REMARK    2  A    between atoms: C_4  and  C_5
REMARK    3  A    between atoms: N_7  and  C_8
REMARK    4  A    between atoms: C_18  and  S_19
REMARK    5  A    between atoms: S_19  and  N_22
REMARK                            x       y       z     vdW  Elec       q    Type
REMARK                         _______ _______ _______ _____ _____    ______ ____
ROOT
ATOM      1  C   UNL     1       0.578   8.235  22.403  0.00  0.00    +0.000 C 
ATOM      2  N   UNL     1       0.974   8.448  21.009  0.00  0.00    +0.000 N 
ATOM      3  C   UNL     1       0.445   9.487  20.265  0.00  0.00    +0.000 A 
ATOM      4  C   UNL     1       0.683   9.760  18.971  0.00  0.00    +0.000 A 
ATOM      5  C   UNL     1       1.616   8.852  18.262  0.00  0.00    +0.000 A 
ATOM      6  O   UNL     1       1.970   9.075  17.107  0.00  0.00    +0.000 OA
ATOM      7  C   UNL     1       2.096   7.639  18.997  0.00  0.00    +0.000 A 
ATOM      8  C   UNL     1       2.835   6.663  18.304  0.00  0.00    +0.000 A 
ATOM      9  C   UNL     1       3.256   5.510  18.977  0.00  0.00    +0.000 A 
ATOM     10  C   UNL     1       2.947   5.332  20.324  0.00  0.00    +0.000 A 
ATOM     11  C   UNL     1       2.216   6.309  21.007  0.00  0.00    +0.000 A 
ATOM     12  C   UNL     1       1.763   7.473  20.361  0.00  0.00    +0.000 A 
ENDROOT
BRANCH   4  13
ATOM     13  C   UNL     1      -0.064  10.907  18.379  0.00  0.00    +0.000 C 
ATOM     14  O   UNL     1       0.248  12.059  18.676  0.00  0.00    +0.000 OA
ATOM     15  N   UNL     1      -1.124  10.616  17.542  0.00  0.00    +0.000 N 
ATOM     16  H   UNL     1      -1.433   9.645  17.526  0.00  0.00    +0.000 HD
BRANCH  15  17
ATOM     17  C   UNL     1      -2.080  11.676  17.199  0.00  0.00    +0.000 C 
ATOM     18  C   UNL     1      -2.835  11.415  15.871  0.00  0.00    +0.000 C 
ATOM     19  C   UNL     1      -4.283  10.944  15.968  0.00  0.00    +0.000 C 
ATOM     20  C   UNL     1      -5.058  11.674  17.048  0.00  0.00    +0.000 C 
ATOM     21  C   UNL     1      -4.373  11.459  18.388  0.00  0.00    +0.000 C 
ATOM     22  C   UNL     1      -2.978  12.072  18.386  0.00  0.00    +0.000 C 
ENDBRANCH  15  17
ENDBRANCH   4  13
BRANCH   9  23
ATOM     23  S   UNL     1       3.991   4.159  18.073  0.00  0.00    +0.000 S 
ATOM     24  O   UNL     1       4.533   3.242  19.048  0.00  0.00    +0.000 OA
ATOM     25  O   UNL     1       3.012   3.722  17.106  0.00  0.00    +0.000 OA
BRANCH  23  26
ATOM     26  N   UNL     1       5.264   4.862  17.252  0.00  0.00    +0.000 NA
ATOM     27  C   UNL     1       5.369   4.821  15.781  0.00  0.00    +0.000 C 
ATOM     28  C   UNL     1       6.653   4.117  15.332  0.00  0.00    +0.000 C 
ATOM     29  O   UNL     1       7.815   4.646  15.985  0.00  0.00    +0.000 OA
ATOM     30  C   UNL     1       7.704   4.507  17.408  0.00  0.00    +0.000 C 
ATOM     31  C   UNL     1       6.498   5.277  17.947  0.00  0.00    +0.000 C 
ENDBRANCH  23  26
ENDBRANCH   9  23
TORSDOF 4
ENDMDL
MODEL 2
REMARK VINA RESULT:      -7.9      3.013      3.991
REMARK  Name = 
REMARK  5 active torsions:
REMARK  status: ('A' for Active; 'I' for Inactive)
REMARK    1  A    between atoms: C_1  and  N_2
REMARK    2  A    between atoms: C_4  and  C_5
REMARK    3  A    between atoms: N_7  and  C_8
REMARK    4  A    between atoms: C_18  and  S_19
REMARK    5  A    between atoms: S_19  and  N_22
REMARK                            x       y       z     vdW  Elec       q    Type
REMARK                         _______ _______ _______ _____ _____    ______ ____
ROOT
ATOM      1  C   UNL     1       1.721  11.763  18.025  0.00  0.00    +0.000 C 
ATOM      2  N   UNL     1       1.378  10.734  19.011  0.00  0.00    +0.000 N 
ATOM      3  C   UNL     1       0.769  11.064  20.208  0.00  0.00    +0.000 A 
ATOM      4  C   UNL     1       0.451  10.229  21.212  0.00  0.00    +0.000 A 
ATOM      5  C   UNL     1       0.786   8.799  21.017  0.00  0.00    +0.000 A 
ATOM      6  O   UNL     1       0.450   7.947  21.835  0.00  0.00    +0.000 OA
ATOM      7  C   UNL     1       1.571   8.430  19.796  0.00  0.00    +0.000 A 
ATOM      8  C   UNL     1       2.061   7.119  19.663  0.00  0.00    +0.000 A 
ATOM      9  C   UNL     1       2.825   6.778  18.541  0.00  0.00    +0.000 A 
ATOM     10  C   UNL     1       3.096   7.731  17.561  0.00  0.00    +0.000 A 
ATOM     11  C   UNL     1       2.600   9.032  17.697  0.00  0.00    +0.000 A 
ATOM     12  C   UNL     1       1.842   9.415  18.818  0.00  0.00    +0.000 A 
ENDROOT
BRANCH   4  13
ATOM     13  C   UNL     1      -0.145  10.845  22.432  0.00  0.00    +0.000 C 
ATOM     14  O   UNL     1      -0.159  10.217  23.490  0.00  0.00    +0.000 OA
ATOM     15  N   UNL     1      -0.709  12.099  22.306  0.00  0.00    +0.000 N 
ATOM     16  H   UNL     1      -0.837  12.442  21.355  0.00  0.00    +0.000 HD
BRANCH  15  17
ATOM     17  C   UNL     1      -1.584  12.605  23.372  0.00  0.00    +0.000 C 
ATOM     18  C   UNL     1      -1.404  14.119  23.646  0.00  0.00    +0.000 C 
ATOM     19  C   UNL     1      -2.480  15.061  23.116  0.00  0.00    +0.000 C 
ATOM     20  C   UNL     1      -3.879  14.507  23.305  0.00  0.00    +0.000 C 
ATOM     21  C   UNL     1      -3.989  13.171  22.589  0.00  0.00    +0.000 C 
ATOM     22  C   UNL     1      -3.045  12.146  23.207  0.00  0.00    +0.000 C 
ENDBRANCH  15  17
ENDBRANCH   4  13
BRANCH   9  23
ATOM     23  S   UNL     1       3.648   5.197  18.459  0.00  0.00    +0.000 S 
ATOM     24  O   UNL     1       4.044   4.856  19.805  0.00  0.00    +0.000 OA
ATOM     25  O   UNL     1       2.794   4.321  17.691  0.00  0.00    +0.000 OA
BRANCH  23  26
ATOM     26  N   UNL     1       5.028   5.501  17.569  0.00  0.00    +0.000 NA
ATOM     27  C   UNL     1       5.147   5.120  16.149  0.00  0.00    +0.000 C 
ATOM     28  C   UNL     1       6.310   4.149  15.925  0.00  0.00    +0.000 C 
ATOM     29  O   UNL     1       7.531   4.628  16.505  0.00  0.00    +0.000 OA
ATOM     30  C   UNL     1       7.379   4.825  17.917  0.00  0.00    +0.000 C 
ATOM     31  C   UNL     1       6.302   5.868  18.217  0.00  0.00    +0.000 C 
ENDBRANCH  23  26
ENDBRANCH   9  23
TORSDOF 4
ENDMDL
MODEL 3
REMARK VINA RESULT:      -7.8      0.662      1.104
REMARK  Name = 
REMARK  5 active torsions:
REMARK  status: ('A' for Active; 'I' for Inactive)
REMARK    1  A    between atoms: C_1  and  N_2
REMARK    2  A    between atoms: C_4  and  C_5
REMARK    3  A    between atoms: N_7  and  C_8
REMARK    4  A    between atoms: C_18  and  S_19
REMARK    5  A    between atoms: S_19  and  N_22
REMARK                            x       y       z     vdW  Elec       q    Type
REMARK                         _______ _______ _______ _____ _____    ______ ____
ROOT
ATOM      1  C   UNL     1       0.620   7.941  22.212  0.00  0.00    +0.000 C 
ATOM      2  N   UNL     1       1.088   8.184  20.845  0.00  0.00    +0.000 N 
ATOM      3  C   UNL     1       0.596   9.237  20.096  0.00  0.00    +0.000 A 
ATOM      4  C   UNL     1       0.901   9.537  18.821  0.00  0.00    +0.000 A 
ATOM      5  C   UNL     1       1.872   8.646  18.144  0.00  0.00    +0.000 A 
ATOM      6  O   UNL     1       2.285   8.893  17.014  0.00  0.00    +0.000 OA
ATOM      7  C   UNL     1       2.317   7.419  18.878  0.00  0.00    +0.000 A 
ATOM      8  C   UNL     1       3.095   6.459  18.205  0.00  0.00    +0.000 A 
ATOM      9  C   UNL     1       3.483   5.293  18.876  0.00  0.00    +0.000 A 
ATOM     10  C   UNL     1       3.104   5.086  20.200  0.00  0.00    +0.000 A 
ATOM     11  C   UNL     1       2.335   6.048  20.864  0.00  0.00    +0.000 A 
ATOM     12  C   UNL     1       1.913   7.224  20.219  0.00  0.00    +0.000 A 
ENDROOT
BRANCH   4  13
ATOM     13  C   UNL     1       0.182  10.694  18.215  0.00  0.00    +0.000 C 
ATOM     14  O   UNL     1       0.634  11.831  18.343  0.00  0.00    +0.000 OA
ATOM     15  N   UNL     1      -1.008  10.437  17.563  0.00  0.00    +0.000 N 
ATOM     16  H   UNL     1      -1.402   9.506  17.693  0.00  0.00    +0.000 HD
BRANCH  15  17
ATOM     17  C   UNL     1      -1.906  11.553  17.238  0.00  0.00    +0.000 C 
ATOM     18  C   UNL     1      -2.727  11.324  15.945  0.00  0.00    +0.000 C 
ATOM     19  C   UNL     1      -4.198  10.952  16.105  0.00  0.00    +0.000 C 
ATOM     20  C   UNL     1      -4.880  11.747  17.201  0.00  0.00    +0.000 C 
ATOM     21  C   UNL     1      -4.160  11.506  18.517  0.00  0.00    +0.000 C 
ATOM     22  C   UNL     1      -2.728  12.025  18.452  0.00  0.00    +0.000 C 
ENDBRANCH  15  17
ENDBRANCH   4  13
BRANCH   9  23
ATOM     23  S   UNL     1       4.269   3.963  17.984  0.00  0.00    +0.000 S 
ATOM     24  O   UNL     1       4.377   2.848  18.895  0.00  0.00    +0.000 OA
ATOM     25  O   UNL     1       3.568   3.831  16.728  0.00  0.00    +0.000 OA
BRANCH  23  26
ATOM     26  N   UNL     1       5.807   4.534  17.671  0.00  0.00    +0.000 NA
ATOM     27  C   UNL     1       6.413   5.628  18.453  0.00  0.00    +0.000 C 
ATOM     28  C   UNL     1       6.770   6.822  17.561  0.00  0.00    +0.000 C 
ATOM     29  O   UNL     1       7.537   6.429  16.415  0.00  0.00    +0.000 OA
ATOM     30  C   UNL     1       6.813   5.478  15.621  0.00  0.00    +0.000 C 
ATOM     31  C   UNL     1       6.513   4.207  16.417  0.00  0.00    +0.000 C 
ENDBRANCH  23  26
ENDBRANCH   9  23
TORSDOF 4
ENDMDL
MODEL 4
REMARK VINA RESULT:      -7.8      3.608      5.056
REMARK  Name = 
REMARK  5 active torsions:
REMARK  status: ('A' for Active; 'I' for Inactive)
REMARK    1  A    between atoms: C_1  and  N_2
REMARK    2  A    between atoms: C_4  and  C_5
REMARK    3  A    between atoms: N_7  and  C_8
REMARK    4  A    between atoms: C_18  and  S_19
REMARK    5  A    between atoms: S_19  and  N_22
REMARK                            x       y       z     vdW  Elec       q    Type
REMARK                         _______ _______ _______ _____ _____    ______ ____
ROOT
ATOM      1  C   UNL     1       1.543  12.205  18.140  0.00  0.00    +0.000 C 
ATOM      2  N   UNL     1       1.073  11.193  19.090  0.00  0.00    +0.000 N 
ATOM      3  C   UNL     1       0.354  11.548  20.217  0.00  0.00    +0.000 A 
ATOM      4  C   UNL     1      -0.087  10.730  21.188  0.00  0.00    +0.000 A 
ATOM      5  C   UNL     1       0.228   9.290  21.035  0.00  0.00    +0.000 A 
ATOM      6  O   UNL     1      -0.214   8.453  21.819  0.00  0.00    +0.000 OA
ATOM      7  C   UNL     1       1.122   8.891  19.903  0.00  0.00    +0.000 A 
ATOM      8  C   UNL     1       1.589   7.566  19.828  0.00  0.00    +0.000 A 
ATOM      9  C   UNL     1       2.454   7.196  18.792  0.00  0.00    +0.000 A 
ATOM     10  C   UNL     1       2.849   8.134  17.840  0.00  0.00    +0.000 A 
ATOM     11  C   UNL     1       2.377   9.448  17.918  0.00  0.00    +0.000 A 
ATOM     12  C   UNL     1       1.519   9.860  18.953  0.00  0.00    +0.000 A 
ENDROOT
BRANCH   4  13
ATOM     13  C   UNL     1      -0.789  11.370  22.337  0.00  0.00    +0.000 C 
ATOM     14  O   UNL     1      -0.538  11.008  23.486  0.00  0.00    +0.000 OA
ATOM     15  N   UNL     1      -1.742  12.328  22.052  0.00  0.00    +0.000 N 
ATOM     16  H   UNL     1      -2.026  12.405  21.076  0.00  0.00    +0.000 HD
BRANCH  15  17
ATOM     17  C   UNL     1      -2.677  12.747  23.103  0.00  0.00    +0.000 C 
ATOM     18  C   UNL     1      -2.259  14.062  23.808  0.00  0.00    +0.000 C 
ATOM     19  C   UNL     1      -3.021  15.330  23.436  0.00  0.00    +0.000 C 
ATOM     20  C   UNL     1      -4.511  15.090  23.295  0.00  0.00    +0.000 C 
ATOM     21  C   UNL     1      -4.749  14.034  22.228  0.00  0.00    +0.000 C 
ATOM     22  C   UNL     1      -4.147  12.698  22.645  0.00  0.00    +0.000 C 
ENDBRANCH  15  17
ENDBRANCH   4  13
BRANCH   9  23
ATOM     23  S   UNL     1       3.238   5.594  18.803  0.00  0.00    +0.000 S 
ATOM     24  O   UNL     1       3.311   5.149  17.432  0.00  0.00    +0.000 OA
ATOM     25  O   UNL     1       4.431   5.719  19.608  0.00  0.00    +0.000 OA
BRANCH  23  26
ATOM     26  N   UNL     1       2.155   4.616  19.615  0.00  0.00    +0.000 NA
ATOM     27  C   UNL     1       2.201   4.438  21.079  0.00  0.00    +0.000 C 
ATOM     28  C   UNL     1       2.418   2.970  21.458  0.00  0.00    +0.000 C 
ATOM     29  O   UNL     1       1.494   2.099  20.794  0.00  0.00    +0.000 OA
ATOM     30  C   UNL     1       1.620   2.216  19.369  0.00  0.00    +0.000 C 
ATOM     31  C   UNL     1       1.310   3.639  18.902  0.00  0.00    +0.000 C 
ENDBRANCH  23  26
ENDBRANCH   9  23
TORSDOF 4
ENDMDL
MODEL 5
REMARK VINA RESULT:      -7.7      2.292      3.137
REMARK  Name = 
REMARK  5 active torsions:
REMARK  status: ('A' for Active; 'I' for Inactive)
REMARK    1  A    between atoms: C_1  and  N_2
REMARK    2  A    between atoms: C_4  and  C_5
REMARK    3  A    between atoms: N_7  and  C_8
REMARK    4  A    between atoms: C_18  and  S_19
REMARK    5  A    between atoms: S_19  and  N_22
REMARK                            x       y       z     vdW  Elec       q    Type
REMARK                         _______ _______ _______ _____ _____    ______ ____
ROOT
ATOM      1  C   UNL     1      -0.056   8.226  22.342  0.00  0.00    +0.000 C 
ATOM      2  N   UNL     1       0.637   8.566  21.097  0.00  0.00    +0.000 N 
ATOM      3  C   UNL     1       0.394   9.761  20.445  0.00  0.00    +0.000 A 
ATOM      4  C   UNL     1       0.920  10.169  19.277  0.00  0.00    +0.000 A 
ATOM      5  C   UNL     1       1.866   9.239  18.615  0.00  0.00    +0.000 A 
ATOM      6  O   UNL     1       2.470   9.562  17.595  0.00  0.00    +0.000 OA
ATOM      7  C   UNL     1       2.043   7.881  19.221  0.00  0.00    +0.000 A 
ATOM      8  C   UNL     1       2.790   6.911  18.528  0.00  0.00    +0.000 A 
ATOM      9  C   UNL     1       2.929   5.629  19.074  0.00  0.00    +0.000 A 
ATOM     10  C   UNL     1       2.334   5.318  20.294  0.00  0.00    +0.000 A 
ATOM     11  C   UNL     1       1.597   6.289  20.979  0.00  0.00    +0.000 A 
ATOM     12  C   UNL     1       1.423   7.583  20.456  0.00  0.00    +0.000 A 
ENDROOT
BRANCH   4  13
ATOM     13  C   UNL     1       0.447  11.481  18.750  0.00  0.00    +0.000 C 
ATOM     14  O   UNL     1      -0.500  11.519  17.965  0.00  0.00    +0.000 OA
ATOM     15  N   UNL     1       1.136  12.613  19.138  0.00  0.00    +0.000 N 
ATOM     16  H   UNL     1       2.024  12.459  19.614  0.00  0.00    +0.000 HD
BRANCH  15  17
ATOM     17  C   UNL     1       0.925  13.869  18.407  0.00  0.00    +0.000 C 
ATOM     18  C   UNL     1      -0.188  14.756  19.021  0.00  0.00    +0.000 C 
ATOM     19  C   UNL     1       0.251  15.976  19.824  0.00  0.00    +0.000 C 
ATOM     20  C   UNL     1       1.412  16.707  19.179  0.00  0.00    +0.000 C 
ATOM     21  C   UNL     1       2.588  15.754  19.038  0.00  0.00    +0.000 C 
ATOM     22  C   UNL     1       2.242  14.605  18.099  0.00  0.00    +0.000 C 
ENDBRANCH  15  17
ENDBRANCH   4  13
BRANCH   9  23
ATOM     23  S   UNL     1       3.671   4.320  18.115  0.00  0.00    +0.000 S 
ATOM     24  O   UNL     1       4.136   3.323  19.049  0.00  0.00    +0.000 OA
ATOM     25  O   UNL     1       2.729   3.981  17.073  0.00  0.00    +0.000 OA
BRANCH  23  26
ATOM     26  N   UNL     1       5.003   5.038  17.407  0.00  0.00    +0.000 NA
ATOM     27  C   UNL     1       5.206   5.047  15.946  0.00  0.00    +0.000 C 
ATOM     28  C   UNL     1       6.511   4.345  15.559  0.00  0.00    +0.000 C 
ATOM     29  O   UNL     1       7.631   4.837  16.307  0.00  0.00    +0.000 OA
ATOM     30  C   UNL     1       7.423   4.649  17.714  0.00  0.00    +0.000 C 
ATOM     31  C   UNL     1       6.190   5.413  18.198  0.00  0.00    +0.000 C 
ENDBRANCH  23  26
ENDBRANCH   9  23
TORSDOF 4
ENDMDL
MODEL 6
REMARK VINA RESULT:      -7.6      1.751      2.564
REMARK  Name = 
REMARK  5 active torsions:
REMARK  status: ('A' for Active; 'I' for Inactive)
REMARK    1  A    between atoms: C_1  and  N_2
REMARK    2  A    between atoms: C_4  and  C_5
REMARK    3  A    between atoms: N_7  and  C_8
REMARK    4  A    between atoms: C_18  and  S_19
REMARK    5  A    between atoms: S_19  and  N_22
REMARK                            x       y       z     vdW  Elec       q    Type
REMARK                         _______ _______ _______ _____ _____    ______ ____
ROOT
ATOM      1  C   UNL     1       0.476   8.034  22.188  0.00  0.00    +0.000 C 
ATOM      2  N   UNL     1       0.969   8.377  20.852  0.00  0.00    +0.000 N 
ATOM      3  C   UNL     1       0.418   9.420  20.130  0.00  0.00    +0.000 A 
ATOM      4  C   UNL     1       0.741   9.802  18.883  0.00  0.00    +0.000 A 
ATOM      5  C   UNL     1       1.805   9.025  18.206  0.00  0.00    +0.000 A 
ATOM      6  O   UNL     1       2.235   9.357  17.104  0.00  0.00    +0.000 OA
ATOM      7  C   UNL     1       2.325   7.806  18.902  0.00  0.00    +0.000 A 
ATOM      8  C   UNL     1       3.202   6.944  18.219  0.00  0.00    +0.000 A 
ATOM      9  C   UNL     1       3.662   5.784  18.853  0.00  0.00    +0.000 A 
ATOM     10  C   UNL     1       3.256   5.486  20.152  0.00  0.00    +0.000 A 
ATOM     11  C   UNL     1       2.387   6.350  20.826  0.00  0.00    +0.000 A 
ATOM     12  C   UNL     1       1.892   7.517  20.217  0.00  0.00    +0.000 A 
ENDROOT
BRANCH   4  13
ATOM     13  C   UNL     1      -0.050  10.924  18.299  0.00  0.00    +0.000 C 
ATOM     14  O   UNL     1       0.251  12.087  18.564  0.00  0.00    +0.000 OA
ATOM     15  N   UNL     1      -1.136  10.598  17.510  0.00  0.00    +0.000 N 
ATOM     16  H   UNL     1      -1.427   9.622  17.524  0.00  0.00    +0.000 HD
BRANCH  15  17
ATOM     17  C   UNL     1      -2.124  11.634  17.185  0.00  0.00    +0.000 C 
ATOM     18  C   UNL     1      -2.884  11.364  15.862  0.00  0.00    +0.000 C 
ATOM     19  C   UNL     1      -4.317  10.852  15.967  0.00  0.00    +0.000 C 
ATOM     20  C   UNL     1      -5.102  11.551  17.060  0.00  0.00    +0.000 C 
ATOM     21  C   UNL     1      -4.399  11.343  18.392  0.00  0.00    +0.000 C 
ATOM     22  C   UNL     1      -3.022  11.995  18.384  0.00  0.00    +0.000 C 
ENDBRANCH  15  17
ENDBRANCH   4  13
BRANCH   9  23
ATOM     23  S   UNL     1       4.586   4.564  17.935  0.00  0.00    +0.000 S 
ATOM     24  O   UNL     1       4.674   5.036  16.574  0.00  0.00    +0.000 OA
ATOM     25  O   UNL     1       5.776   4.279  18.702  0.00  0.00    +0.000 OA
BRANCH  23  26
ATOM     26  N   UNL     1       3.608   3.210  17.958  0.00  0.00    +0.000 NA
ATOM     27  C   UNL     1       2.283   3.186  17.311  0.00  0.00    +0.000 C 
ATOM     28  C   UNL     1       1.171   2.892  18.322  0.00  0.00    +0.000 C 
ATOM     29  O   UNL     1       1.455   1.730  19.113  0.00  0.00    +0.000 OA
ATOM     30  C   UNL     1       2.684   1.895  19.835  0.00  0.00    +0.000 C 
ATOM     31  C   UNL     1       3.864   2.088  18.881  0.00  0.00    +0.000 C 
ENDBRANCH  23  26
ENDBRANCH   9  23
TORSDOF 4
ENDMDL
MODEL 7
REMARK VINA RESULT:      -7.5      3.334      4.809
REMARK  Name = 
REMARK  5 active torsions:
REMARK  status: ('A' for Active; 'I' for Inactive)
REMARK    1  A    between atoms: C_1  and  N_2
REMARK    2  A    between atoms: C_4  and  C_5
REMARK    3  A    between atoms: N_7  and  C_8
REMARK    4  A    between atoms: C_18  and  S_19
REMARK    5  A    between atoms: S_19  and  N_22
REMARK                            x       y       z     vdW  Elec       q    Type
REMARK                         _______ _______ _______ _____ _____    ______ ____
ROOT
ATOM      1  C   UNL     1       1.480  11.082  17.711  0.00  0.00    +0.000 C 
ATOM      2  N   UNL     1       1.328  10.164  18.842  0.00  0.00    +0.000 N 
ATOM      3  C   UNL     1       0.772  10.584  20.037  0.00  0.00    +0.000 A 
ATOM      4  C   UNL     1       0.624   9.862  21.161  0.00  0.00    +0.000 A 
ATOM      5  C   UNL     1       1.105   8.460  21.116  0.00  0.00    +0.000 A 
ATOM      6  O   UNL     1       0.926   7.694  22.060  0.00  0.00    +0.000 OA
ATOM      7  C   UNL     1       1.836   8.016  19.888  0.00  0.00    +0.000 A 
ATOM      8  C   UNL     1       2.462   6.757  19.878  0.00  0.00    +0.000 A 
ATOM      9  C   UNL     1       3.177   6.351  18.745  0.00  0.00    +0.000 A 
ATOM     10  C   UNL     1       3.267   7.188  17.635  0.00  0.00    +0.000 A 
ATOM     11  C   UNL     1       2.638   8.437  17.651  0.00  0.00    +0.000 A 
ATOM     12  C   UNL     1       1.923   8.885  18.776  0.00  0.00    +0.000 A 
ENDROOT
BRANCH   4  13
ATOM     13  C   UNL     1       0.050  10.569  22.342  0.00  0.00    +0.000 C 
ATOM     14  O   UNL     1       0.055  10.022  23.444  0.00  0.00    +0.000 OA
ATOM     15  N   UNL     1      -0.514  11.812  22.132  0.00  0.00    +0.000 N 
ATOM     16  H   UNL     1      -0.658  12.083  21.160  0.00  0.00    +0.000 HD
BRANCH  15  17
ATOM     17  C   UNL     1      -1.369  12.398  23.172  0.00  0.00    +0.000 C 
ATOM     18  C   UNL     1      -1.117  13.911  23.391  0.00  0.00    +0.000 C 
ATOM     19  C   UNL     1      -2.144  14.883  22.819  0.00  0.00    +0.000 C 
ATOM     20  C   UNL     1      -3.569  14.404  23.019  0.00  0.00    +0.000 C 
ATOM     21  C   UNL     1      -3.740  13.049  22.352  0.00  0.00    +0.000 C 
ATOM     22  C   UNL     1      -2.850  12.005  23.015  0.00  0.00    +0.000 C 
ENDBRANCH  15  17
ENDBRANCH   4  13
BRANCH   9  23
ATOM     23  S   UNL     1       4.166   4.867  18.790  0.00  0.00    +0.000 S 
ATOM     24  O   UNL     1       4.525   4.556  17.427  0.00  0.00    +0.000 OA
ATOM     25  O   UNL     1       5.181   5.072  19.797  0.00  0.00    +0.000 OA
BRANCH  23  26
ATOM     26  N   UNL     1       3.113   3.691  19.336  0.00  0.00    +0.000 NA
ATOM     27  C   UNL     1       1.762   3.522  18.770  0.00  0.00    +0.000 C 
ATOM     28  C   UNL     1       0.681   3.704  19.839  0.00  0.00    +0.000 C 
ATOM     29  O   UNL     1       0.931   2.902  21.001  0.00  0.00    +0.000 OA
ATOM     30  C   UNL     1       2.198   3.237  21.586  0.00  0.00    +0.000 C 
ATOM     31  C   UNL     1       3.344   2.977  20.607  0.00  0.00    +0.000 C 
ENDBRANCH  23  26
ENDBRANCH   9  23
TORSDOF 4
ENDMDL
MODEL 8
REMARK VINA RESULT:      -7.5      4.505     10.514
REMARK  Name = 
REMARK  5 active torsions:
REMARK  status: ('A' for Active; 'I' for Inactive)
REMARK    1  A    between atoms: C_1  and  N_2
REMARK    2  A    between atoms: C_4  and  C_5
REMARK    3  A    between atoms: N_7  and  C_8
REMARK    4  A    between atoms: C_18  and  S_19
REMARK    5  A    between atoms: S_19  and  N_22
REMARK                            x       y       z     vdW  Elec       q    Type
REMARK                         _______ _______ _______ _____ _____    ______ ____
ROOT
ATOM      1  C   UNL     1      -1.935  10.825  17.000  0.00  0.00    +0.000 C 
ATOM      2  N   UNL     1      -1.127  10.715  18.217  0.00  0.00    +0.000 N 
ATOM      3  C   UNL     1      -0.053   9.847  18.288  0.00  0.00    +0.000 A 
ATOM      4  C   UNL     1       0.732   9.614  19.353  0.00  0.00    +0.000 A 
ATOM      5  C   UNL     1       0.416  10.371  20.588  0.00  0.00    +0.000 A 
ATOM      6  O   UNL     1       1.133  10.298  21.583  0.00  0.00    +0.000 OA
ATOM      7  C   UNL     1      -0.823  11.212  20.588  0.00  0.00    +0.000 A 
ATOM      8  C   UNL     1      -1.254  11.801  21.790  0.00  0.00    +0.000 A 
ATOM      9  C   UNL     1      -2.431  12.559  21.804  0.00  0.00    +0.000 A 
ATOM     10  C   UNL     1      -3.169  12.730  20.634  0.00  0.00    +0.000 A 
ATOM     11  C   UNL     1      -2.731  12.145  19.442  0.00  0.00    +0.000 A 
ATOM     12  C   UNL     1      -1.562  11.365  19.392  0.00  0.00    +0.000 A 
ENDROOT
BRANCH   4  13
ATOM     13  C   UNL     1       1.792   8.578  19.192  0.00  0.00    +0.000 C 
ATOM     14  O   UNL     1       2.646   8.707  18.316  0.00  0.00    +0.000 OA
ATOM     15  N   UNL     1       1.738   7.474  20.021  0.00  0.00    +0.000 N 
ATOM     16  H   UNL     1       0.883   7.357  20.562  0.00  0.00    +0.000 HD
BRANCH  15  17
ATOM     17  C   UNL     1       2.544   6.291  19.694  0.00  0.00    +0.000 C 
ATOM     18  C   UNL     1       2.321   5.108  20.670  0.00  0.00    +0.000 C 
ATOM     19  C   UNL     1       1.468   3.943  20.176  0.00  0.00    +0.000 C 
ATOM     20  C   UNL     1       1.767   3.577  18.735  0.00  0.00    +0.000 C 
ATOM     21  C   UNL     1       1.519   4.787  17.849  0.00  0.00    +0.000 C 
ATOM     22  C   UNL     1       2.475   5.920  18.201  0.00  0.00    +0.000 C 
ENDBRANCH  15  17
ENDBRANCH   4  13
BRANCH   9  23
ATOM     23  S   UNL     1      -3.120  13.122  23.350  0.00  0.00    +0.000 S 
ATOM     24  O   UNL     1      -3.695  11.970  24.002  0.00  0.00    +0.000 OA
ATOM     25  O   UNL     1      -2.099  13.912  23.999  0.00  0.00    +0.000 OA
BRANCH  23  26
ATOM     26  N   UNL     1      -4.363  14.141  22.896  0.00  0.00    +0.000 NA
ATOM     27  C   UNL     1      -4.177  15.599  22.766  0.00  0.00    +0.000 C 
ATOM     28  C   UNL     1      -5.107  16.367  23.711  0.00  0.00    +0.000 C 
ATOM     29  O   UNL     1      -6.470  15.941  23.591  0.00  0.00    +0.000 OA
ATOM     30  C   UNL     1      -6.592  14.542  23.885  0.00  0.00    +0.000 C 
ATOM     31  C   UNL     1      -5.771  13.698  22.909  0.00  0.00    +0.000 C 
ENDBRANCH  23  26
ENDBRANCH   9  23
TORSDOF 4
ENDMDL
MODEL 9
REMARK VINA RESULT:      -7.4      3.434      4.772
REMARK  Name = 
REMARK  5 active torsions:
REMARK  status: ('A' for Active; 'I' for Inactive)
REMARK    1  A    between atoms: C_1  and  N_2
REMARK    2  A    between atoms: C_4  and  C_5
REMARK    3  A    between atoms: N_7  and  C_8
REMARK    4  A    between atoms: C_18  and  S_19
REMARK    5  A    between atoms: S_19  and  N_22
REMARK                            x       y       z     vdW  Elec       q    Type
REMARK                         _______ _______ _______ _____ _____    ______ ____
ROOT
ATOM      1  C   UNL     1      -0.454  11.290  17.753  0.00  0.00    +0.000 C 
ATOM      2  N   UNL     1      -0.087  10.502  18.933  0.00  0.00    +0.000 N 
ATOM      3  C   UNL     1      -0.426  10.920  20.207  0.00  0.00    +0.000 A 
ATOM      4  C   UNL     1      -0.107  10.322  21.368  0.00  0.00    +0.000 A 
ATOM      5  C   UNL     1       0.693   9.077  21.274  0.00  0.00    +0.000 A 
ATOM      6  O   UNL     1       0.951   8.409  22.272  0.00  0.00    +0.000 OA
ATOM      7  C   UNL     1       1.194   8.674  19.922  0.00  0.00    +0.000 A 
ATOM      8  C   UNL     1       2.101   7.605  19.816  0.00  0.00    +0.000 A 
ATOM      9  C   UNL     1       2.601   7.246  18.559  0.00  0.00    +0.000 A 
ATOM     10  C   UNL     1       2.201   7.943  17.420  0.00  0.00    +0.000 A 
ATOM     11  C   UNL     1       1.295   9.003  17.533  0.00  0.00    +0.000 A 
ATOM     12  C   UNL     1       0.783   9.401  18.781  0.00  0.00    +0.000 A 
ENDROOT
BRANCH   4  13
ATOM     13  C   UNL     1      -0.540  11.010  22.618  0.00  0.00    +0.000 C 
ATOM     14  O   UNL     1      -0.438  10.433  23.700  0.00  0.00    +0.000 OA
ATOM     15  N   UNL     1      -1.091  12.271  22.496  0.00  0.00    +0.000 N 
ATOM     16  H   UNL     1      -1.326  12.571  21.552  0.00  0.00    +0.000 HD
BRANCH  15  17
ATOM     17  C   UNL     1      -1.820  12.848  23.632  0.00  0.00    +0.000 C 
ATOM     18  C   UNL     1      -1.515  14.350  23.857  0.00  0.00    +0.000 C 
ATOM     19  C   UNL     1      -2.574  15.355  23.416  0.00  0.00    +0.000 C 
ATOM     20  C   UNL     1      -3.981  14.899  23.752  0.00  0.00    +0.000 C 
ATOM     21  C   UNL     1      -4.249  13.564  23.077  0.00  0.00    +0.000 C 
ATOM     22  C   UNL     1      -3.318  12.487  23.621  0.00  0.00    +0.000 C 
ENDBRANCH  15  17
ENDBRANCH   4  13
BRANCH   9  23
ATOM     23  S   UNL     1       3.919   6.052  18.422  0.00  0.00    +0.000 S 
ATOM     24  O   UNL     1       4.896   6.602  17.512  0.00  0.00    +0.000 OA
ATOM     25  O   UNL     1       4.285   5.678  19.768  0.00  0.00    +0.000 OA
BRANCH  23  26
ATOM     26  N   UNL     1       3.202   4.735  17.686  0.00  0.00    +0.000 NA
ATOM     27  C   UNL     1       1.758   4.460  17.803  0.00  0.00    +0.000 C 
ATOM     28  C   UNL     1       1.499   3.095  18.448  0.00  0.00    +0.000 C 
ATOM     29  O   UNL     1       2.242   2.048  17.811  0.00  0.00    +0.000 OA
ATOM     30  C   UNL     1       3.651   2.313  17.877  0.00  0.00    +0.000 C 
ATOM     31  C   UNL     1       4.003   3.615  17.156  0.00  0.00    +0.000 C 
ENDBRANCH  23  26
ENDBRANCH   9  23
TORSDOF 4
ENDMDL
