MODEL 1
REMARK VINA RESULT:      -7.5      0.000      0.000
REMARK  Name = 
REMARK  8 active torsions:
REMARK  status: ('A' for Active; 'I' for Inactive)
REMARK    1  A    between atoms: C_1  and  O_2
REMARK    2  A    between atoms: O_2  and  C_3
REMARK    3  A    between atoms: C_8  and  C_9
REMARK    4  A    between atoms: C_9  and  N_10
REMARK    5  A    between atoms: C_11  and  C_13
REMARK    6  A    between atoms: C_13  and  C_14
REMARK    7  A    between atoms: N_18  and  C_19
REMARK    8  A    between atoms: N_22  and  C_23
REMARK                            x       y       z     vdW  Elec       q    Type
REMARK                         _______ _______ _______ _____ _____    ______ ____
ROOT
ATOM      1  C   UNL     1       2.516   3.568  17.122  0.00  0.00    +0.000 C 
ENDROOT
BRANCH   1   2
ATOM      2  C   UNL     1       1.879   4.473  18.200  0.00  0.00    +0.000 C 
ATOM      3  C   UNL     1       1.720   3.697  19.517  0.00  0.00    +0.000 C 
ATOM      4  C   UNL     1       0.978   4.569  20.513  0.00  0.00    +0.000 C 
ATOM      5  C   UNL     1       1.795   5.812  20.820  0.00  0.00    +0.000 C 
ATOM      6  N   UNL     1       2.049   6.567  19.578  0.00  0.00    +0.000 N 
ATOM      7  C   UNL     1       2.681   5.770  18.489  0.00  0.00    +0.000 C 
BRANCH   6   8
ATOM      8  C   UNL     1       1.728   7.932  19.485  0.00  0.00    +0.000 A 
ATOM      9  C   UNL     1       2.023   8.683  18.223  0.00  0.00    +0.000 A 
ATOM     10  N   UNL     1       1.891   9.951  18.007  0.00  0.00    +0.000 NA
ATOM     11  N   UNL     1       1.403  10.704  19.040  0.00  0.00    +0.000 N 
ATOM     12  C   UNL     1       1.280  12.128  18.799  0.00  0.00    +0.000 C 
ATOM     13  C   UNL     1       1.000  10.171  20.256  0.00  0.00    +0.000 A 
ATOM     14  O   UNL     1       0.529  10.824  21.185  0.00  0.00    +0.000 OA
ATOM     15  C   UNL     1       1.187   8.709  20.427  0.00  0.00    +0.000 A 
ENDBRANCH   6   8
ENDBRANCH   1   2
BRANCH   1  17
ATOM     16  N   UNL     1       4.793   3.864  16.269  0.00  0.00    +0.000 N 
ATOM     17  C   UNL     1       4.032   3.375  17.307  0.00  0.00    +0.000 C 
ATOM     18  O   UNL     1       4.512   2.821  18.295  0.00  0.00    +0.000 OA
ATOM     19  H   UNL     1       4.347   4.324  15.491  0.00  0.00    +0.000 HD
BRANCH  16  20
ATOM     20  C   UNL     1       6.246   3.841  16.252  0.00  0.00    +0.000 C 
BRANCH  20  26
ATOM     21  C   UNL     1       6.664   6.329  16.684  0.00  0.00    +0.000 A 
ATOM     22  C   UNL     1       7.232   7.345  17.466  0.00  0.00    +0.000 A 
ATOM     23  C   UNL     1       8.002   7.030  18.584  0.00  0.00    +0.000 A 
ATOM     24  C   UNL     1       8.181   5.701  18.950  0.00  0.00    +0.000 A 
ATOM     25  C   UNL     1       7.587   4.684  18.201  0.00  0.00    +0.000 A 
ATOM     26  C   UNL     1       6.820   4.982  17.061  0.00  0.00    +0.000 A 
BRANCH  21  28
ATOM     27  C   UNL     1       4.651   7.151  15.766  0.00  0.00    +0.000 C 
ATOM     28  O   UNL     1       5.937   6.577  15.546  0.00  0.00    +0.000 OA
ENDBRANCH  21  28
ENDBRANCH  20  26
ENDBRANCH  16  20
ENDBRANCH   1  17
TORSDOF 6
ENDMDL
MODEL 2
REMARK VINA RESULT:      -7.3      2.075      3.829
REMARK  Name = 
REMARK  8 active torsions:
REMARK  status: ('A' for Active; 'I' for Inactive)
REMARK    1  A    between atoms: C_1  and  O_2
REMARK    2  A    between atoms: O_2  and  C_3
REMARK    3  A    between atoms: C_8  and  C_9
REMARK    4  A    between atoms: C_9  and  N_10
REMARK    5  A    between atoms: C_11  and  C_13
REMARK    6  A    between atoms: C_13  and  C_14
REMARK    7  A    between atoms: N_18  and  C_19
REMARK    8  A    between atoms: N_22  and  C_23
REMARK                            x       y       z     vdW  Elec       q    Type
REMARK                         _______ _______ _______ _____ _____    ______ ____
ROOT
ATOM      1  C   UNL     1       1.955   6.081  20.623  0.00  0.00    +0.000 C 
ENDROOT
BRANCH   1   2
ATOM      2  C   UNL     1       2.107   7.449  19.920  0.00  0.00    +0.000 C 
ATOM      3  C   UNL     1       2.244   7.252  18.402  0.00  0.00    +0.000 C 
ATOM      4  C   UNL     1       2.518   8.598  17.756  0.00  0.00    +0.000 C 
ATOM      5  C   UNL     1       1.340   9.530  17.984  0.00  0.00    +0.000 C 
ATOM      6  N   UNL     1       1.106   9.701  19.431  0.00  0.00    +0.000 N 
ATOM      7  C   UNL     1       0.931   8.426  20.183  0.00  0.00    +0.000 C 
BRANCH   6   8
ATOM      8  C   UNL     1       1.035  10.982  20.003  0.00  0.00    +0.000 A 
ATOM      9  C   UNL     1       0.373  11.169  21.334  0.00  0.00    +0.000 A 
ATOM     10  N   UNL     1       0.131  12.280  21.949  0.00  0.00    +0.000 NA
ATOM     11  N   UNL     1       0.545  13.429  21.331  0.00  0.00    +0.000 N 
ATOM     12  C   UNL     1       0.249  14.672  22.014  0.00  0.00    +0.000 C 
ATOM     13  C   UNL     1       1.247  13.447  20.134  0.00  0.00    +0.000 A 
ATOM     14  O   UNL     1       1.655  14.465  19.578  0.00  0.00    +0.000 OA
ATOM     15  C   UNL     1       1.481  12.132  19.489  0.00  0.00    +0.000 A 
ENDBRANCH   6   8
ENDBRANCH   1   2
BRANCH   1  17
ATOM     16  N   UNL     1       3.734   4.672  19.701  0.00  0.00    +0.000 N 
ATOM     17  C   UNL     1       2.376   4.893  19.739  0.00  0.00    +0.000 C 
ATOM     18  O   UNL     1       1.563   4.214  19.115  0.00  0.00    +0.000 OA
ATOM     19  H   UNL     1       4.353   5.252  20.245  0.00  0.00    +0.000 HD
BRANCH  16  20
ATOM     20  C   UNL     1       4.355   3.576  18.977  0.00  0.00    +0.000 C 
BRANCH  20  26
ATOM     21  C   UNL     1       6.429   4.648  17.928  0.00  0.00    +0.000 A 
ATOM     22  C   UNL     1       7.110   5.116  16.795  0.00  0.00    +0.000 A 
ATOM     23  C   UNL     1       6.504   5.081  15.540  0.00  0.00    +0.000 A 
ATOM     24  C   UNL     1       5.228   4.546  15.402  0.00  0.00    +0.000 A 
ATOM     25  C   UNL     1       4.558   4.041  16.517  0.00  0.00    +0.000 A 
ATOM     26  C   UNL     1       5.147   4.083  17.793  0.00  0.00    +0.000 A 
BRANCH  21  28
ATOM     27  C   UNL     1       7.808   5.817  19.446  0.00  0.00    +0.000 C 
ATOM     28  O   UNL     1       6.955   4.702  19.194  0.00  0.00    +0.000 OA
ENDBRANCH  21  28
ENDBRANCH  20  26
ENDBRANCH  16  20
ENDBRANCH   1  17
TORSDOF 6
ENDMDL
MODEL 3
REMARK VINA RESULT:      -7.2      3.735      6.529
REMARK  Name = 
REMARK  8 active torsions:
REMARK  status: ('A' for Active; 'I' for Inactive)
REMARK    1  A    between atoms: C_1  and  O_2
REMARK    2  A    between atoms: O_2  and  C_3
REMARK    3  A    between atoms: C_8  and  C_9
REMARK    4  A    between atoms: C_9  and  N_10
REMARK    5  A    between atoms: C_11  and  C_13
REMARK    6  A    between atoms: C_13  and  C_14
REMARK    7  A    between atoms: N_18  and  C_19
REMARK    8  A    between atoms: N_22  and  C_23
REMARK                            x       y       z     vdW  Elec       q    Type
REMARK                         _______ _______ _______ _____ _____    ______ ____
ROOT
ATOM      1  C   UNL     1       1.331   9.304  18.246  0.00  0.00    +0.000 C 
ENDROOT
BRANCH   1   2
ATOM      2  C   UNL     1       0.457  10.432  18.838  0.00  0.00    +0.000 C 
ATOM      3  C   UNL     1       1.281  11.723  18.974  0.00  0.00    +0.000 C 
ATOM      4  C   UNL     1       0.435  12.772  19.673  0.00  0.00    +0.000 C 
ATOM      5  C   UNL     1      -0.783  13.102  18.827  0.00  0.00    +0.000 C 
ATOM      6  N   UNL     1      -1.580  11.883  18.594  0.00  0.00    +0.000 N 
ATOM      7  C   UNL     1      -0.814  10.748  18.006  0.00  0.00    +0.000 C 
BRANCH   6   8
ATOM      8  C   UNL     1      -2.953  11.850  18.893  0.00  0.00    +0.000 A 
ATOM      9  C   UNL     1      -3.873  10.999  18.075  0.00  0.00    +0.000 A 
ATOM     10  N   UNL     1      -5.163  10.933  18.146  0.00  0.00    +0.000 NA
ATOM     11  N   UNL     1      -5.768  11.713  19.093  0.00  0.00    +0.000 N 
ATOM     12  C   UNL     1      -7.215  11.653  19.151  0.00  0.00    +0.000 C 
ATOM     13  C   UNL     1      -5.072  12.505  19.995  0.00  0.00    +0.000 A 
ATOM     14  O   UNL     1      -5.594  13.189  20.873  0.00  0.00    +0.000 OA
ATOM     15  C   UNL     1      -3.597  12.530  19.846  0.00  0.00    +0.000 A 
ENDBRANCH   6   8
ENDBRANCH   1   2
BRANCH   1  17
ATOM     16  N   UNL     1       2.525   7.232  18.778  0.00  0.00    +0.000 N 
ATOM     17  C   UNL     1       1.773   8.265  19.292  0.00  0.00    +0.000 C 
ATOM     18  O   UNL     1       1.467   8.351  20.480  0.00  0.00    +0.000 OA
ATOM     19  H   UNL     1       2.760   7.221  17.798  0.00  0.00    +0.000 HD
BRANCH  16  20
ATOM     20  C   UNL     1       3.096   6.168  19.585  0.00  0.00    +0.000 C 
BRANCH  20  26
ATOM     21  C   UNL     1       2.554   4.121  18.148  0.00  0.00    +0.000 A 
ATOM     22  C   UNL     1       1.859   2.916  17.968  0.00  0.00    +0.000 A 
ATOM     23  C   UNL     1       0.959   2.468  18.932  0.00  0.00    +0.000 A 
ATOM     24  C   UNL     1       0.773   3.199  20.100  0.00  0.00    +0.000 A 
ATOM     25  C   UNL     1       1.489   4.379  20.307  0.00  0.00    +0.000 A 
ATOM     26  C   UNL     1       2.389   4.855  19.338  0.00  0.00    +0.000 A 
BRANCH  21  28
ATOM     27  C   UNL     1       4.588   3.862  16.980  0.00  0.00    +0.000 C 
ATOM     28  O   UNL     1       3.415   4.637  17.212  0.00  0.00    +0.000 OA
ENDBRANCH  21  28
ENDBRANCH  20  26
ENDBRANCH  16  20
ENDBRANCH   1  17
TORSDOF 6
ENDMDL
MODEL 4
REMARK VINA RESULT:      -7.1      3.014      4.462
REMARK  Name = 
REMARK  8 active torsions:
REMARK  status: ('A' for Active; 'I' for Inactive)
REMARK    1  A    between atoms: C_1  and  O_2
REMARK    2  A    between atoms: O_2  and  C_3
REMARK    3  A    between atoms: C_8  and  C_9
REMARK    4  A    between atoms: C_9  and  N_10
REMARK    5  A    between atoms: C_11  and  C_13
REMARK    6  A    between atoms: C_13  and  C_14
REMARK    7  A    between atoms: N_18  and  C_19
REMARK    8  A    between atoms: N_22  and  C_23
REMARK                            x       y       z     vdW  Elec       q    Type
REMARK                         _______ _______ _______ _____ _____    ______ ____
ROOT
ATOM      1  C   UNL     1       2.631   7.437  20.106  0.00  0.00    +0.000 C 
ENDROOT
BRANCH   1   2
ATOM      2  C   UNL     1       1.276   8.138  20.350  0.00  0.00    +0.000 C 
ATOM      3  C   UNL     1       1.148   8.541  21.829  0.00  0.00    +0.000 C 
ATOM      4  C   UNL     1      -0.240   9.110  22.063  0.00  0.00    +0.000 C 
ATOM      5  C   UNL     1      -0.428  10.370  21.235  0.00  0.00    +0.000 C 
ATOM      6  N   UNL     1      -0.241  10.065  19.804  0.00  0.00    +0.000 N 
ATOM      7  C   UNL     1       1.053   9.402  19.478  0.00  0.00    +0.000 C 
BRANCH   6   8
ATOM      8  C   UNL     1      -1.219  10.416  18.858  0.00  0.00    +0.000 A 
ATOM      9  C   UNL     1      -2.236  11.463  19.190  0.00  0.00    +0.000 A 
ATOM     10  N   UNL     1      -3.257  11.828  18.485  0.00  0.00    +0.000 NA
ATOM     11  N   UNL     1      -3.426  11.205  17.278  0.00  0.00    +0.000 N 
ATOM     12  C   UNL     1      -4.586  11.601  16.505  0.00  0.00    +0.000 C 
ATOM     13  C   UNL     1      -2.540  10.267  16.768  0.00  0.00    +0.000 A 
ATOM     14  O   UNL     1      -2.656   9.719  15.673  0.00  0.00    +0.000 OA
ATOM     15  C   UNL     1      -1.397   9.900  17.638  0.00  0.00    +0.000 A 
ENDBRANCH   6   8
ENDBRANCH   1   2
BRANCH   1  17
ATOM     16  N   UNL     1       3.388   5.862  18.389  0.00  0.00    +0.000 N 
ATOM     17  C   UNL     1       2.491   6.069  19.413  0.00  0.00    +0.000 C 
ATOM     18  O   UNL     1       1.642   5.244  19.746  0.00  0.00    +0.000 OA
ATOM     19  H   UNL     1       4.073   6.568  18.170  0.00  0.00    +0.000 HD
BRANCH  16  20
ATOM     20  C   UNL     1       3.477   4.626  17.631  0.00  0.00    +0.000 C 
BRANCH  20  26
ATOM     21  C   UNL     1       6.030   4.736  17.494  0.00  0.00    +0.000 A 
ATOM     22  C   UNL     1       7.208   4.663  16.736  0.00  0.00    +0.000 A 
ATOM     23  C   UNL     1       7.151   4.461  15.359  0.00  0.00    +0.000 A 
ATOM     24  C   UNL     1       5.921   4.294  14.733  0.00  0.00    +0.000 A 
ATOM     25  C   UNL     1       4.745   4.325  15.485  0.00  0.00    +0.000 A 
ATOM     26  C   UNL     1       4.782   4.544  16.873  0.00  0.00    +0.000 A 
BRANCH  21  28
ATOM     27  C   UNL     1       7.204   5.595  19.353  0.00  0.00    +0.000 C 
ATOM     28  O   UNL     1       6.022   4.981  18.845  0.00  0.00    +0.000 OA
ENDBRANCH  21  28
ENDBRANCH  20  26
ENDBRANCH  16  20
ENDBRANCH   1  17
TORSDOF 6
ENDMDL
MODEL 5
REMARK VINA RESULT:      -7.1      4.605      7.103
REMARK  Name = 
REMARK  8 active torsions:
REMARK  status: ('A' for Active; 'I' for Inactive)
REMARK    1  A    between atoms: C_1  and  O_2
REMARK    2  A    between atoms: O_2  and  C_3
REMARK    3  A    between atoms: C_8  and  C_9
REMARK    4  A    between atoms: C_9  and  N_10
REMARK    5  A    between atoms: C_11  and  C_13
REMARK    6  A    between atoms: C_13  and  C_14
REMARK    7  A    between atoms: N_18  and  C_19
REMARK    8  A    between atoms: N_22  and  C_23
REMARK                            x       y       z     vdW  Elec       q    Type
REMARK                         _______ _______ _______ _____ _____    ______ ____
ROOT
ATOM      1  C   UNL     1       8.334   7.559  18.485  0.00  0.00    +0.000 C 
ENDROOT
BRANCH   1   2
ATOM      2  C   UNL     1       7.082   6.745  18.087  0.00  0.00    +0.000 C 
ATOM      3  C   UNL     1       7.210   6.255  16.636  0.00  0.00    +0.000 C 
ATOM      4  C   UNL     1       5.915   5.571  16.234  0.00  0.00    +0.000 C 
ATOM      5  C   UNL     1       5.686   4.347  17.105  0.00  0.00    +0.000 C 
ATOM      6  N   UNL     1       5.630   4.742  18.525  0.00  0.00    +0.000 N 
ATOM      7  C   UNL     1       6.812   5.518  18.997  0.00  0.00    +0.000 C 
BRANCH   6   8
ATOM      8  C   UNL     1       4.543   4.372  19.335  0.00  0.00    +0.000 A 
ATOM      9  C   UNL     1       4.440   2.969  19.849  0.00  0.00    +0.000 A 
ATOM     10  N   UNL     1       3.465   2.437  20.511  0.00  0.00    +0.000 NA
ATOM     11  N   UNL     1       2.404   3.251  20.804  0.00  0.00    +0.000 N 
ATOM     12  C   UNL     1       1.304   2.642  21.525  0.00  0.00    +0.000 C 
ATOM     13  C   UNL     1       2.358   4.599  20.480  0.00  0.00    +0.000 A 
ATOM     14  O   UNL     1       1.429   5.355  20.760  0.00  0.00    +0.000 OA
ATOM     15  C   UNL     1       3.513   5.132  19.717  0.00  0.00    +0.000 A 
ENDBRANCH   6   8
ENDBRANCH   1   2
BRANCH   1  17
ATOM     16  N   UNL     1       9.275   9.818  18.580  0.00  0.00    +0.000 N 
ATOM     17  C   UNL     1       8.243   9.045  18.097  0.00  0.00    +0.000 C 
ATOM     18  O   UNL     1       7.319   9.497  17.423  0.00  0.00    +0.000 OA
ATOM     19  H   UNL     1      10.015   9.392  19.115  0.00  0.00    +0.000 HD
BRANCH  16  20
ATOM     20  C   UNL     1       9.425  11.235  18.295  0.00  0.00    +0.000 C 
BRANCH  20  26
ATOM     21  C   UNL     1       9.246  13.461  19.545  0.00  0.00    +0.000 A 
ATOM     22  C   UNL     1       9.194  14.173  20.752  0.00  0.00    +0.000 A 
ATOM     23  C   UNL     1       9.304  13.507  21.971  0.00  0.00    +0.000 A 
ATOM     24  C   UNL     1       9.431  12.123  21.995  0.00  0.00    +0.000 A 
ATOM     25  C   UNL     1       9.443  11.402  20.801  0.00  0.00    +0.000 A 
ATOM     26  C   UNL     1       9.349  12.058  19.561  0.00  0.00    +0.000 A 
BRANCH  21  28
ATOM     27  C   UNL     1      10.302  14.905  18.005  0.00  0.00    +0.000 C 
ATOM     28  O   UNL     1       9.191  14.067  18.314  0.00  0.00    +0.000 OA
ENDBRANCH  21  28
ENDBRANCH  20  26
ENDBRANCH  16  20
ENDBRANCH   1  17
TORSDOF 6
ENDMDL
MODEL 6
REMARK VINA RESULT:      -7.1      1.179      1.505
REMARK  Name = 
REMARK  8 active torsions:
REMARK  status: ('A' for Active; 'I' for Inactive)
REMARK    1  A    between atoms: C_1  and  O_2
REMARK    2  A    between atoms: O_2  and  C_3
REMARK    3  A    between atoms: C_8  and  C_9
REMARK    4  A    between atoms: C_9  and  N_10
REMARK    5  A    between atoms: C_11  and  C_13
REMARK    6  A    between atoms: C_13  and  C_14
REMARK    7  A    between atoms: N_18  and  C_19
REMARK    8  A    between atoms: N_22  and  C_23
REMARK                            x       y       z     vdW  Elec       q    Type
REMARK                         _______ _______ _______ _____ _____    ______ ____
ROOT
ATOM      1  C   UNL     1       2.085   3.235  17.139  0.00  0.00    +0.000 C 
ENDROOT
BRANCH   1   2
ATOM      2  C   UNL     1       1.654   4.219  18.249  0.00  0.00    +0.000 C 
ATOM      3  C   UNL     1       1.584   3.493  19.602  0.00  0.00    +0.000 C 
ATOM      4  C   UNL     1       1.037   4.452  20.644  0.00  0.00    +0.000 C 
ATOM      5  C   UNL     1       1.984   5.628  20.813  0.00  0.00    +0.000 C 
ATOM      6  N   UNL     1       2.154   6.325  19.524  0.00  0.00    +0.000 N 
ATOM      7  C   UNL     1       2.588   5.448  18.400  0.00  0.00    +0.000 C 
BRANCH   6   8
ATOM      8  C   UNL     1       1.940   7.710  19.419  0.00  0.00    +0.000 A 
ATOM      9  C   UNL     1       1.245   8.443  20.525  0.00  0.00    +0.000 A 
ATOM     10  N   UNL     1       0.878   9.682  20.546  0.00  0.00    +0.000 NA
ATOM     11  N   UNL     1       1.175  10.431  19.439  0.00  0.00    +0.000 N 
ATOM     12  C   UNL     1       0.739  11.813  19.459  0.00  0.00    +0.000 C 
ATOM     13  C   UNL     1       1.885   9.944  18.351  0.00  0.00    +0.000 A 
ATOM     14  O   UNL     1       2.189  10.608  17.362  0.00  0.00    +0.000 OA
ATOM     15  C   UNL     1       2.267   8.512  18.402  0.00  0.00    +0.000 A 
ENDBRANCH   6   8
ENDBRANCH   1   2
BRANCH   1  17
ATOM     16  N   UNL     1       4.439   3.731  16.681  0.00  0.00    +0.000 N 
ATOM     17  C   UNL     1       3.565   2.822  17.233  0.00  0.00    +0.000 C 
ATOM     18  O   UNL     1       3.924   1.765  17.748  0.00  0.00    +0.000 OA
ATOM     19  H   UNL     1       4.089   4.590  16.285  0.00  0.00    +0.000 HD
BRANCH  16  20
ATOM     20  C   UNL     1       5.884   3.578  16.702  0.00  0.00    +0.000 C 
BRANCH  20  26
ATOM     21  C   UNL     1       6.793   5.951  16.401  0.00  0.00    +0.000 A 
ATOM     22  C   UNL     1       7.437   7.079  16.931  0.00  0.00    +0.000 A 
ATOM     23  C   UNL     1       7.902   7.076  18.245  0.00  0.00    +0.000 A 
ATOM     24  C   UNL     1       7.695   5.962  19.050  0.00  0.00    +0.000 A 
ATOM     25  C   UNL     1       7.020   4.851  18.545  0.00  0.00    +0.000 A 
ATOM     26  C   UNL     1       6.558   4.829  17.218  0.00  0.00    +0.000 A 
BRANCH  21  28
ATOM     27  C   UNL     1       7.232   5.187  14.212  0.00  0.00    +0.000 C 
ATOM     28  O   UNL     1       6.358   5.878  15.102  0.00  0.00    +0.000 OA
ENDBRANCH  21  28
ENDBRANCH  20  26
ENDBRANCH  16  20
ENDBRANCH   1  17
TORSDOF 6
ENDMDL
MODEL 7
REMARK VINA RESULT:      -7.0      3.050      6.195
REMARK  Name = 
REMARK  8 active torsions:
REMARK  status: ('A' for Active; 'I' for Inactive)
REMARK    1  A    between atoms: C_1  and  O_2
REMARK    2  A    between atoms: O_2  and  C_3
REMARK    3  A    between atoms: C_8  and  C_9
REMARK    4  A    between atoms: C_9  and  N_10
REMARK    5  A    between atoms: C_11  and  C_13
REMARK    6  A    between atoms: C_13  and  C_14
REMARK    7  A    between atoms: N_18  and  C_19
REMARK    8  A    between atoms: N_22  and  C_23
REMARK                            x       y       z     vdW  Elec       q    Type
REMARK                         _______ _______ _______ _____ _____    ______ ____
ROOT
ATOM      1  C   UNL     1       1.687   9.084  18.215  0.00  0.00    +0.000 C 
ENDROOT
BRANCH   1   2
ATOM      2  C   UNL     1       1.335  10.435  18.877  0.00  0.00    +0.000 C 
ATOM      3  C   UNL     1       1.994  11.590  18.106  0.00  0.00    +0.000 C 
ATOM      4  C   UNL     1       1.736  12.887  18.852  0.00  0.00    +0.000 C 
ATOM      5  C   UNL     1       0.244  13.169  18.896  0.00  0.00    +0.000 C 
ATOM      6  N   UNL     1      -0.460  12.055  19.559  0.00  0.00    +0.000 N 
ATOM      7  C   UNL     1      -0.189  10.714  18.969  0.00  0.00    +0.000 C 
BRANCH   6   8
ATOM      8  C   UNL     1      -1.327  12.292  20.640  0.00  0.00    +0.000 A 
ATOM      9  C   UNL     1      -1.088  11.607  21.950  0.00  0.00    +0.000 A 
ATOM     10  N   UNL     1      -1.838  11.630  23.004  0.00  0.00    +0.000 NA
ATOM     11  N   UNL     1      -2.978  12.385  22.932  0.00  0.00    +0.000 N 
ATOM     12  C   UNL     1      -3.826  12.386  24.108  0.00  0.00    +0.000 C 
ATOM     13  C   UNL     1      -3.322  13.152  21.829  0.00  0.00    +0.000 A 
ATOM     14  O   UNL     1      -4.324  13.862  21.756  0.00  0.00    +0.000 OA
ATOM     15  C   UNL     1      -2.412  13.070  20.661  0.00  0.00    +0.000 A 
ENDBRANCH   6   8
ENDBRANCH   1   2
BRANCH   1  17
ATOM     16  N   UNL     1       2.891   7.015  18.734  0.00  0.00    +0.000 N 
ATOM     17  C   UNL     1       2.048   7.984  19.230  0.00  0.00    +0.000 C 
ATOM     18  O   UNL     1       1.608   7.975  20.379  0.00  0.00    +0.000 OA
ATOM     19  H   UNL     1       3.233   7.082  17.789  0.00  0.00    +0.000 HD
BRANCH  16  20
ATOM     20  C   UNL     1       3.407   5.911  19.526  0.00  0.00    +0.000 C 
BRANCH  20  26
ATOM     21  C   UNL     1       2.570   3.921  18.152  0.00  0.00    +0.000 A 
ATOM     22  C   UNL     1       1.757   2.784  18.036  0.00  0.00    +0.000 A 
ATOM     23  C   UNL     1       0.896   2.421  19.071  0.00  0.00    +0.000 A 
ATOM     24  C   UNL     1       0.869   3.169  20.243  0.00  0.00    +0.000 A 
ATOM     25  C   UNL     1       1.704   4.278  20.384  0.00  0.00    +0.000 A 
ATOM     26  C   UNL     1       2.566   4.669  19.345  0.00  0.00    +0.000 A 
BRANCH  21  28
ATOM     27  C   UNL     1       4.606   3.609  17.000  0.00  0.00    +0.000 C 
ATOM     28  O   UNL     1       3.400   4.354  17.149  0.00  0.00    +0.000 OA
ENDBRANCH  21  28
ENDBRANCH  20  26
ENDBRANCH  16  20
ENDBRANCH   1  17
TORSDOF 6
ENDMDL
MODEL 8
REMARK VINA RESULT:      -7.0      3.632      9.143
REMARK  Name = 
REMARK  8 active torsions:
REMARK  status: ('A' for Active; 'I' for Inactive)
REMARK    1  A    between atoms: C_1  and  O_2
REMARK    2  A    between atoms: O_2  and  C_3
REMARK    3  A    between atoms: C_8  and  C_9
REMARK    4  A    between atoms: C_9  and  N_10
REMARK    5  A    between atoms: C_11  and  C_13
REMARK    6  A    between atoms: C_13  and  C_14
REMARK    7  A    between atoms: N_18  and  C_19
REMARK    8  A    between atoms: N_22  and  C_23
REMARK                            x       y       z     vdW  Elec       q    Type
REMARK                         _______ _______ _______ _____ _____    ______ ____
ROOT
ATOM      1  C   UNL     1       0.487  10.385  21.217  0.00  0.00    +0.000 C 
ENDROOT
BRANCH   1   2
ATOM      2  C   UNL     1       0.831   9.360  20.114  0.00  0.00    +0.000 C 
ATOM      3  C   UNL     1       1.359  10.083  18.864  0.00  0.00    +0.000 C 
ATOM      4  C   UNL     1       1.566   9.064  17.759  0.00  0.00    +0.000 C 
ATOM      5  C   UNL     1       2.624   8.057  18.177  0.00  0.00    +0.000 C 
ATOM      6  N   UNL     1       2.210   7.378  19.420  0.00  0.00    +0.000 N 
ATOM      7  C   UNL     1       1.877   8.298  20.544  0.00  0.00    +0.000 C 
BRANCH   6   8
ATOM      8  C   UNL     1       2.175   5.975  19.498  0.00  0.00    +0.000 A 
ATOM      9  C   UNL     1       2.625   5.152  18.332  0.00  0.00    +0.000 A 
ATOM     10  N   UNL     1       2.561   3.867  18.197  0.00  0.00    +0.000 NA
ATOM     11  N   UNL     1       2.042   3.163  19.250  0.00  0.00    +0.000 N 
ATOM     12  C   UNL     1       1.951   1.726  19.083  0.00  0.00    +0.000 C 
ATOM     13  C   UNL     1       1.649   3.748  20.445  0.00  0.00    +0.000 A 
ATOM     14  O   UNL     1       1.210   3.131  21.415  0.00  0.00    +0.000 OA
ATOM     15  C   UNL     1       1.749   5.225  20.519  0.00  0.00    +0.000 A 
ENDBRANCH   6   8
ENDBRANCH   1   2
BRANCH   1  17
ATOM     16  N   UNL     1      -1.564  11.231  20.179  0.00  0.00    +0.000 N 
ATOM     17  C   UNL     1      -0.338  11.579  20.703  0.00  0.00    +0.000 C 
ATOM     18  O   UNL     1       0.074  12.736  20.749  0.00  0.00    +0.000 OA
ATOM     19  H   UNL     1      -1.857  10.267  20.181  0.00  0.00    +0.000 HD
BRANCH  16  20
ATOM     20  C   UNL     1      -2.533  12.195  19.685  0.00  0.00    +0.000 C 
BRANCH  20  26
ATOM     21  C   UNL     1      -4.443  11.808  18.026  0.00  0.00    +0.000 A 
ATOM     22  C   UNL     1      -4.884  11.401  16.758  0.00  0.00    +0.000 A 
ATOM     23  C   UNL     1      -3.979  10.913  15.817  0.00  0.00    +0.000 A 
ATOM     24  C   UNL     1      -2.624  10.864  16.121  0.00  0.00    +0.000 A 
ATOM     25  C   UNL     1      -2.170  11.304  17.365  0.00  0.00    +0.000 A 
ATOM     26  C   UNL     1      -3.070  11.784  18.332  0.00  0.00    +0.000 A 
BRANCH  21  28
ATOM     27  C   UNL     1      -6.272  11.304  19.429  0.00  0.00    +0.000 C 
ATOM     28  O   UNL     1      -5.293  12.250  19.009  0.00  0.00    +0.000 OA
ENDBRANCH  21  28
ENDBRANCH  20  26
ENDBRANCH  16  20
ENDBRANCH   1  17
TORSDOF 6
ENDMDL
MODEL 9
REMARK VINA RESULT:      -6.9      3.372      4.810
REMARK  Name = 
REMARK  8 active torsions:
REMARK  status: ('A' for Active; 'I' for Inactive)
REMARK    1  A    between atoms: C_1  and  O_2
REMARK    2  A    between atoms: O_2  and  C_3
REMARK    3  A    between atoms: C_8  and  C_9
REMARK    4  A    between atoms: C_9  and  N_10
REMARK    5  A    between atoms: C_11  and  C_13
REMARK    6  A    between atoms: C_13  and  C_14
REMARK    7  A    between atoms: N_18  and  C_19
REMARK    8  A    between atoms: N_22  and  C_23
REMARK                            x       y       z     vdW  Elec       q    Type
REMARK                         _______ _______ _______ _____ _____    ______ ____
ROOT
ATOM      1  C   UNL     1       2.486   8.432  18.226  0.00  0.00    +0.000 C 
ENDROOT
BRANCH   1   2
ATOM      2  C   UNL     1       1.146   8.829  18.885  0.00  0.00    +0.000 C 
ATOM      3  C   UNL     1       1.293   8.845  20.415  0.00  0.00    +0.000 C 
ATOM      4  C   UNL     1      -0.067   9.112  21.035  0.00  0.00    +0.000 C 
ATOM      5  C   UNL     1      -0.565  10.485  20.616  0.00  0.00    +0.000 C 
ATOM      6  N   UNL     1      -0.656  10.560  19.145  0.00  0.00    +0.000 N 
ATOM      7  C   UNL     1       0.604  10.210  18.430  0.00  0.00    +0.000 C 
BRANCH   6   8
ATOM      8  C   UNL     1      -1.847  10.962  18.515  0.00  0.00    +0.000 A 
ATOM      9  C   UNL     1      -2.842  11.792  19.264  0.00  0.00    +0.000 A 
ATOM     10  N   UNL     1      -4.021  12.156  18.877  0.00  0.00    +0.000 NA
ATOM     11  N   UNL     1      -4.407  11.760  17.625  0.00  0.00    +0.000 N 
ATOM     12  C   UNL     1      -5.739  12.151  17.206  0.00  0.00    +0.000 C 
ATOM     13  C   UNL     1      -3.587  11.055  16.756  0.00  0.00    +0.000 A 
ATOM     14  O   UNL     1      -3.902  10.717  15.616  0.00  0.00    +0.000 OA
ATOM     15  C   UNL     1      -2.252  10.672  17.276  0.00  0.00    +0.000 A 
ENDBRANCH   6   8
ENDBRANCH   1   2
BRANCH   1  17
ATOM     16  N   UNL     1       3.942   6.533  18.748  0.00  0.00    +0.000 N 
ATOM     17  C   UNL     1       2.731   6.913  18.213  0.00  0.00    +0.000 C 
ATOM     18  O   UNL     1       1.916   6.116  17.751  0.00  0.00    +0.000 OA
ATOM     19  H   UNL     1       4.565   7.229  19.127  0.00  0.00    +0.000 HD
BRANCH  16  20
ATOM     20  C   UNL     1       4.364   5.150  18.890  0.00  0.00    +0.000 C 
BRANCH  20  26
ATOM     21  C   UNL     1       6.646   5.014  17.739  0.00  0.00    +0.000 A 
ATOM     22  C   UNL     1       7.431   4.618  16.646  0.00  0.00    +0.000 A 
ATOM     23  C   UNL     1       6.845   4.003  15.541  0.00  0.00    +0.000 A 
ATOM     24  C   UNL     1       5.479   3.747  15.534  0.00  0.00    +0.000 A 
ATOM     25  C   UNL     1       4.696   4.100  16.633  0.00  0.00    +0.000 A 
ATOM     26  C   UNL     1       5.266   4.735  17.750  0.00  0.00    +0.000 A 
BRANCH  21  28
ATOM     27  C   UNL     1       7.955   6.810  18.534  0.00  0.00    +0.000 C 
ATOM     28  O   UNL     1       7.159   5.666  18.833  0.00  0.00    +0.000 OA
ENDBRANCH  21  28
ENDBRANCH  20  26
ENDBRANCH  16  20
ENDBRANCH   1  17
TORSDOF 6
ENDMDL
