MODEL 1
REMARK VINA RESULT:      -8.1      0.000      0.000
REMARK  Name = 
REMARK  6 active torsions:
REMARK  status: ('A' for Active; 'I' for Inactive)
REMARK    1  A    between atoms: C_1  and  C_2
REMARK    2  A    between atoms: N_4  and  C_5
REMARK    3  A    between atoms: C_8  and  C_9
REMARK    4  A    between atoms: C_9  and  N_10
REMARK    5  A    between atoms: C_14  and  C_15
REMARK    6  A    between atoms: C_14  and  C_16
REMARK                            x       y       z     vdW  Elec       q    Type
REMARK                         _______ _______ _______ _____ _____    ______ ____
ROOT
ATOM      1  N   UNL     1       0.947  11.683  19.634  0.00  0.00    +0.000 N 
ATOM      2  C   UNL     1       0.593  11.534  21.142  0.00  0.00    +0.000 C 
ATOM      3  C   UNL     1      -0.536  12.630  21.553  0.00  0.00    +0.000 C 
ATOM      4  C   UNL     1      -1.594  12.101  20.597  0.00  0.00    +0.000 C 
ATOM      5  C   UNL     1      -2.897  12.839  20.648  0.00  0.00    +0.000 C 
ATOM      6  C   UNL     1      -2.847  14.384  20.646  0.00  0.00    +0.000 C 
ATOM      7  C   UNL     1      -3.611  12.423  19.384  0.00  0.00    +0.000 C 
ATOM      8  O   UNL     1      -3.543  12.237  21.781  0.00  0.00    +0.000 OA
ATOM      9  C   UNL     1      -2.740  12.280  22.966  0.00  0.00    +0.000 A 
ATOM     10  C   UNL     1      -3.643  12.404  24.023  0.00  0.00    +0.000 A 
ATOM     11  C   UNL     1      -3.623  13.602  24.716  0.00  0.00    +0.000 A 
ATOM     12  C   UNL     1      -2.560  14.463  24.465  0.00  0.00    +0.000 A 
ATOM     13  C   UNL     1      -1.444  14.082  23.641  0.00  0.00    +0.000 A 
ATOM     14  C   UNL     1      -1.447  12.882  22.885  0.00  0.00    +0.000 A 
ATOM     15  O   UNL     1       0.067  13.901  21.256  0.00  0.00    +0.000 OA
ATOM     16  C   UNL     1       0.528  14.082  19.934  0.00  0.00    +0.000 C 
ATOM     17  C   UNL     1       1.265  12.970  19.162  0.00  0.00    +0.000 C 
ATOM     18  O   UNL     1       1.913  13.211  18.159  0.00  0.00    +0.000 OA
ENDROOT
BRANCH   1  19
ATOM     19  C   UNL     1       1.075  10.597  18.617  0.00  0.00    +0.000 C 
BRANCH  19  23
ATOM     20  C   UNL     1       2.273   6.585  20.078  0.00  0.00    +0.000 A 
ATOM     21  C   UNL     1       2.614   7.010  18.793  0.00  0.00    +0.000 A 
ATOM     22  C   UNL     1       2.212   8.278  18.306  0.00  0.00    +0.000 A 
ATOM     23  C   UNL     1       1.444   9.168  19.091  0.00  0.00    +0.000 A 
ATOM     24  C   UNL     1       1.166   8.754  20.403  0.00  0.00    +0.000 A 
ATOM     25  C   UNL     1       1.558   7.487  20.879  0.00  0.00    +0.000 A 
BRANCH  20  29
ATOM     26  C   UNL     1       2.236   3.090  21.571  0.00  0.00    +0.000 C 
ATOM     27  C   UNL     1       1.689   4.223  20.726  0.00  0.00    +0.000 C 
ATOM     28  O   UNL     1       0.561   4.148  20.243  0.00  0.00    +0.000 OA
ATOM     29  N   UNL     1       2.563   5.292  20.603  0.00  0.00    +0.000 N 
ATOM     30  H   UNL     1       3.519   5.131  20.906  0.00  0.00    +0.000 HD
ENDBRANCH  20  29
ENDBRANCH  19  23
ENDBRANCH   1  19
TORSDOF 3
ENDMDL
MODEL 2
REMARK VINA RESULT:      -8.0      6.555     10.163
REMARK  Name = 
REMARK  6 active torsions:
REMARK  status: ('A' for Active; 'I' for Inactive)
REMARK    1  A    between atoms: C_1  and  C_2
REMARK    2  A    between atoms: N_4  and  C_5
REMARK    3  A    between atoms: C_8  and  C_9
REMARK    4  A    between atoms: C_9  and  N_10
REMARK    5  A    between atoms: C_14  and  C_15
REMARK    6  A    between atoms: C_14  and  C_16
REMARK                            x       y       z     vdW  Elec       q    Type
REMARK                         _______ _______ _______ _____ _____    ______ ____
ROOT
ATOM      1  N   UNL     1       6.010  15.864  18.997  0.00  0.00    +0.000 N 
ATOM      2  C   UNL     1       6.609  14.739  18.105  0.00  0.00    +0.000 C 
ATOM      3  C   UNL     1       8.186  14.542  18.452  0.00  0.00    +0.000 C 
ATOM      4  C   UNL     1       7.958  14.148  19.903  0.00  0.00    +0.000 C 
ATOM      5  C   UNL     1       9.211  13.833  20.662  0.00  0.00    +0.000 C 
ATOM      6  C   UNL     1      10.403  14.807  20.515  0.00  0.00    +0.000 C 
ATOM      7  C   UNL     1       8.789  13.873  22.112  0.00  0.00    +0.000 C 
ATOM      8  O   UNL     1       9.465  12.473  20.277  0.00  0.00    +0.000 OA
ATOM      9  C   UNL     1       9.520  12.299  18.856  0.00  0.00    +0.000 A 
ATOM     10  C   UNL     1      10.448  11.279  18.641  0.00  0.00    +0.000 A 
ATOM     11  C   UNL     1      11.630  11.639  18.017  0.00  0.00    +0.000 A 
ATOM     12  C   UNL     1      11.685  12.906  17.447  0.00  0.00    +0.000 A 
ATOM     13  C   UNL     1      10.531  13.761  17.365  0.00  0.00    +0.000 A 
ATOM     14  C   UNL     1       9.317  13.443  18.026  0.00  0.00    +0.000 A 
ATOM     15  O   UNL     1       8.778  15.824  18.186  0.00  0.00    +0.000 OA
ATOM     16  C   UNL     1       8.216  16.927  18.865  0.00  0.00    +0.000 C 
ATOM     17  C   UNL     1       6.695  17.092  19.048  0.00  0.00    +0.000 C 
ATOM     18  O   UNL     1       6.201  18.160  19.361  0.00  0.00    +0.000 OA
ENDROOT
BRANCH   1  19
ATOM     19  C   UNL     1       4.726  15.835  19.761  0.00  0.00    +0.000 C 
BRANCH  19  23
ATOM     20  C   UNL     1       1.669  12.740  18.895  0.00  0.00    +0.000 A 
ATOM     21  C   UNL     1       2.098  12.978  20.203  0.00  0.00    +0.000 A 
ATOM     22  C   UNL     1       3.094  13.944  20.487  0.00  0.00    +0.000 A 
ATOM     23  C   UNL     1       3.706  14.705  19.465  0.00  0.00    +0.000 A 
ATOM     24  C   UNL     1       3.218  14.503  18.165  0.00  0.00    +0.000 A 
ATOM     25  C   UNL     1       2.235  13.532  17.886  0.00  0.00    +0.000 A 
BRANCH  20  29
ATOM     26  C   UNL     1      -1.290  10.397  18.454  0.00  0.00    +0.000 C 
ATOM     27  C   UNL     1      -0.633  11.739  18.711  0.00  0.00    +0.000 C 
ATOM     28  O   UNL     1      -1.307  12.701  19.071  0.00  0.00    +0.000 OA
ATOM     29  N   UNL     1       0.740  11.725  18.523  0.00  0.00    +0.000 N 
ATOM     30  H   UNL     1       1.125  10.910  18.055  0.00  0.00    +0.000 HD
ENDBRANCH  20  29
ENDBRANCH  19  23
ENDBRANCH   1  19
TORSDOF 3
ENDMDL
MODEL 3
REMARK VINA RESULT:      -7.9      1.046      1.385
REMARK  Name = 
REMARK  6 active torsions:
REMARK  status: ('A' for Active; 'I' for Inactive)
REMARK    1  A    between atoms: C_1  and  C_2
REMARK    2  A    between atoms: N_4  and  C_5
REMARK    3  A    between atoms: C_8  and  C_9
REMARK    4  A    between atoms: C_9  and  N_10
REMARK    5  A    between atoms: C_14  and  C_15
REMARK    6  A    between atoms: C_14  and  C_16
REMARK                            x       y       z     vdW  Elec       q    Type
REMARK                         _______ _______ _______ _____ _____    ______ ____
ROOT
ATOM      1  N   UNL     1       0.979  10.982  19.673  0.00  0.00    +0.000 N 
ATOM      2  C   UNL     1       0.542  10.920  21.165  0.00  0.00    +0.000 C 
ATOM      3  C   UNL     1      -0.375  12.215  21.524  0.00  0.00    +0.000 C 
ATOM      4  C   UNL     1      -1.474  11.885  20.526  0.00  0.00    +0.000 C 
ATOM      5  C   UNL     1      -2.614  12.857  20.519  0.00  0.00    +0.000 C 
ATOM      6  C   UNL     1      -2.272  14.364  20.514  0.00  0.00    +0.000 C 
ATOM      7  C   UNL     1      -3.342  12.569  19.227  0.00  0.00    +0.000 C 
ATOM      8  O   UNL     1      -3.408  12.401  21.626  0.00  0.00    +0.000 OA
ATOM      9  C   UNL     1      -2.660  12.304  22.844  0.00  0.00    +0.000 A 
ATOM     10  C   UNL     1      -3.566  12.609  23.862  0.00  0.00    +0.000 A 
ATOM     11  C   UNL     1      -3.347  13.789  24.551  0.00  0.00    +0.000 A 
ATOM     12  C   UNL     1      -2.131  14.431  24.341  0.00  0.00    +0.000 A 
ATOM     13  C   UNL     1      -1.075  13.835  23.567  0.00  0.00    +0.000 A 
ATOM     14  C   UNL     1      -1.275  12.649  22.816  0.00  0.00    +0.000 A 
ATOM     15  O   UNL     1       0.470  13.344  21.248  0.00  0.00    +0.000 OA
ATOM     16  C   UNL     1       1.011  13.419  19.947  0.00  0.00    +0.000 C 
ATOM     17  C   UNL     1       1.555  12.179  19.210  0.00  0.00    +0.000 C 
ATOM     18  O   UNL     1       2.277  12.281  18.235  0.00  0.00    +0.000 OA
ENDROOT
BRANCH   1  19
ATOM     19  C   UNL     1       0.940   9.879  18.666  0.00  0.00    +0.000 C 
BRANCH  19  23
ATOM     20  C   UNL     1       3.110   6.072  19.348  0.00  0.00    +0.000 A 
ATOM     21  C   UNL     1       2.235   6.580  20.311  0.00  0.00    +0.000 A 
ATOM     22  C   UNL     1       1.559   7.809  20.115  0.00  0.00    +0.000 A 
ATOM     23  C   UNL     1       1.741   8.582  18.945  0.00  0.00    +0.000 A 
ATOM     24  C   UNL     1       2.570   8.026  17.959  0.00  0.00    +0.000 A 
ATOM     25  C   UNL     1       3.250   6.808  18.163  0.00  0.00    +0.000 A 
BRANCH  20  29
ATOM     26  C   UNL     1       4.470   2.569  19.913  0.00  0.00    +0.000 C 
ATOM     27  C   UNL     1       3.456   3.579  19.414  0.00  0.00    +0.000 C 
ATOM     28  O   UNL     1       2.363   3.206  18.996  0.00  0.00    +0.000 OA
ATOM     29  N   UNL     1       3.892   4.892  19.512  0.00  0.00    +0.000 N 
ATOM     30  H   UNL     1       4.878   5.027  19.707  0.00  0.00    +0.000 HD
ENDBRANCH  20  29
ENDBRANCH  19  23
ENDBRANCH   1  19
TORSDOF 3
ENDMDL
MODEL 4
REMARK VINA RESULT:      -7.8      1.530      2.455
REMARK  Name = 
REMARK  6 active torsions:
REMARK  status: ('A' for Active; 'I' for Inactive)
REMARK    1  A    between atoms: C_1  and  C_2
REMARK    2  A    between atoms: N_4  and  C_5
REMARK    3  A    between atoms: C_8  and  C_9
REMARK    4  A    between atoms: C_9  and  N_10
REMARK    5  A    between atoms: C_14  and  C_15
REMARK    6  A    between atoms: C_14  and  C_16
REMARK                            x       y       z     vdW  Elec       q    Type
REMARK                         _______ _______ _______ _____ _____    ______ ____
ROOT
ATOM      1  N   UNL     1       0.206  11.454  18.519  0.00  0.00    +0.000 N 
ATOM      2  C   UNL     1       0.138  12.905  19.077  0.00  0.00    +0.000 C 
ATOM      3  C   UNL     1      -0.948  12.981  20.285  0.00  0.00    +0.000 C 
ATOM      4  C   UNL     1      -0.223  11.988  21.182  0.00  0.00    +0.000 C 
ATOM      5  C   UNL     1      -0.892  11.745  22.501  0.00  0.00    +0.000 C 
ATOM      6  C   UNL     1      -2.418  11.503  22.498  0.00  0.00    +0.000 C 
ATOM      7  C   UNL     1      -0.249  10.479  23.017  0.00  0.00    +0.000 C 
ATOM      8  O   UNL     1      -0.439  12.862  23.281  0.00  0.00    +0.000 OA
ATOM      9  C   UNL     1      -0.705  14.123  22.654  0.00  0.00    +0.000 A 
ATOM     10  C   UNL     1      -0.944  15.015  23.700  0.00  0.00    +0.000 A 
ATOM     11  C   UNL     1      -2.234  15.504  23.814  0.00  0.00    +0.000 A 
ATOM     12  C   UNL     1      -3.100  15.263  22.753  0.00  0.00    +0.000 A 
ATOM     13  C   UNL     1      -2.655  14.669  21.521  0.00  0.00    +0.000 A 
ATOM     14  C   UNL     1      -1.354  14.121  21.382  0.00  0.00    +0.000 A 
ATOM     15  O   UNL     1      -2.187  12.568  19.685  0.00  0.00    +0.000 OA
ATOM     16  C   UNL     1      -2.185  11.308  19.048  0.00  0.00    +0.000 C 
ATOM     17  C   UNL     1      -1.008  10.829  18.176  0.00  0.00    +0.000 C 
ATOM     18  O   UNL     1      -1.124   9.897  17.402  0.00  0.00    +0.000 OA
ENDROOT
BRANCH   1  19
ATOM     19  C   UNL     1       1.428  10.650  18.217  0.00  0.00    +0.000 C 
BRANCH  19  23
ATOM     20  C   UNL     1       2.023   6.726  20.195  0.00  0.00    +0.000 A 
ATOM     21  C   UNL     1       2.491   6.953  18.899  0.00  0.00    +0.000 A 
ATOM     22  C   UNL     1       2.281   8.193  18.247  0.00  0.00    +0.000 A 
ATOM     23  C   UNL     1       1.585   9.253  18.871  0.00  0.00    +0.000 A 
ATOM     24  C   UNL     1       1.180   9.034  20.196  0.00  0.00    +0.000 A 
ATOM     25  C   UNL     1       1.380   7.794  20.836  0.00  0.00    +0.000 A 
BRANCH  20  29
ATOM     26  C   UNL     1       1.604   3.215  21.586  0.00  0.00    +0.000 C 
ATOM     27  C   UNL     1       1.541   4.274  20.504  0.00  0.00    +0.000 C 
ATOM     28  O   UNL     1       0.997   4.032  19.430  0.00  0.00    +0.000 OA
ATOM     29  N   UNL     1       2.117   5.478  20.878  0.00  0.00    +0.000 N 
ATOM     30  H   UNL     1       2.680   5.467  21.723  0.00  0.00    +0.000 HD
ENDBRANCH  20  29
ENDBRANCH  19  23
ENDBRANCH   1  19
TORSDOF 3
ENDMDL
MODEL 5
REMARK VINA RESULT:      -7.8      8.304     10.650
REMARK  Name = 
REMARK  6 active torsions:
REMARK  status: ('A' for Active; 'I' for Inactive)
REMARK    1  A    between atoms: C_1  and  C_2
REMARK    2  A    between atoms: N_4  and  C_5
REMARK    3  A    between atoms: C_8  and  C_9
REMARK    4  A    between atoms: C_9  and  N_10
REMARK    5  A    between atoms: C_14  and  C_15
REMARK    6  A    between atoms: C_14  and  C_16
REMARK                            x       y       z     vdW  Elec       q    Type
REMARK                         _______ _______ _______ _____ _____    ______ ____
ROOT
ATOM      1  N   UNL     1       6.371   5.504  17.732  0.00  0.00    +0.000 N 
ATOM      2  C   UNL     1       4.921   5.895  18.142  0.00  0.00    +0.000 C 
ATOM      3  C   UNL     1       3.993   4.562  18.220  0.00  0.00    +0.000 C 
ATOM      4  C   UNL     1       4.805   3.894  19.319  0.00  0.00    +0.000 C 
ATOM      5  C   UNL     1       4.275   2.563  19.757  0.00  0.00    +0.000 C 
ATOM      6  C   UNL     1       3.865   1.557  18.658  0.00  0.00    +0.000 C 
ATOM      7  C   UNL     1       5.420   1.938  20.519  0.00  0.00    +0.000 C 
ATOM      8  O   UNL     1       3.238   2.938  20.677  0.00  0.00    +0.000 OA
ATOM      9  C   UNL     1       2.288   3.846  20.106  0.00  0.00    +0.000 A 
ATOM     10  C   UNL     1       1.069   3.538  20.710  0.00  0.00    +0.000 A 
ATOM     11  C   UNL     1       0.096   2.986  19.895  0.00  0.00    +0.000 A 
ATOM     12  C   UNL     1       0.326   3.015  18.524  0.00  0.00    +0.000 A 
ATOM     13  C   UNL     1       1.443   3.716  17.949  0.00  0.00    +0.000 A 
ATOM     14  C   UNL     1       2.479   4.259  18.752  0.00  0.00    +0.000 A 
ATOM     15  O   UNL     1       4.055   4.000  16.899  0.00  0.00    +0.000 OA
ATOM     16  C   UNL     1       5.344   3.722  16.395  0.00  0.00    +0.000 C 
ATOM     17  C   UNL     1       6.530   4.684  16.600  0.00  0.00    +0.000 C 
ATOM     18  O   UNL     1       7.545   4.599  15.931  0.00  0.00    +0.000 OA
ENDROOT
BRANCH   1  19
ATOM     19  C   UNL     1       7.648   5.966  18.353  0.00  0.00    +0.000 C 
BRANCH  19  23
ATOM     20  C   UNL     1       8.690  10.276  18.257  0.00  0.00    +0.000 A 
ATOM     21  C   UNL     1       9.186   9.441  19.260  0.00  0.00    +0.000 A 
ATOM     22  C   UNL     1       8.837   8.069  19.316  0.00  0.00    +0.000 A 
ATOM     23  C   UNL     1       7.968   7.483  18.369  0.00  0.00    +0.000 A 
ATOM     24  C   UNL     1       7.531   8.318  17.329  0.00  0.00    +0.000 A 
ATOM     25  C   UNL     1       7.872   9.684  17.283  0.00  0.00    +0.000 A 
BRANCH  20  29
ATOM     26  C   UNL     1      10.095  13.805  18.171  0.00  0.00    +0.000 C 
ATOM     27  C   UNL     1      10.120  12.315  17.894  0.00  0.00    +0.000 C 
ATOM     28  O   UNL     1      11.142  11.780  17.471  0.00  0.00    +0.000 OA
ATOM     29  N   UNL     1       8.924  11.680  18.187  0.00  0.00    +0.000 N 
ATOM     30  H   UNL     1       8.123  12.280  18.356  0.00  0.00    +0.000 HD
ENDBRANCH  20  29
ENDBRANCH  19  23
ENDBRANCH   1  19
TORSDOF 3
ENDMDL
MODEL 6
REMARK VINA RESULT:      -7.7      2.281      4.077
REMARK  Name = 
REMARK  6 active torsions:
REMARK  status: ('A' for Active; 'I' for Inactive)
REMARK    1  A    between atoms: C_1  and  C_2
REMARK    2  A    between atoms: N_4  and  C_5
REMARK    3  A    between atoms: C_8  and  C_9
REMARK    4  A    between atoms: C_9  and  N_10
REMARK    5  A    between atoms: C_14  and  C_15
REMARK    6  A    between atoms: C_14  and  C_16
REMARK                            x       y       z     vdW  Elec       q    Type
REMARK                         _______ _______ _______ _____ _____    ______ ____
ROOT
ATOM      1  N   UNL     1       0.586  11.246  19.651  0.00  0.00    +0.000 N 
ATOM      2  C   UNL     1       1.615  12.374  19.348  0.00  0.00    +0.000 C 
ATOM      3  C   UNL     1       0.903  13.828  19.515  0.00  0.00    +0.000 C 
ATOM      4  C   UNL     1       0.572  13.649  20.988  0.00  0.00    +0.000 C 
ATOM      5  C   UNL     1      -0.116  14.824  21.614  0.00  0.00    +0.000 C 
ATOM      6  C   UNL     1      -1.290  15.464  20.838  0.00  0.00    +0.000 C 
ATOM      7  C   UNL     1      -0.688  14.279  22.902  0.00  0.00    +0.000 C 
ATOM      8  O   UNL     1       0.985  15.696  21.912  0.00  0.00    +0.000 OA
ATOM      9  C   UNL     1       1.802  15.971  20.768  0.00  0.00    +0.000 A 
ATOM     10  C   UNL     1       2.269  17.274  20.949  0.00  0.00    +0.000 A 
ATOM     11  C   UNL     1       1.798  18.229  20.065  0.00  0.00    +0.000 A 
ATOM     12  C   UNL     1       1.110  17.773  18.946  0.00  0.00    +0.000 A 
ATOM     13  C   UNL     1       1.013  16.374  18.624  0.00  0.00    +0.000 A 
ATOM     14  C   UNL     1       1.448  15.368  19.524  0.00  0.00    +0.000 A 
ATOM     15  O   UNL     1      -0.182  13.810  18.573  0.00  0.00    +0.000 OA
ATOM     16  C   UNL     1      -1.103  12.748  18.698  0.00  0.00    +0.000 C 
ATOM     17  C   UNL     1      -0.657  11.303  18.994  0.00  0.00    +0.000 C 
ATOM     18  O   UNL     1      -1.399  10.355  18.811  0.00  0.00    +0.000 OA
ENDROOT
BRANCH   1  19
ATOM     19  C   UNL     1       0.785  10.039  20.507  0.00  0.00    +0.000 C 
BRANCH  19  23
ATOM     20  C   UNL     1       2.602   6.390  18.759  0.00  0.00    +0.000 A 
ATOM     21  C   UNL     1       2.466   7.555  18.002  0.00  0.00    +0.000 A 
ATOM     22  C   UNL     1       1.861   8.718  18.542  0.00  0.00    +0.000 A 
ATOM     23  C   UNL     1       1.362   8.752  19.863  0.00  0.00    +0.000 A 
ATOM     24  C   UNL     1       1.566   7.596  20.633  0.00  0.00    +0.000 A 
ATOM     25  C   UNL     1       2.158   6.438  20.088  0.00  0.00    +0.000 A 
BRANCH  20  29
ATOM     26  C   UNL     1       3.208   2.843  17.540  0.00  0.00    +0.000 C 
ATOM     27  C   UNL     1       2.390   4.106  17.723  0.00  0.00    +0.000 C 
ATOM     28  O   UNL     1       1.198   4.122  17.426  0.00  0.00    +0.000 OA
ATOM     29  N   UNL     1       3.116   5.159  18.258  0.00  0.00    +0.000 N 
ATOM     30  H   UNL     1       4.125   5.047  18.281  0.00  0.00    +0.000 HD
ENDBRANCH  20  29
ENDBRANCH  19  23
ENDBRANCH   1  19
TORSDOF 3
ENDMDL
MODEL 7
REMARK VINA RESULT:      -7.7      5.412      7.522
REMARK  Name = 
REMARK  6 active torsions:
REMARK  status: ('A' for Active; 'I' for Inactive)
REMARK    1  A    between atoms: C_1  and  C_2
REMARK    2  A    between atoms: N_4  and  C_5
REMARK    3  A    between atoms: C_8  and  C_9
REMARK    4  A    between atoms: C_9  and  N_10
REMARK    5  A    between atoms: C_14  and  C_15
REMARK    6  A    between atoms: C_14  and  C_16
REMARK                            x       y       z     vdW  Elec       q    Type
REMARK                         _______ _______ _______ _____ _____    ______ ____
ROOT
ATOM      1  N   UNL     1      -7.122  13.440  22.518  0.00  0.00    +0.000 N 
ATOM      2  C   UNL     1      -6.425  14.763  22.949  0.00  0.00    +0.000 C 
ATOM      3  C   UNL     1      -4.934  14.440  23.515  0.00  0.00    +0.000 C 
ATOM      4  C   UNL     1      -4.420  13.846  22.213  0.00  0.00    +0.000 C 
ATOM      5  C   UNL     1      -2.990  13.400  22.259  0.00  0.00    +0.000 C 
ATOM      6  C   UNL     1      -2.535  12.573  23.483  0.00  0.00    +0.000 C 
ATOM      7  C   UNL     1      -2.836  12.511  21.048  0.00  0.00    +0.000 C 
ATOM      8  O   UNL     1      -2.282  14.631  22.040  0.00  0.00    +0.000 OA
ATOM      9  C   UNL     1      -2.658  15.661  22.962  0.00  0.00    +0.000 A 
ATOM     10  C   UNL     1      -1.504  16.419  23.165  0.00  0.00    +0.000 A 
ATOM     11  C   UNL     1      -0.939  16.360  24.427  0.00  0.00    +0.000 A 
ATOM     12  C   UNL     1      -1.691  15.761  25.432  0.00  0.00    +0.000 A 
ATOM     13  C   UNL     1      -3.055  15.352  25.226  0.00  0.00    +0.000 A 
ATOM     14  C   UNL     1      -3.654  15.361  23.941  0.00  0.00    +0.000 A 
ATOM     15  O   UNL     1      -5.152  13.550  24.622  0.00  0.00    +0.000 OA
ATOM     16  C   UNL     1      -5.883  12.374  24.348  0.00  0.00    +0.000 C 
ATOM     17  C   UNL     1      -7.126  12.374  23.437  0.00  0.00    +0.000 C 
ATOM     18  O   UNL     1      -7.916  11.448  23.435  0.00  0.00    +0.000 OA
ENDROOT
BRANCH   1  19
ATOM     19  C   UNL     1      -7.876  13.177  21.256  0.00  0.00    +0.000 C 
BRANCH  19  23
ATOM     20  C   UNL     1      -5.854  11.550  17.659  0.00  0.00    +0.000 A 
ATOM     21  C   UNL     1      -6.381  10.698  18.631  0.00  0.00    +0.000 A 
ATOM     22  C   UNL     1      -7.004  11.207  19.797  0.00  0.00    +0.000 A 
ATOM     23  C   UNL     1      -7.114  12.596  20.037  0.00  0.00    +0.000 A 
ATOM     24  C   UNL     1      -6.639  13.439  19.020  0.00  0.00    +0.000 A 
ATOM     25  C   UNL     1      -6.010  12.928  17.867  0.00  0.00    +0.000 A 
BRANCH  20  29
ATOM     26  C   UNL     1      -3.294  10.694  14.985  0.00  0.00    +0.000 C 
ATOM     27  C   UNL     1      -3.772  10.883  16.410  0.00  0.00    +0.000 C 
ATOM     28  O   UNL     1      -2.973  10.847  17.343  0.00  0.00    +0.000 OA
ATOM     29  N   UNL     1      -5.135  11.113  16.508  0.00  0.00    +0.000 N 
ATOM     30  H   UNL     1      -5.685  10.935  15.674  0.00  0.00    +0.000 HD
ENDBRANCH  20  29
ENDBRANCH  19  23
ENDBRANCH   1  19
TORSDOF 3
ENDMDL
MODEL 8
REMARK VINA RESULT:      -7.6      1.210      1.219
REMARK  Name = 
REMARK  6 active torsions:
REMARK  status: ('A' for Active; 'I' for Inactive)
REMARK    1  A    between atoms: C_1  and  C_2
REMARK    2  A    between atoms: N_4  and  C_5
REMARK    3  A    between atoms: C_8  and  C_9
REMARK    4  A    between atoms: C_9  and  N_10
REMARK    5  A    between atoms: C_14  and  C_15
REMARK    6  A    between atoms: C_14  and  C_16
REMARK                            x       y       z     vdW  Elec       q    Type
REMARK                         _______ _______ _______ _____ _____    ______ ____
ROOT
ATOM      1  N   UNL     1       0.194  11.633  19.648  0.00  0.00    +0.000 N 
ATOM      2  C   UNL     1      -0.053  11.475  21.176  0.00  0.00    +0.000 C 
ATOM      3  C   UNL     1      -1.074  12.632  21.692  0.00  0.00    +0.000 C 
ATOM      4  C   UNL     1      -2.234  12.192  20.812  0.00  0.00    +0.000 C 
ATOM      5  C   UNL     1      -3.478  13.011  20.975  0.00  0.00    +0.000 C 
ATOM      6  C   UNL     1      -3.328  14.549  20.994  0.00  0.00    +0.000 C 
ATOM      7  C   UNL     1      -4.313  12.668  19.763  0.00  0.00    +0.000 C 
ATOM      8  O   UNL     1      -4.074  12.427  22.144  0.00  0.00    +0.000 OA
ATOM      9  C   UNL     1      -3.182  12.393  23.265  0.00  0.00    +0.000 A 
ATOM     10  C   UNL     1      -3.992  12.553  24.390  0.00  0.00    +0.000 A 
ATOM     11  C   UNL     1      -3.841  13.732  25.099  0.00  0.00    +0.000 A 
ATOM     12  C   UNL     1      -2.746  14.528  24.781  0.00  0.00    +0.000 A 
ATOM     13  C   UNL     1      -1.723  14.094  23.867  0.00  0.00    +0.000 A 
ATOM     14  C   UNL     1      -1.863  12.913  23.094  0.00  0.00    +0.000 A 
ATOM     15  O   UNL     1      -0.414  13.867  21.369  0.00  0.00    +0.000 OA
ATOM     16  C   UNL     1      -0.043  14.046  20.019  0.00  0.00    +0.000 C 
ATOM     17  C   UNL     1       0.558  12.907  19.174  0.00  0.00    +0.000 C 
ATOM     18  O   UNL     1       1.142  13.126  18.128  0.00  0.00    +0.000 OA
ENDROOT
BRANCH   1  19
ATOM     19  C   UNL     1       0.172  10.563  18.607  0.00  0.00    +0.000 C 
BRANCH  19  23
ATOM     20  C   UNL     1       2.741   7.021  19.335  0.00  0.00    +0.000 A 
ATOM     21  C   UNL     1       2.735   7.659  18.093  0.00  0.00    +0.000 A 
ATOM     22  C   UNL     1       1.898   8.773  17.841  0.00  0.00    +0.000 A 
ATOM     23  C   UNL     1       1.025   9.287  18.827  0.00  0.00    +0.000 A 
ATOM     24  C   UNL     1       1.090   8.678  20.090  0.00  0.00    +0.000 A 
ATOM     25  C   UNL     1       1.917   7.562  20.332  0.00  0.00    +0.000 A 
BRANCH  20  29
ATOM     26  C   UNL     1       4.254   3.543  19.558  0.00  0.00    +0.000 C 
ATOM     27  C   UNL     1       3.629   4.719  18.836  0.00  0.00    +0.000 C 
ATOM     28  O   UNL     1       3.283   4.613  17.662  0.00  0.00    +0.000 OA
ATOM     29  N   UNL     1       3.487   5.844  19.633  0.00  0.00    +0.000 N 
ATOM     30  H   UNL     1       3.980   5.834  20.520  0.00  0.00    +0.000 HD
ENDBRANCH  20  29
ENDBRANCH  19  23
ENDBRANCH   1  19
TORSDOF 3
ENDMDL
MODEL 9
REMARK VINA RESULT:      -7.5      2.119      2.599
REMARK  Name = 
REMARK  6 active torsions:
REMARK  status: ('A' for Active; 'I' for Inactive)
REMARK    1  A    between atoms: C_1  and  C_2
REMARK    2  A    between atoms: N_4  and  C_5
REMARK    3  A    between atoms: C_8  and  C_9
REMARK    4  A    between atoms: C_9  and  N_10
REMARK    5  A    between atoms: C_14  and  C_15
REMARK    6  A    between atoms: C_14  and  C_16
REMARK                            x       y       z     vdW  Elec       q    Type
REMARK                         _______ _______ _______ _____ _____    ______ ____
ROOT
ATOM      1  N   UNL     1       0.794  10.587  19.797  0.00  0.00    +0.000 N 
ATOM      2  C   UNL     1       0.395  10.658  21.299  0.00  0.00    +0.000 C 
ATOM      3  C   UNL     1      -0.439  12.026  21.583  0.00  0.00    +0.000 C 
ATOM      4  C   UNL     1      -1.582  11.687  20.638  0.00  0.00    +0.000 C 
ATOM      5  C   UNL     1      -2.667  12.719  20.585  0.00  0.00    +0.000 C 
ATOM      6  C   UNL     1      -2.243  14.200  20.461  0.00  0.00    +0.000 C 
ATOM      7  C   UNL     1      -3.445  12.380  19.336  0.00  0.00    +0.000 C 
ATOM      8  O   UNL     1      -3.454  12.390  21.741  0.00  0.00    +0.000 OA
ATOM      9  C   UNL     1      -2.680  12.340  22.945  0.00  0.00    +0.000 A 
ATOM     10  C   UNL     1      -3.539  12.768  23.958  0.00  0.00    +0.000 A 
ATOM     11  C   UNL     1      -3.238  13.981  24.553  0.00  0.00    +0.000 A 
ATOM     12  C   UNL     1      -1.995  14.536  24.269  0.00  0.00    +0.000 A 
ATOM     13  C   UNL     1      -0.994  13.827  23.516  0.00  0.00    +0.000 A 
ATOM     14  C   UNL     1      -1.279  12.603  22.860  0.00  0.00    +0.000 A 
ATOM     15  O   UNL     1       0.458  13.083  21.205  0.00  0.00    +0.000 OA
ATOM     16  C   UNL     1       0.967  13.033  19.889  0.00  0.00    +0.000 C 
ATOM     17  C   UNL     1       1.421  11.714  19.234  0.00  0.00    +0.000 C 
ATOM     18  O   UNL     1       2.121  11.704  18.237  0.00  0.00    +0.000 OA
ENDROOT
BRANCH   1  19
ATOM     19  C   UNL     1       0.667   9.419  18.875  0.00  0.00    +0.000 C 
BRANCH  19  23
ATOM     20  C   UNL     1       3.968   6.498  18.382  0.00  0.00    +0.000 A 
ATOM     21  C   UNL     1       3.147   6.467  19.511  0.00  0.00    +0.000 A 
ATOM     22  C   UNL     1       2.108   7.413  19.692  0.00  0.00    +0.000 A 
ATOM     23  C   UNL     1       1.858   8.434  18.747  0.00  0.00    +0.000 A 
ATOM     24  C   UNL     1       2.647   8.412  17.587  0.00  0.00    +0.000 A 
ATOM     25  C   UNL     1       3.687   7.476  17.417  0.00  0.00    +0.000 A 
BRANCH  20  29
ATOM     26  C   UNL     1       7.087   4.690  17.183  0.00  0.00    +0.000 C 
ATOM     27  C   UNL     1       6.220   5.909  17.424  0.00  0.00    +0.000 C 
ATOM     28  O   UNL     1       6.537   6.998  16.953  0.00  0.00    +0.000 OA
ATOM     29  N   UNL     1       5.087   5.639  18.175  0.00  0.00    +0.000 N 
ATOM     30  H   UNL     1       5.056   4.738  18.641  0.00  0.00    +0.000 HD
ENDBRANCH  20  29
ENDBRANCH  19  23
ENDBRANCH   1  19
TORSDOF 3
ENDMDL
