MODEL 1
REMARK VINA RESULT:      -7.1      0.000      0.000
REMARK  Name = 
REMARK  12 active torsions:
REMARK  status: ('A' for Active; 'I' for Inactive)
REMARK    1  A    between atoms: C_1  and  C_2
REMARK    2  A    between atoms: C_2  and  C_3
REMARK    3  A    between atoms: C_3  and  C_4
REMARK    4  A    between atoms: C_4  and  O_5
REMARK    5  A    between atoms: O_5  and  C_6
REMARK    6  A    between atoms: C_9  and  C_10
REMARK    7  A    between atoms: C_10  and  O_11
REMARK    8  A    between atoms: C_10  and  C_12
REMARK    9  A    between atoms: C_10  and  C_14
REMARK   10  A    between atoms: C_12  and  C_13
REMARK   11  A    between atoms: C_14  and  C_15
REMARK   12  A    between atoms: C_15  and  N_16
REMARK                            x       y       z     vdW  Elec       q    Type
REMARK                         _______ _______ _______ _____ _____    ______ ____
ROOT
ATOM      1  C   UNL     1       6.257   4.851  18.103  0.00  0.00    +0.000 C 
ENDROOT
BRANCH   1   5
ATOM      2  C   UNL     1       6.195   3.940  13.830  0.00  0.00    +0.000 A 
ATOM      3  C   UNL     1       5.198   3.485  14.687  0.00  0.00    +0.000 A 
ATOM      4  C   UNL     1       5.202   3.833  16.035  0.00  0.00    +0.000 A 
ATOM      5  C   UNL     1       6.228   4.612  16.590  0.00  0.00    +0.000 A 
ATOM      6  C   UNL     1       7.198   5.116  15.702  0.00  0.00    +0.000 A 
ATOM      7  C   UNL     1       7.181   4.785  14.336  0.00  0.00    +0.000 A 
BRANCH   2   8
ATOM      8  O   UNL     1       6.289   3.618  12.499  0.00  0.00    +0.000 OA
BRANCH   8   9
ATOM      9  C   UNL     1       5.097   3.054  11.945  0.00  0.00    +0.000 C 
BRANCH   9  10
ATOM     10  C   UNL     1       4.281   4.119  11.229  0.00  0.00    +0.000 C 
BRANCH  10  12
ATOM     11  C   UNL     1       2.683   4.370   9.298  0.00  0.00    +0.000 C 
ATOM     12  C   UNL     1       3.193   3.449  10.389  0.00  0.00    +0.000 C 
ENDBRANCH  10  12
ENDBRANCH   9  10
ENDBRANCH   8   9
ENDBRANCH   2   8
ENDBRANCH   1   5
BRANCH   1  13
ATOM     13  O   UNL     1       5.935   3.660  18.836  0.00  0.00    +0.000 OA
ATOM     14  H   UNL     1       5.603   3.904  19.710  0.00  0.00    +0.000 HD
ENDBRANCH   1  13
BRANCH   1  15
ATOM     15  C   UNL     1       7.649   5.351  18.572  0.00  0.00    +0.000 C 
ATOM     16  C   UNL     1       7.863   6.859  18.516  0.00  0.00    +0.000 C 
ENDBRANCH   1  15
BRANCH   1  17
ATOM     17  C   UNL     1       5.206   5.899  18.579  0.00  0.00    +0.000 C 
BRANCH  17  18
ATOM     18  C   UNL     1       4.211   5.349  19.618  0.00  0.00    +0.000 C 
BRANCH  18  19
ATOM     19  N   UNL     1       2.830   5.846  19.431  0.00  0.00    +0.000 NA
ATOM     20  C   UNL     1       1.899   5.412  20.497  0.00  0.00    +0.000 C 
ATOM     21  C   UNL     1       1.612   3.902  20.485  0.00  0.00    +0.000 C 
ATOM     22  O   UNL     1       1.082   3.486  19.220  0.00  0.00    +0.000 OA
ATOM     23  C   UNL     1       1.968   3.839  18.148  0.00  0.00    +0.000 C 
ATOM     24  C   UNL     1       2.276   5.349  18.145  0.00  0.00    +0.000 C 
ENDBRANCH  18  19
ENDBRANCH  17  18
ENDBRANCH   1  17
TORSDOF 10
ENDMDL
MODEL 2
REMARK VINA RESULT:      -7.0      3.863      7.537
REMARK  Name = 
REMARK  12 active torsions:
REMARK  status: ('A' for Active; 'I' for Inactive)
REMARK    1  A    between atoms: C_1  and  C_2
REMARK    2  A    between atoms: C_2  and  C_3
REMARK    3  A    between atoms: C_3  and  C_4
REMARK    4  A    between atoms: C_4  and  O_5
REMARK    5  A    between atoms: O_5  and  C_6
REMARK    6  A    between atoms: C_9  and  C_10
REMARK    7  A    between atoms: C_10  and  O_11
REMARK    8  A    between atoms: C_10  and  C_12
REMARK    9  A    between atoms: C_10  and  C_14
REMARK   10  A    between atoms: C_12  and  C_13
REMARK   11  A    between atoms: C_14  and  C_15
REMARK   12  A    between atoms: C_15  and  N_16
REMARK                            x       y       z     vdW  Elec       q    Type
REMARK                         _______ _______ _______ _____ _____    ______ ____
ROOT
ATOM      1  C   UNL     1       2.726   5.651  19.671  0.00  0.00    +0.000 C 
ENDROOT
BRANCH   1   5
ATOM      2  C   UNL     1       1.178   9.673  18.949  0.00  0.00    +0.000 A 
ATOM      3  C   UNL     1       1.092   9.072  20.201  0.00  0.00    +0.000 A 
ATOM      4  C   UNL     1       1.643   7.814  20.429  0.00  0.00    +0.000 A 
ATOM      5  C   UNL     1       2.260   7.086  19.401  0.00  0.00    +0.000 A 
ATOM      6  C   UNL     1       2.394   7.728  18.155  0.00  0.00    +0.000 A 
ATOM      7  C   UNL     1       1.860   9.009  17.932  0.00  0.00    +0.000 A 
BRANCH   2   8
ATOM      8  O   UNL     1       0.634  10.892  18.628  0.00  0.00    +0.000 OA
BRANCH   8   9
ATOM      9  C   UNL     1      -0.661  11.123  19.187  0.00  0.00    +0.000 C 
BRANCH   9  10
ATOM     10  C   UNL     1      -1.713  10.293  18.470  0.00  0.00    +0.000 C 
BRANCH  10  12
ATOM     11  C   UNL     1      -2.535  10.056  16.101  0.00  0.00    +0.000 C 
ATOM     12  C   UNL     1      -2.170  11.026  17.209  0.00  0.00    +0.000 C 
ENDBRANCH  10  12
ENDBRANCH   9  10
ENDBRANCH   8   9
ENDBRANCH   2   8
ENDBRANCH   1   5
BRANCH   1  13
ATOM     13  O   UNL     1       2.470   5.256  21.027  0.00  0.00    +0.000 OA
ATOM     14  H   UNL     1       3.232   4.765  21.364  0.00  0.00    +0.000 HD
ENDBRANCH   1  13
BRANCH   1  15
ATOM     15  C   UNL     1       2.025   4.640  18.726  0.00  0.00    +0.000 C 
ATOM     16  C   UNL     1       1.228   3.537  19.412  0.00  0.00    +0.000 C 
ENDBRANCH   1  15
BRANCH   1  17
ATOM     17  C   UNL     1       4.262   5.461  19.492  0.00  0.00    +0.000 C 
BRANCH  17  18
ATOM     18  C   UNL     1       4.669   5.013  18.076  0.00  0.00    +0.000 C 
BRANCH  18  19
ATOM     19  N   UNL     1       5.577   5.962  17.396  0.00  0.00    +0.000 NA
ATOM     20  C   UNL     1       5.805   5.640  15.968  0.00  0.00    +0.000 C 
ATOM     21  C   UNL     1       6.606   4.347  15.752  0.00  0.00    +0.000 C 
ATOM     22  O   UNL     1       7.876   4.408  16.414  0.00  0.00    +0.000 OA
ATOM     23  C   UNL     1       7.716   4.672  17.814  0.00  0.00    +0.000 C 
ATOM     24  C   UNL     1       6.908   5.962  18.056  0.00  0.00    +0.000 C 
ENDBRANCH  18  19
ENDBRANCH  17  18
ENDBRANCH   1  17
TORSDOF 10
ENDMDL
MODEL 3
REMARK VINA RESULT:      -6.9      3.947      7.655
REMARK  Name = 
REMARK  12 active torsions:
REMARK  status: ('A' for Active; 'I' for Inactive)
REMARK    1  A    between atoms: C_1  and  C_2
REMARK    2  A    between atoms: C_2  and  C_3
REMARK    3  A    between atoms: C_3  and  C_4
REMARK    4  A    between atoms: C_4  and  O_5
REMARK    5  A    between atoms: O_5  and  C_6
REMARK    6  A    between atoms: C_9  and  C_10
REMARK    7  A    between atoms: C_10  and  O_11
REMARK    8  A    between atoms: C_10  and  C_12
REMARK    9  A    between atoms: C_10  and  C_14
REMARK   10  A    between atoms: C_12  and  C_13
REMARK   11  A    between atoms: C_14  and  C_15
REMARK   12  A    between atoms: C_15  and  N_16
REMARK                            x       y       z     vdW  Elec       q    Type
REMARK                         _______ _______ _______ _____ _____    ______ ____
ROOT
ATOM      1  C   UNL     1       2.965   5.685  19.450  0.00  0.00    +0.000 C 
ENDROOT
BRANCH   1   5
ATOM      2  C   UNL     1       1.155   9.658  19.261  0.00  0.00    +0.000 A 
ATOM      3  C   UNL     1       1.738   9.068  18.144  0.00  0.00    +0.000 A 
ATOM      4  C   UNL     1       2.258   7.778  18.207  0.00  0.00    +0.000 A 
ATOM      5  C   UNL     1       2.258   7.044  19.402  0.00  0.00    +0.000 A 
ATOM      6  C   UNL     1       1.612   7.627  20.510  0.00  0.00    +0.000 A 
ATOM      7  C   UNL     1       1.065   8.920  20.439  0.00  0.00    +0.000 A 
BRANCH   2   8
ATOM      8  O   UNL     1       0.650  10.934  19.298  0.00  0.00    +0.000 OA
BRANCH   8   9
ATOM      9  C   UNL     1      -0.778  11.001  19.324  0.00  0.00    +0.000 C 
BRANCH   9  10
ATOM     10  C   UNL     1      -1.336  11.132  17.916  0.00  0.00    +0.000 C 
BRANCH  10  12
ATOM     11  C   UNL     1      -3.676  10.229  17.672  0.00  0.00    +0.000 C 
ATOM     12  C   UNL     1      -2.195   9.909  17.593  0.00  0.00    +0.000 C 
ENDBRANCH  10  12
ENDBRANCH   9  10
ENDBRANCH   8   9
ENDBRANCH   2   8
ENDBRANCH   1   5
BRANCH   1  13
ATOM     13  O   UNL     1       4.350   5.818  19.802  0.00  0.00    +0.000 OA
ATOM     14  H   UNL     1       4.628   6.733  19.656  0.00  0.00    +0.000 HD
ENDBRANCH   1  13
BRANCH   1  15
ATOM     15  C   UNL     1       2.291   4.732  20.472  0.00  0.00    +0.000 C 
ATOM     16  C   UNL     1       1.092   3.947  19.954  0.00  0.00    +0.000 C 
ENDBRANCH   1  15
BRANCH   1  17
ATOM     17  C   UNL     1       2.979   4.953  18.075  0.00  0.00    +0.000 C 
BRANCH  17  18
ATOM     18  C   UNL     1       4.364   4.407  17.679  0.00  0.00    +0.000 C 
BRANCH  18  19
ATOM     19  N   UNL     1       4.781   4.794  16.314  0.00  0.00    +0.000 NA
ATOM     20  C   UNL     1       6.035   4.141  15.874  0.00  0.00    +0.000 C 
ATOM     21  C   UNL     1       7.277   4.614  16.645  0.00  0.00    +0.000 C 
ATOM     22  O   UNL     1       7.441   6.035  16.540  0.00  0.00    +0.000 OA
ATOM     23  C   UNL     1       6.271   6.725  16.999  0.00  0.00    +0.000 C 
ATOM     24  C   UNL     1       5.010   6.260  16.244  0.00  0.00    +0.000 C 
ENDBRANCH  18  19
ENDBRANCH  17  18
ENDBRANCH   1  17
TORSDOF 10
ENDMDL
MODEL 4
REMARK VINA RESULT:      -6.9      3.528      7.241
REMARK  Name = 
REMARK  12 active torsions:
REMARK  status: ('A' for Active; 'I' for Inactive)
REMARK    1  A    between atoms: C_1  and  C_2
REMARK    2  A    between atoms: C_2  and  C_3
REMARK    3  A    between atoms: C_3  and  C_4
REMARK    4  A    between atoms: C_4  and  O_5
REMARK    5  A    between atoms: O_5  and  C_6
REMARK    6  A    between atoms: C_9  and  C_10
REMARK    7  A    between atoms: C_10  and  O_11
REMARK    8  A    between atoms: C_10  and  C_12
REMARK    9  A    between atoms: C_10  and  C_14
REMARK   10  A    between atoms: C_12  and  C_13
REMARK   11  A    between atoms: C_14  and  C_15
REMARK   12  A    between atoms: C_15  and  N_16
REMARK                            x       y       z     vdW  Elec       q    Type
REMARK                         _______ _______ _______ _____ _____    ______ ____
ROOT
ATOM      1  C   UNL     1       3.047   4.253  18.964  0.00  0.00    +0.000 C 
ENDROOT
BRANCH   1   5
ATOM      2  C   UNL     1       1.675   8.375  19.439  0.00  0.00    +0.000 A 
ATOM      3  C   UNL     1       1.650   7.471  20.497  0.00  0.00    +0.000 A 
ATOM      4  C   UNL     1       2.146   6.179  20.344  0.00  0.00    +0.000 A 
ATOM      5  C   UNL     1       2.642   5.724  19.114  0.00  0.00    +0.000 A 
ATOM      6  C   UNL     1       2.717   6.664  18.068  0.00  0.00    +0.000 A 
ATOM      7  C   UNL     1       2.240   7.976  18.230  0.00  0.00    +0.000 A 
BRANCH   2   8
ATOM      8  O   UNL     1       1.177   9.653  19.491  0.00  0.00    +0.000 OA
BRANCH   8   9
ATOM      9  C   UNL     1       0.517  10.075  18.294  0.00  0.00    +0.000 C 
BRANCH   9  10
ATOM     10  C   UNL     1      -0.968  10.288  18.545  0.00  0.00    +0.000 C 
BRANCH  10  12
ATOM     11  C   UNL     1      -2.699  11.168  16.940  0.00  0.00    +0.000 C 
ATOM     12  C   UNL     1      -1.745  10.030  17.254  0.00  0.00    +0.000 C 
ENDBRANCH  10  12
ENDBRANCH   9  10
ENDBRANCH   8   9
ENDBRANCH   2   8
ENDBRANCH   1   5
BRANCH   1  13
ATOM     13  O   UNL     1       3.075   3.578  20.231  0.00  0.00    +0.000 OA
ATOM     14  H   UNL     1       2.703   4.159  20.908  0.00  0.00    +0.000 HD
ENDBRANCH   1  13
BRANCH   1  15
ATOM     15  C   UNL     1       2.075   3.491  18.025  0.00  0.00    +0.000 C 
ATOM     16  C   UNL     1       0.994   2.670  18.717  0.00  0.00    +0.000 C 
ENDBRANCH   1  15
BRANCH   1  17
ATOM     17  C   UNL     1       4.484   4.068  18.391  0.00  0.00    +0.000 C 
BRANCH  17  18
ATOM     18  C   UNL     1       5.527   5.012  19.017  0.00  0.00    +0.000 C 
BRANCH  18  19
ATOM     19  N   UNL     1       6.915   4.712  18.605  0.00  0.00    +0.000 NA
ATOM     20  C   UNL     1       7.861   5.820  18.871  0.00  0.00    +0.000 C 
ATOM     21  C   UNL     1       7.616   7.060  17.997  0.00  0.00    +0.000 C 
ATOM     22  O   UNL     1       7.679   6.731  16.603  0.00  0.00    +0.000 OA
ATOM     23  C   UNL     1       6.747   5.692  16.275  0.00  0.00    +0.000 C 
ATOM     24  C   UNL     1       6.969   4.439  17.146  0.00  0.00    +0.000 C 
ENDBRANCH  18  19
ENDBRANCH  17  18
ENDBRANCH   1  17
TORSDOF 10
ENDMDL
MODEL 5
REMARK VINA RESULT:      -6.9      3.981      7.646
REMARK  Name = 
REMARK  12 active torsions:
REMARK  status: ('A' for Active; 'I' for Inactive)
REMARK    1  A    between atoms: C_1  and  C_2
REMARK    2  A    between atoms: C_2  and  C_3
REMARK    3  A    between atoms: C_3  and  C_4
REMARK    4  A    between atoms: C_4  and  O_5
REMARK    5  A    between atoms: O_5  and  C_6
REMARK    6  A    between atoms: C_9  and  C_10
REMARK    7  A    between atoms: C_10  and  O_11
REMARK    8  A    between atoms: C_10  and  C_12
REMARK    9  A    between atoms: C_10  and  C_14
REMARK   10  A    between atoms: C_12  and  C_13
REMARK   11  A    between atoms: C_14  and  C_15
REMARK   12  A    between atoms: C_15  and  N_16
REMARK                            x       y       z     vdW  Elec       q    Type
REMARK                         _______ _______ _______ _____ _____    ______ ____
ROOT
ATOM      1  C   UNL     1       2.753   5.769  19.202  0.00  0.00    +0.000 C 
ENDROOT
BRANCH   1   5
ATOM      2  C   UNL     1       1.177   9.842  19.050  0.00  0.00    +0.000 A 
ATOM      3  C   UNL     1       1.141   9.089  20.220  0.00  0.00    +0.000 A 
ATOM      4  C   UNL     1       1.700   7.815  20.266  0.00  0.00    +0.000 A 
ATOM      5  C   UNL     1       2.276   7.224  19.132  0.00  0.00    +0.000 A 
ATOM      6  C   UNL     1       2.359   8.017  17.971  0.00  0.00    +0.000 A 
ATOM      7  C   UNL     1       1.817   9.313  17.932  0.00  0.00    +0.000 A 
BRANCH   2   8
ATOM      8  O   UNL     1       0.620  11.089  18.906  0.00  0.00    +0.000 OA
BRANCH   8   9
ATOM      9  C   UNL     1      -0.424  11.378  19.838  0.00  0.00    +0.000 C 
BRANCH   9  10
ATOM     10  C   UNL     1      -1.787  11.114  19.218  0.00  0.00    +0.000 C 
BRANCH  10  12
ATOM     11  C   UNL     1      -2.025  10.063  16.941  0.00  0.00    +0.000 C 
ATOM     12  C   UNL     1      -1.712  11.335  17.707  0.00  0.00    +0.000 C 
ENDBRANCH  10  12
ENDBRANCH   9  10
ENDBRANCH   8   9
ENDBRANCH   2   8
ENDBRANCH   1   5
BRANCH   1  13
ATOM     13  O   UNL     1       4.047   5.663  19.812  0.00  0.00    +0.000 OA
ATOM     14  H   UNL     1       4.056   4.903  20.409  0.00  0.00    +0.000 HD
ENDBRANCH   1  13
BRANCH   1  15
ATOM     15  C   UNL     1       1.760   4.886  20.005  0.00  0.00    +0.000 C 
ATOM     16  C   UNL     1       2.325   4.229  21.258  0.00  0.00    +0.000 C 
ENDBRANCH   1  15
BRANCH   1  17
ATOM     17  C   UNL     1       2.925   5.111  17.800  0.00  0.00    +0.000 C 
BRANCH  17  18
ATOM     18  C   UNL     1       4.299   4.446  17.594  0.00  0.00    +0.000 C 
BRANCH  18  19
ATOM     19  N   UNL     1       4.922   4.772  16.293  0.00  0.00    +0.000 NA
ATOM     20  C   UNL     1       6.229   4.109  16.083  0.00  0.00    +0.000 C 
ATOM     21  C   UNL     1       7.337   4.627  17.014  0.00  0.00    +0.000 C 
ATOM     22  O   UNL     1       7.515   6.042  16.869  0.00  0.00    +0.000 OA
ATOM     23  C   UNL     1       6.287   6.744  17.108  0.00  0.00    +0.000 C 
ATOM     24  C   UNL     1       5.158   6.235  16.190  0.00  0.00    +0.000 C 
ENDBRANCH  18  19
ENDBRANCH  17  18
ENDBRANCH   1  17
TORSDOF 10
ENDMDL
MODEL 6
REMARK VINA RESULT:      -6.8      3.901      7.398
REMARK  Name = 
REMARK  12 active torsions:
REMARK  status: ('A' for Active; 'I' for Inactive)
REMARK    1  A    between atoms: C_1  and  C_2
REMARK    2  A    between atoms: C_2  and  C_3
REMARK    3  A    between atoms: C_3  and  C_4
REMARK    4  A    between atoms: C_4  and  O_5
REMARK    5  A    between atoms: O_5  and  C_6
REMARK    6  A    between atoms: C_9  and  C_10
REMARK    7  A    between atoms: C_10  and  O_11
REMARK    8  A    between atoms: C_10  and  C_12
REMARK    9  A    between atoms: C_10  and  C_14
REMARK   10  A    between atoms: C_12  and  C_13
REMARK   11  A    between atoms: C_14  and  C_15
REMARK   12  A    between atoms: C_15  and  N_16
REMARK                            x       y       z     vdW  Elec       q    Type
REMARK                         _______ _______ _______ _____ _____    ______ ____
ROOT
ATOM      1  C   UNL     1       2.995   5.669  19.539  0.00  0.00    +0.000 C 
ENDROOT
BRANCH   1   5
ATOM      2  C   UNL     1       1.040   9.541  19.006  0.00  0.00    +0.000 A 
ATOM      3  C   UNL     1       1.058   8.896  20.239  0.00  0.00    +0.000 A 
ATOM      4  C   UNL     1       1.736   7.691  20.405  0.00  0.00    +0.000 A 
ATOM      5  C   UNL     1       2.383   7.059  19.333  0.00  0.00    +0.000 A 
ATOM      6  C   UNL     1       2.409   7.749  18.106  0.00  0.00    +0.000 A 
ATOM      7  C   UNL     1       1.746   8.978  17.945  0.00  0.00    +0.000 A 
BRANCH   2   8
ATOM      8  O   UNL     1       0.370  10.710  18.744  0.00  0.00    +0.000 OA
BRANCH   8   9
ATOM      9  C   UNL     1      -1.052  10.573  18.693  0.00  0.00    +0.000 C 
BRANCH   9  10
ATOM     10  C   UNL     1      -1.486   9.964  17.369  0.00  0.00    +0.000 C 
BRANCH  10  12
ATOM     11  C   UNL     1      -3.214  10.158  15.546  0.00  0.00    +0.000 C 
ATOM     12  C   UNL     1      -2.851  10.527  16.972  0.00  0.00    +0.000 C 
ENDBRANCH  10  12
ENDBRANCH   9  10
ENDBRANCH   8   9
ENDBRANCH   2   8
ENDBRANCH   1   5
BRANCH   1  13
ATOM     13  O   UNL     1       4.360   5.749  19.977  0.00  0.00    +0.000 OA
ATOM     14  H   UNL     1       4.531   5.041  20.613  0.00  0.00    +0.000 HD
ENDBRANCH   1  13
BRANCH   1  15
ATOM     15  C   UNL     1       2.194   4.846  20.582  0.00  0.00    +0.000 C 
ATOM     16  C   UNL     1       1.038   4.022  20.029  0.00  0.00    +0.000 C 
ENDBRANCH   1  15
BRANCH   1  17
ATOM     17  C   UNL     1       3.053   4.824  18.231  0.00  0.00    +0.000 C 
BRANCH  17  18
ATOM     18  C   UNL     1       4.185   5.243  17.274  0.00  0.00    +0.000 C 
BRANCH  18  19
ATOM     19  N   UNL     1       5.322   4.298  17.257  0.00  0.00    +0.000 NA
ATOM     20  C   UNL     1       6.575   4.875  17.796  0.00  0.00    +0.000 C 
ATOM     21  C   UNL     1       7.172   5.981  16.912  0.00  0.00    +0.000 C 
ATOM     22  O   UNL     1       7.424   5.503  15.584  0.00  0.00    +0.000 OA
ATOM     23  C   UNL     1       6.231   4.973  14.991  0.00  0.00    +0.000 C 
ATOM     24  C   UNL     1       5.610   3.866  15.865  0.00  0.00    +0.000 C 
ENDBRANCH  18  19
ENDBRANCH  17  18
ENDBRANCH   1  17
TORSDOF 10
ENDMDL
MODEL 7
REMARK VINA RESULT:      -6.8      1.032      1.542
REMARK  Name = 
REMARK  12 active torsions:
REMARK  status: ('A' for Active; 'I' for Inactive)
REMARK    1  A    between atoms: C_1  and  C_2
REMARK    2  A    between atoms: C_2  and  C_3
REMARK    3  A    between atoms: C_3  and  C_4
REMARK    4  A    between atoms: C_4  and  O_5
REMARK    5  A    between atoms: O_5  and  C_6
REMARK    6  A    between atoms: C_9  and  C_10
REMARK    7  A    between atoms: C_10  and  O_11
REMARK    8  A    between atoms: C_10  and  C_12
REMARK    9  A    between atoms: C_10  and  C_14
REMARK   10  A    between atoms: C_12  and  C_13
REMARK   11  A    between atoms: C_14  and  C_15
REMARK   12  A    between atoms: C_15  and  N_16
REMARK                            x       y       z     vdW  Elec       q    Type
REMARK                         _______ _______ _______ _____ _____    ______ ____
ROOT
ATOM      1  C   UNL     1       6.058   5.035  17.951  0.00  0.00    +0.000 C 
ENDROOT
BRANCH   1   5
ATOM      2  C   UNL     1       6.162   4.170  13.669  0.00  0.00    +0.000 A 
ATOM      3  C   UNL     1       5.080   3.801  14.462  0.00  0.00    +0.000 A 
ATOM      4  C   UNL     1       5.037   4.137  15.813  0.00  0.00    +0.000 A 
ATOM      5  C   UNL     1       6.097   4.813  16.436  0.00  0.00    +0.000 A 
ATOM      6  C   UNL     1       7.158   5.233  15.611  0.00  0.00    +0.000 A 
ATOM      7  C   UNL     1       7.190   4.917  14.242  0.00  0.00    +0.000 A 
BRANCH   2   8
ATOM      8  O   UNL     1       6.304   3.852  12.341  0.00  0.00    +0.000 OA
BRANCH   8   9
ATOM      9  C   UNL     1       5.992   2.492  12.027  0.00  0.00    +0.000 C 
BRANCH   9  10
ATOM     10  C   UNL     1       4.727   2.410  11.188  0.00  0.00    +0.000 C 
BRANCH  10  12
ATOM     11  C   UNL     1       3.097   3.834   9.898  0.00  0.00    +0.000 C 
ATOM     12  C   UNL     1       4.162   3.815  10.978  0.00  0.00    +0.000 C 
ENDBRANCH  10  12
ENDBRANCH   9  10
ENDBRANCH   8   9
ENDBRANCH   2   8
ENDBRANCH   1   5
BRANCH   1  13
ATOM     13  O   UNL     1       6.348   3.829  18.673  0.00  0.00    +0.000 OA
ATOM     14  H   UNL     1       6.552   4.051  19.592  0.00  0.00    +0.000 HD
ENDBRANCH   1  13
BRANCH   1  15
ATOM     15  C   UNL     1       7.075   6.123  18.390  0.00  0.00    +0.000 C 
ATOM     16  C   UNL     1       7.980   5.750  19.558  0.00  0.00    +0.000 C 
ENDBRANCH   1  15
BRANCH   1  17
ATOM     17  C   UNL     1       4.658   5.477  18.471  0.00  0.00    +0.000 C 
BRANCH  17  18
ATOM     18  C   UNL     1       4.200   4.721  19.733  0.00  0.00    +0.000 C 
BRANCH  18  19
ATOM     19  N   UNL     1       3.675   3.367  19.451  0.00  0.00    +0.000 NA
ATOM     20  C   UNL     1       2.526   3.365  18.518  0.00  0.00    +0.000 C 
ATOM     21  C   UNL     1       1.255   3.995  19.108  0.00  0.00    +0.000 C 
ATOM     22  O   UNL     1       0.862   3.333  20.317  0.00  0.00    +0.000 OA
ATOM     23  C   UNL     1       1.923   3.346  21.281  0.00  0.00    +0.000 C 
ATOM     24  C   UNL     1       3.212   2.725  20.708  0.00  0.00    +0.000 C 
ENDBRANCH  18  19
ENDBRANCH  17  18
ENDBRANCH   1  17
TORSDOF 10
ENDMDL
MODEL 8
REMARK VINA RESULT:      -6.8      3.893      7.607
REMARK  Name = 
REMARK  12 active torsions:
REMARK  status: ('A' for Active; 'I' for Inactive)
REMARK    1  A    between atoms: C_1  and  C_2
REMARK    2  A    between atoms: C_2  and  C_3
REMARK    3  A    between atoms: C_3  and  C_4
REMARK    4  A    between atoms: C_4  and  O_5
REMARK    5  A    between atoms: O_5  and  C_6
REMARK    6  A    between atoms: C_9  and  C_10
REMARK    7  A    between atoms: C_10  and  O_11
REMARK    8  A    between atoms: C_10  and  C_12
REMARK    9  A    between atoms: C_10  and  C_14
REMARK   10  A    between atoms: C_12  and  C_13
REMARK   11  A    between atoms: C_14  and  C_15
REMARK   12  A    between atoms: C_15  and  N_16
REMARK                            x       y       z     vdW  Elec       q    Type
REMARK                         _______ _______ _______ _____ _____    ______ ____
ROOT
ATOM      1  C   UNL     1       2.704   5.503  19.364  0.00  0.00    +0.000 C 
ENDROOT
BRANCH   1   5
ATOM      2  C   UNL     1       1.441   9.663  18.928  0.00  0.00    +0.000 A 
ATOM      3  C   UNL     1       1.957   8.941  17.857  0.00  0.00    +0.000 A 
ATOM      4  C   UNL     1       2.300   7.599  17.998  0.00  0.00    +0.000 A 
ATOM      5  C   UNL     1       2.185   6.938  19.230  0.00  0.00    +0.000 A 
ATOM      6  C   UNL     1       1.606   7.661  20.291  0.00  0.00    +0.000 A 
ATOM      7  C   UNL     1       1.236   9.008  20.141  0.00  0.00    +0.000 A 
BRANCH   2   8
ATOM      8  O   UNL     1       1.110  10.995  18.888  0.00  0.00    +0.000 OA
BRANCH   8   9
ATOM      9  C   UNL     1      -0.280  11.261  19.088  0.00  0.00    +0.000 C 
BRANCH   9  10
ATOM     10  C   UNL     1      -1.121  10.555  18.036  0.00  0.00    +0.000 C 
BRANCH  10  12
ATOM     11  C   UNL     1      -3.500   9.929  17.497  0.00  0.00    +0.000 C 
ATOM     12  C   UNL     1      -2.598  10.878  18.262  0.00  0.00    +0.000 C 
ENDBRANCH  10  12
ENDBRANCH   9  10
ENDBRANCH   8   9
ENDBRANCH   2   8
ENDBRANCH   1   5
BRANCH   1  13
ATOM     13  O   UNL     1       3.937   5.449  20.097  0.00  0.00    +0.000 OA
ATOM     14  H   UNL     1       3.940   6.148  20.765  0.00  0.00    +0.000 HD
ENDBRANCH   1  13
BRANCH   1  15
ATOM     15  C   UNL     1       1.671   4.591  20.078  0.00  0.00    +0.000 C 
ATOM     16  C   UNL     1       2.158   3.911  21.352  0.00  0.00    +0.000 C 
ENDBRANCH   1  15
BRANCH   1  17
ATOM     17  C   UNL     1       3.035   4.839  17.994  0.00  0.00    +0.000 C 
BRANCH  17  18
ATOM     18  C   UNL     1       4.529   4.513  17.809  0.00  0.00    +0.000 C 
BRANCH  18  19
ATOM     19  N   UNL     1       5.316   5.644  17.271  0.00  0.00    +0.000 NA
ATOM     20  C   UNL     1       5.642   5.503  15.833  0.00  0.00    +0.000 C 
ATOM     21  C   UNL     1       6.629   4.363  15.536  0.00  0.00    +0.000 C 
ATOM     22  O   UNL     1       7.851   4.533  16.266  0.00  0.00    +0.000 OA
ATOM     23  C   UNL     1       7.602   4.628  17.675  0.00  0.00    +0.000 C 
ATOM     24  C   UNL     1       6.607   5.761  17.997  0.00  0.00    +0.000 C 
ENDBRANCH  18  19
ENDBRANCH  17  18
ENDBRANCH   1  17
TORSDOF 10
ENDMDL
MODEL 9
REMARK VINA RESULT:      -6.7      4.184      7.906
REMARK  Name = 
REMARK  12 active torsions:
REMARK  status: ('A' for Active; 'I' for Inactive)
REMARK    1  A    between atoms: C_1  and  C_2
REMARK    2  A    between atoms: C_2  and  C_3
REMARK    3  A    between atoms: C_3  and  C_4
REMARK    4  A    between atoms: C_4  and  O_5
REMARK    5  A    between atoms: O_5  and  C_6
REMARK    6  A    between atoms: C_9  and  C_10
REMARK    7  A    between atoms: C_10  and  O_11
REMARK    8  A    between atoms: C_10  and  C_12
REMARK    9  A    between atoms: C_10  and  C_14
REMARK   10  A    between atoms: C_12  and  C_13
REMARK   11  A    between atoms: C_14  and  C_15
REMARK   12  A    between atoms: C_15  and  N_16
REMARK                            x       y       z     vdW  Elec       q    Type
REMARK                         _______ _______ _______ _____ _____    ______ ____
ROOT
ATOM      1  C   UNL     1       3.014   6.390  18.855  0.00  0.00    +0.000 C 
ENDROOT
BRANCH   1   5
ATOM      2  C   UNL     1       0.707  10.074  19.307  0.00  0.00    +0.000 A 
ATOM      3  C   UNL     1       1.181   9.657  18.067  0.00  0.00    +0.000 A 
ATOM      4  C   UNL     1       1.863   8.451  17.932  0.00  0.00    +0.000 A 
ATOM      5  C   UNL     1       2.142   7.636  19.039  0.00  0.00    +0.000 A 
ATOM      6  C   UNL     1       1.607   8.039  20.279  0.00  0.00    +0.000 A 
ATOM      7  C   UNL     1       0.895   9.244  20.410  0.00  0.00    +0.000 A 
BRANCH   2   8
ATOM      8  O   UNL     1       0.057  11.261  19.538  0.00  0.00    +0.000 OA
BRANCH   8   9
ATOM      9  C   UNL     1      -1.353  11.213  19.304  0.00  0.00    +0.000 C 
BRANCH   9  10
ATOM     10  C   UNL     1      -1.710  11.945  18.021  0.00  0.00    +0.000 C 
BRANCH  10  12
ATOM     11  C   UNL     1      -2.886   9.752  17.627  0.00  0.00    +0.000 C 
ATOM     12  C   UNL     1      -2.197  10.938  16.978  0.00  0.00    +0.000 C 
ENDBRANCH  10  12
ENDBRANCH   9  10
ENDBRANCH   8   9
ENDBRANCH   2   8
ENDBRANCH   1   5
BRANCH   1  13
ATOM     13  O   UNL     1       3.349   5.785  20.113  0.00  0.00    +0.000 OA
ATOM     14  H   UNL     1       3.725   4.909  19.954  0.00  0.00    +0.000 HD
ENDBRANCH   1  13
BRANCH   1  15
ATOM     15  C   UNL     1       2.303   5.326  17.976  0.00  0.00    +0.000 C 
ATOM     16  C   UNL     1       1.675   4.159  18.728  0.00  0.00    +0.000 C 
ENDBRANCH   1  15
BRANCH   1  17
ATOM     17  C   UNL     1       4.388   6.695  18.189  0.00  0.00    +0.000 C 
BRANCH  17  18
ATOM     18  C   UNL     1       4.613   5.946  16.862  0.00  0.00    +0.000 C 
BRANCH  18  19
ATOM     19  N   UNL     1       5.837   6.368  16.148  0.00  0.00    +0.000 NA
ATOM     20  C   UNL     1       6.281   5.402  15.118  0.00  0.00    +0.000 C 
ATOM     21  C   UNL     1       6.791   4.074  15.700  0.00  0.00    +0.000 C 
ATOM     22  O   UNL     1       7.872   4.293  16.616  0.00  0.00    +0.000 OA
ATOM     23  C   UNL     1       7.485   5.188  17.667  0.00  0.00    +0.000 C 
ATOM     24  C   UNL     1       6.962   6.525  17.106  0.00  0.00    +0.000 C 
ENDBRANCH  18  19
ENDBRANCH  17  18
ENDBRANCH   1  17
TORSDOF 10
ENDMDL
