MODEL 1
REMARK VINA RESULT:      -6.7      0.000      0.000
REMARK  Name = 
REMARK  3 active torsions:
REMARK  status: ('A' for Active; 'I' for Inactive)
REMARK    1  A    between atoms: C_1  and  C_2
REMARK    2  A    between atoms: N_4  and  C_5
REMARK    3  A    between atoms: C_6  and  C_7
REMARK                            x       y       z     vdW  Elec       q    Type
REMARK                         _______ _______ _______ _____ _____    ______ ____
ROOT
ATOM      1  C   UNL     1       4.559   5.797  17.024  0.00  0.00    +0.000 C 
ATOM      2  O   UNL     1       4.009   6.883  17.147  0.00  0.00    +0.000 OA
ATOM      3  N   UNL     1       4.119   4.705  17.754  0.00  0.00    +0.000 N 
ATOM      4  C   UNL     1       4.642   3.373  17.731  0.00  0.00    +0.000 C 
ATOM      5  C   UNL     1       3.535   2.479  18.216  0.00  0.00    +0.000 C 
ATOM      6  C   UNL     1       2.695   3.381  19.122  0.00  0.00    +0.000 C 
ATOM      7  C   UNL     1       1.192   3.255  18.797  0.00  0.00    +0.000 C 
ATOM      8  C   UNL     1       0.524   2.766  20.073  0.00  0.00    +0.000 C 
ATOM      9  C   UNL     1       1.456   3.191  21.193  0.00  0.00    +0.000 C 
ATOM     10  C   UNL     1       2.837   2.974  20.601  0.00  0.00    +0.000 C 
ATOM     11  C   UNL     1       3.196   4.827  18.864  0.00  0.00    +0.000 C 
ENDROOT
BRANCH   1  17
ATOM     12  C   UNL     1       7.627   4.660  13.130  0.00  0.00    +0.000 C 
ATOM     13  C   UNL     1       7.071   5.139  14.420  0.00  0.00    +0.000 A 
ATOM     14  N   UNL     1       7.816   5.770  15.331  0.00  0.00    +0.000 NA
ATOM     15  N   UNL     1       6.935   6.038  16.324  0.00  0.00    +0.000 N 
ATOM     16  C   UNL     1       7.400   6.822  17.454  0.00  0.00    +0.000 C 
ATOM     17  C   UNL     1       5.641   5.611  16.072  0.00  0.00    +0.000 A 
ATOM     18  C   UNL     1       5.741   4.984  14.841  0.00  0.00    +0.000 A 
ATOM     19 CL   UNL     1       4.623   4.127  13.875  0.00  0.00    +0.000 Cl
ENDBRANCH   1  17
TORSDOF 1
ENDMDL
MODEL 2
REMARK VINA RESULT:      -6.2      1.455      1.653
REMARK  Name = 
REMARK  3 active torsions:
REMARK  status: ('A' for Active; 'I' for Inactive)
REMARK    1  A    between atoms: C_1  and  C_2
REMARK    2  A    between atoms: N_4  and  C_5
REMARK    3  A    between atoms: C_6  and  C_7
REMARK                            x       y       z     vdW  Elec       q    Type
REMARK                         _______ _______ _______ _____ _____    ______ ____
ROOT
ATOM      1  C   UNL     1       5.922   4.445  17.977  0.00  0.00    +0.000 C 
ATOM      2  O   UNL     1       6.629   4.352  18.970  0.00  0.00    +0.000 OA
ATOM      3  N   UNL     1       4.559   4.210  18.066  0.00  0.00    +0.000 N 
ATOM      4  C   UNL     1       3.592   4.275  17.013  0.00  0.00    +0.000 C 
ATOM      5  C   UNL     1       2.263   4.500  17.676  0.00  0.00    +0.000 C 
ATOM      6  C   UNL     1       2.427   3.879  19.064  0.00  0.00    +0.000 C 
ATOM      7  C   UNL     1       1.922   4.832  20.167  0.00  0.00    +0.000 C 
ATOM      8  C   UNL     1       0.806   4.092  20.888  0.00  0.00    +0.000 C 
ATOM      9  C   UNL     1       1.086   2.621  20.638  0.00  0.00    +0.000 C 
ATOM     10  C   UNL     1       1.585   2.596  19.205  0.00  0.00    +0.000 C 
ATOM     11  C   UNL     1       3.945   3.601  19.228  0.00  0.00    +0.000 C 
ENDROOT
BRANCH   1  17
ATOM     12  C   UNL     1       7.418   5.029  13.152  0.00  0.00    +0.000 C 
ATOM     13  C   UNL     1       7.199   5.191  14.610  0.00  0.00    +0.000 A 
ATOM     14  N   UNL     1       7.704   6.216  15.301  0.00  0.00    +0.000 NA
ATOM     15  N   UNL     1       7.265   5.990  16.562  0.00  0.00    +0.000 N 
ATOM     16  C   UNL     1       7.555   6.990  17.574  0.00  0.00    +0.000 C 
ATOM     17  C   UNL     1       6.477   4.859  16.699  0.00  0.00    +0.000 A 
ATOM     18  C   UNL     1       6.470   4.311  15.426  0.00  0.00    +0.000 A 
ATOM     19 CL   UNL     1       5.804   2.880  14.776  0.00  0.00    +0.000 Cl
ENDBRANCH   1  17
TORSDOF 1
ENDMDL
MODEL 3
REMARK VINA RESULT:      -6.0      2.530      3.358
REMARK  Name = 
REMARK  3 active torsions:
REMARK  status: ('A' for Active; 'I' for Inactive)
REMARK    1  A    between atoms: C_1  and  C_2
REMARK    2  A    between atoms: N_4  and  C_5
REMARK    3  A    between atoms: C_6  and  C_7
REMARK                            x       y       z     vdW  Elec       q    Type
REMARK                         _______ _______ _______ _____ _____    ______ ____
ROOT
ATOM      1  C   UNL     1       5.477   4.685  17.953  0.00  0.00    +0.000 C 
ATOM      2  O   UNL     1       5.864   3.622  17.488  0.00  0.00    +0.000 OA
ATOM      3  N   UNL     1       4.311   4.738  18.698  0.00  0.00    +0.000 N 
ATOM      4  C   UNL     1       3.719   5.888  19.312  0.00  0.00    +0.000 C 
ATOM      5  C   UNL     1       2.844   5.369  20.419  0.00  0.00    +0.000 C 
ATOM      6  C   UNL     1       2.447   3.966  19.956  0.00  0.00    +0.000 C 
ATOM      7  C   UNL     1       2.638   2.931  21.084  0.00  0.00    +0.000 C 
ATOM      8  C   UNL     1       1.266   2.325  21.338  0.00  0.00    +0.000 C 
ATOM      9  C   UNL     1       0.499   2.532  20.045  0.00  0.00    +0.000 C 
ATOM     10  C   UNL     1       0.953   3.905  19.582  0.00  0.00    +0.000 C 
ATOM     11  C   UNL     1       3.365   3.641  18.748  0.00  0.00    +0.000 C 
ENDROOT
BRANCH   1  17
ATOM     12  C   UNL     1       8.735   8.583  18.196  0.00  0.00    +0.000 C 
ATOM     13  C   UNL     1       7.628   7.666  17.829  0.00  0.00    +0.000 A 
ATOM     14  N   UNL     1       6.786   7.924  16.826  0.00  0.00    +0.000 NA
ATOM     15  N   UNL     1       5.960   6.851  16.826  0.00  0.00    +0.000 N 
ATOM     16  C   UNL     1       4.964   6.758  15.774  0.00  0.00    +0.000 C 
ATOM     17  C   UNL     1       6.257   5.901  17.789  0.00  0.00    +0.000 A 
ATOM     18  C   UNL     1       7.325   6.457  18.475  0.00  0.00    +0.000 A 
ATOM     19 CL   UNL     1       8.216   5.962  19.845  0.00  0.00    +0.000 Cl
ENDBRANCH   1  17
TORSDOF 1
ENDMDL
MODEL 4
REMARK VINA RESULT:      -6.0      1.631      2.159
REMARK  Name = 
REMARK  3 active torsions:
REMARK  status: ('A' for Active; 'I' for Inactive)
REMARK    1  A    between atoms: C_1  and  C_2
REMARK    2  A    between atoms: N_4  and  C_5
REMARK    3  A    between atoms: C_6  and  C_7
REMARK                            x       y       z     vdW  Elec       q    Type
REMARK                         _______ _______ _______ _____ _____    ______ ____
ROOT
ATOM      1  C   UNL     1       5.124   3.219  16.320  0.00  0.00    +0.000 C 
ATOM      2  O   UNL     1       5.147   1.997  16.366  0.00  0.00    +0.000 OA
ATOM      3  N   UNL     1       4.287   3.934  17.162  0.00  0.00    +0.000 N 
ATOM      4  C   UNL     1       4.137   5.355  17.241  0.00  0.00    +0.000 C 
ATOM      5  C   UNL     1       3.587   5.643  18.610  0.00  0.00    +0.000 C 
ATOM      6  C   UNL     1       2.821   4.372  18.981  0.00  0.00    +0.000 C 
ATOM      7  C   UNL     1       3.178   3.900  20.406  0.00  0.00    +0.000 C 
ATOM      8  C   UNL     1       1.877   3.910  21.193  0.00  0.00    +0.000 C 
ATOM      9  C   UNL     1       0.784   3.780  20.147  0.00  0.00    +0.000 C 
ATOM     10  C   UNL     1       1.301   4.621  18.994  0.00  0.00    +0.000 C 
ATOM     11  C   UNL     1       3.230   3.307  17.929  0.00  0.00    +0.000 C 
ENDROOT
BRANCH   1  17
ATOM     12  C   UNL     1       7.607   5.419  12.465  0.00  0.00    +0.000 C 
ATOM     13  C   UNL     1       7.180   4.940  13.803  0.00  0.00    +0.000 A 
ATOM     14  N   UNL     1       7.844   5.249  14.920  0.00  0.00    +0.000 NA
ATOM     15  N   UNL     1       7.127   4.634  15.890  0.00  0.00    +0.000 N 
ATOM     16  C   UNL     1       7.522   4.850  17.270  0.00  0.00    +0.000 C 
ATOM     17  C   UNL     1       6.011   3.951  15.432  0.00  0.00    +0.000 A 
ATOM     18  C   UNL     1       6.072   4.117  14.057  0.00  0.00    +0.000 A 
ATOM     19 CL   UNL     1       5.122   3.523  12.768  0.00  0.00    +0.000 Cl
ENDBRANCH   1  17
TORSDOF 1
ENDMDL
MODEL 5
REMARK VINA RESULT:      -5.8      3.869      5.106
REMARK  Name = 
REMARK  3 active torsions:
REMARK  status: ('A' for Active; 'I' for Inactive)
REMARK    1  A    between atoms: C_1  and  C_2
REMARK    2  A    between atoms: N_4  and  C_5
REMARK    3  A    between atoms: C_6  and  C_7
REMARK                            x       y       z     vdW  Elec       q    Type
REMARK                         _______ _______ _______ _____ _____    ______ ____
ROOT
ATOM      1  C   UNL     1       2.966   5.100  20.020  0.00  0.00    +0.000 C 
ATOM      2  O   UNL     1       2.925   4.342  20.978  0.00  0.00    +0.000 OA
ATOM      3  N   UNL     1       2.308   6.318  20.064  0.00  0.00    +0.000 N 
ATOM      4  C   UNL     1       2.254   7.318  19.041  0.00  0.00    +0.000 C 
ATOM      5  C   UNL     1       1.935   8.613  19.736  0.00  0.00    +0.000 C 
ATOM      6  C   UNL     1       1.161   8.186  20.985  0.00  0.00    +0.000 C 
ATOM      7  C   UNL     1       1.700   8.893  22.245  0.00  0.00    +0.000 C 
ATOM      8  C   UNL     1       0.535   9.686  22.816  0.00  0.00    +0.000 C 
ATOM      9  C   UNL     1      -0.708   8.986  22.298  0.00  0.00    +0.000 C 
ATOM     10  C   UNL     1      -0.324   8.587  20.885  0.00  0.00    +0.000 C 
ATOM     11  C   UNL     1       1.344   6.649  21.094  0.00  0.00    +0.000 C 
ENDROOT
BRANCH   1  17
ATOM     12  C   UNL     1       6.503   4.328  16.448  0.00  0.00    +0.000 C 
ATOM     13  C   UNL     1       5.229   4.414  17.202  0.00  0.00    +0.000 A 
ATOM     14  N   UNL     1       4.062   4.021  16.686  0.00  0.00    +0.000 NA
ATOM     15  N   UNL     1       3.181   4.255  17.688  0.00  0.00    +0.000 N 
ATOM     16  C   UNL     1       1.804   3.840  17.496  0.00  0.00    +0.000 C 
ATOM     17  C   UNL     1       3.751   4.773  18.841  0.00  0.00    +0.000 A 
ATOM     18  C   UNL     1       5.088   4.917  18.506  0.00  0.00    +0.000 A 
ATOM     19 CL   UNL     1       6.435   5.560  19.335  0.00  0.00    +0.000 Cl
ENDBRANCH   1  17
TORSDOF 1
ENDMDL
MODEL 6
REMARK VINA RESULT:      -5.8      6.315      7.872
REMARK  Name = 
REMARK  3 active torsions:
REMARK  status: ('A' for Active; 'I' for Inactive)
REMARK    1  A    between atoms: C_1  and  C_2
REMARK    2  A    between atoms: N_4  and  C_5
REMARK    3  A    between atoms: C_6  and  C_7
REMARK                            x       y       z     vdW  Elec       q    Type
REMARK                         _______ _______ _______ _____ _____    ______ ____
ROOT
ATOM      1  C   UNL     1       0.544   9.578  19.920  0.00  0.00    +0.000 C 
ATOM      2  O   UNL     1       0.010   9.127  20.923  0.00  0.00    +0.000 OA
ATOM      3  N   UNL     1       1.467   8.819  19.219  0.00  0.00    +0.000 N 
ATOM      4  C   UNL     1       2.180   9.189  18.034  0.00  0.00    +0.000 C 
ATOM      5  C   UNL     1       2.589   7.904  17.371  0.00  0.00    +0.000 C 
ATOM      6  C   UNL     1       2.694   6.905  18.525  0.00  0.00    +0.000 C 
ATOM      7  C   UNL     1       1.965   5.587  18.191  0.00  0.00    +0.000 C 
ATOM      8  C   UNL     1       3.020   4.493  18.255  0.00  0.00    +0.000 C 
ATOM      9  C   UNL     1       4.102   5.043  19.165  0.00  0.00    +0.000 C 
ATOM     10  C   UNL     1       4.160   6.514  18.793  0.00  0.00    +0.000 C 
ATOM     11  C   UNL     1       2.042   7.600  19.750  0.00  0.00    +0.000 C 
ENDROOT
BRANCH   1  17
ATOM     12  C   UNL     1       0.054  14.499  18.733  0.00  0.00    +0.000 C 
ATOM     13  C   UNL     1      -0.122  13.030  18.839  0.00  0.00    +0.000 A 
ATOM     14  N   UNL     1      -1.073  12.372  18.171  0.00  0.00    +0.000 NA
ATOM     15  N   UNL     1      -0.876  11.083  18.536  0.00  0.00    +0.000 N 
ATOM     16  C   UNL     1      -1.693  10.063  17.903  0.00  0.00    +0.000 C 
ATOM     17  C   UNL     1       0.184  10.890  19.407  0.00  0.00    +0.000 A 
ATOM     18  C   UNL     1       0.651  12.173  19.639  0.00  0.00    +0.000 A 
ATOM     19 CL   UNL     1       1.873  12.805  20.651  0.00  0.00    +0.000 Cl
ENDBRANCH   1  17
TORSDOF 1
ENDMDL
MODEL 7
REMARK VINA RESULT:      -5.8      5.224      7.387
REMARK  Name = 
REMARK  3 active torsions:
REMARK  status: ('A' for Active; 'I' for Inactive)
REMARK    1  A    between atoms: C_1  and  C_2
REMARK    2  A    between atoms: N_4  and  C_5
REMARK    3  A    between atoms: C_6  and  C_7
REMARK                            x       y       z     vdW  Elec       q    Type
REMARK                         _______ _______ _______ _____ _____    ______ ____
ROOT
ATOM      1  C   UNL     1       1.798   8.868  18.935  0.00  0.00    +0.000 C 
ATOM      2  O   UNL     1       2.356   9.496  18.046  0.00  0.00    +0.000 OA
ATOM      3  N   UNL     1       2.097   7.531  19.139  0.00  0.00    +0.000 N 
ATOM      4  C   UNL     1       1.543   6.655  20.127  0.00  0.00    +0.000 C 
ATOM      5  C   UNL     1       2.542   5.547  20.312  0.00  0.00    +0.000 C 
ATOM      6  C   UNL     1       3.270   5.470  18.968  0.00  0.00    +0.000 C 
ATOM      7  C   UNL     1       4.799   5.421  19.163  0.00  0.00    +0.000 C 
ATOM      8  C   UNL     1       5.263   4.114  18.538  0.00  0.00    +0.000 C 
ATOM      9  C   UNL     1       4.192   3.763  17.522  0.00  0.00    +0.000 C 
ATOM     10  C   UNL     1       2.904   4.180  18.209  0.00  0.00    +0.000 C 
ATOM     11  C   UNL     1       2.854   6.745  18.187  0.00  0.00    +0.000 C 
ENDROOT
BRANCH   1  17
ATOM     12  C   UNL     1      -0.824  10.854  22.814  0.00  0.00    +0.000 C 
ATOM     13  C   UNL     1      -0.375  10.406  21.474  0.00  0.00    +0.000 A 
ATOM     14  N   UNL     1      -1.083  10.638  20.365  0.00  0.00    +0.000 NA
ATOM     15  N   UNL     1      -0.325  10.085  19.388  0.00  0.00    +0.000 N 
ATOM     16  C   UNL     1      -0.762  10.248  18.013  0.00  0.00    +0.000 C 
ATOM     17  C   UNL     1       0.859   9.519  19.833  0.00  0.00    +0.000 A 
ATOM     18  C   UNL     1       0.805   9.692  21.207  0.00  0.00    +0.000 A 
ATOM     19 CL   UNL     1       1.828   9.206  22.484  0.00  0.00    +0.000 Cl
ENDBRANCH   1  17
TORSDOF 1
ENDMDL
MODEL 8
REMARK VINA RESULT:      -5.7      3.165      6.469
REMARK  Name = 
REMARK  3 active torsions:
REMARK  status: ('A' for Active; 'I' for Inactive)
REMARK    1  A    between atoms: C_1  and  C_2
REMARK    2  A    between atoms: N_4  and  C_5
REMARK    3  A    between atoms: C_6  and  C_7
REMARK                            x       y       z     vdW  Elec       q    Type
REMARK                         _______ _______ _______ _____ _____    ______ ____
ROOT
ATOM      1  C   UNL     1       2.485   5.758  18.146  0.00  0.00    +0.000 C 
ATOM      2  O   UNL     1       1.725   4.898  17.723  0.00  0.00    +0.000 OA
ATOM      3  N   UNL     1       3.782   5.841  17.667  0.00  0.00    +0.000 N 
ATOM      4  C   UNL     1       4.795   6.778  18.049  0.00  0.00    +0.000 C 
ATOM      5  C   UNL     1       5.772   6.829  16.907  0.00  0.00    +0.000 C 
ATOM      6  C   UNL     1       5.652   5.452  16.251  0.00  0.00    +0.000 C 
ATOM      7  C   UNL     1       5.513   5.573  14.720  0.00  0.00    +0.000 C 
ATOM      8  C   UNL     1       6.697   4.825  14.127  0.00  0.00    +0.000 C 
ATOM      9  C   UNL     1       7.111   3.833  15.199  0.00  0.00    +0.000 C 
ATOM     10  C   UNL     1       6.920   4.609  16.489  0.00  0.00    +0.000 C 
ATOM     11  C   UNL     1       4.389   4.795  16.870  0.00  0.00    +0.000 C 
ENDROOT
BRANCH   1  17
ATOM     12  C   UNL     1       0.948   9.869  20.717  0.00  0.00    +0.000 C 
ATOM     13  C   UNL     1       1.370   8.500  20.329  0.00  0.00    +0.000 A 
ATOM     14  N   UNL     1       1.419   7.491  21.202  0.00  0.00    +0.000 NA
ATOM     15  N   UNL     1       1.831   6.444  20.447  0.00  0.00    +0.000 N 
ATOM     16  C   UNL     1       1.898   5.137  21.075  0.00  0.00    +0.000 C 
ATOM     17  C   UNL     1       2.032   6.747  19.110  0.00  0.00    +0.000 A 
ATOM     18  C   UNL     1       1.770   8.106  19.042  0.00  0.00    +0.000 A 
ATOM     19 CL   UNL     1       1.870   9.251  17.779  0.00  0.00    +0.000 Cl
ENDBRANCH   1  17
TORSDOF 1
ENDMDL
MODEL 9
REMARK VINA RESULT:      -5.7      4.670      6.276
REMARK  Name = 
REMARK  3 active torsions:
REMARK  status: ('A' for Active; 'I' for Inactive)
REMARK    1  A    between atoms: C_1  and  C_2
REMARK    2  A    between atoms: N_4  and  C_5
REMARK    3  A    between atoms: C_6  and  C_7
REMARK                            x       y       z     vdW  Elec       q    Type
REMARK                         _______ _______ _______ _____ _____    ______ ____
ROOT
ATOM      1  C   UNL     1       2.527   7.157  18.472  0.00  0.00    +0.000 C 
ATOM      2  O   UNL     1       2.606   7.458  17.290  0.00  0.00    +0.000 OA
ATOM      3  N   UNL     1       1.901   8.007  19.369  0.00  0.00    +0.000 N 
ATOM      4  C   UNL     1       1.719   7.810  20.775  0.00  0.00    +0.000 C 
ATOM      5  C   UNL     1       0.552   8.670  21.172  0.00  0.00    +0.000 C 
ATOM      6  C   UNL     1       0.561   9.809  20.150  0.00  0.00    +0.000 C 
ATOM      7  C   UNL     1      -0.847  10.047  19.567  0.00  0.00    +0.000 C 
ATOM      8  C   UNL     1      -1.210  11.483  19.914  0.00  0.00    +0.000 C 
ATOM      9  C   UNL     1       0.120  12.188  20.110  0.00  0.00    +0.000 C 
ATOM     10  C   UNL     1       0.973  11.142  20.804  0.00  0.00    +0.000 C 
ATOM     11  C   UNL     1       1.552   9.373  19.038  0.00  0.00    +0.000 C 
ENDROOT
BRANCH   1  17
ATOM     12  C   UNL     1       3.322   2.562  20.504  0.00  0.00    +0.000 C 
ATOM     13  C   UNL     1       3.482   3.876  19.834  0.00  0.00    +0.000 A 
ATOM     14  N   UNL     1       4.649   4.287  19.331  0.00  0.00    +0.000 NA
ATOM     15  N   UNL     1       4.356   5.503  18.813  0.00  0.00    +0.000 N 
ATOM     16  C   UNL     1       5.399   6.202  18.084  0.00  0.00    +0.000 C 
ATOM     17  C   UNL     1       3.031   5.881  18.954  0.00  0.00    +0.000 A 
ATOM     18  C   UNL     1       2.468   4.831  19.662  0.00  0.00    +0.000 A 
ATOM     19 CL   UNL     1       0.908   4.562  20.305  0.00  0.00    +0.000 Cl
ENDBRANCH   1  17
TORSDOF 1
ENDMDL
