MODEL 1
REMARK VINA RESULT:      -6.2      0.000      0.000
REMARK  Name = 
REMARK  7 active torsions:
REMARK  status: ('A' for Active; 'I' for Inactive)
REMARK    1  A    between atoms: C_1  and  C_2
REMARK    2  A    between atoms: C_2  and  O_3
REMARK    3  A    between atoms: O_3  and  N_4
REMARK    4  A    between atoms: N_6  and  C_7
REMARK    5  A    between atoms: C_11  and  O_12
REMARK    6  A    between atoms: O_12  and  C_13
REMARK    7  A    between atoms: C_13  and  C_14
REMARK                            x       y       z     vdW  Elec       q    Type
REMARK                         _______ _______ _______ _____ _____    ______ ____
ROOT
ATOM      1  C   UNL     1       5.922   5.427  16.623  0.00  0.00    +0.000 A 
ATOM      2  C   UNL     1       4.969   6.442  16.759  0.00  0.00    +0.000 A 
ATOM      3  C   UNL     1       3.947   6.384  17.723  0.00  0.00    +0.000 A 
ATOM      4 CL   UNL     1       2.926   7.781  17.791  0.00  0.00    +0.000 Cl
ATOM      5  C   UNL     1       3.847   5.284  18.585  0.00  0.00    +0.000 A 
ATOM      6  C   UNL     1       4.823   4.276  18.463  0.00  0.00    +0.000 A 
ATOM      7 CL   UNL     1       4.824   2.899  19.517  0.00  0.00    +0.000 Cl
ATOM      8  C   UNL     1       5.837   4.341  17.496  0.00  0.00    +0.000 A 
ENDROOT
BRANCH   1  11
ATOM      9  N   UNL     1       6.139   4.297  13.851  0.00  0.00    +0.000 NA
ATOM     10  C   UNL     1       7.063   4.954  14.474  0.00  0.00    +0.000 C 
ATOM     11  N   UNL     1       7.002   5.514  15.727  0.00  0.00    +0.000 N 
ATOM     12  H   UNL     1       7.750   6.140  15.993  0.00  0.00    +0.000 HD
BRANCH   9  13
ATOM     13  O   UNL     1       6.591   3.915  12.585  0.00  0.00    +0.000 OA
BRANCH  13  15
ATOM     14  C   UNL     1       4.481   3.360  11.589  0.00  0.00    +0.000 C 
ATOM     15  C   UNL     1       5.778   2.821  12.154  0.00  0.00    +0.000 C 
ENDBRANCH  13  15
ENDBRANCH   9  13
ENDBRANCH   1  11
BRANCH   5  16
ATOM     16  O   UNL     1       2.945   5.103  19.599  0.00  0.00    +0.000 OA
BRANCH  16  17
ATOM     17  C   UNL     1       1.634   4.632  19.282  0.00  0.00    +0.000 C 
BRANCH  17  18
ATOM     18  C   UNL     1       1.348   3.395  20.125  0.00  0.00    +0.000 C 
ATOM     19 CL   UNL     1       2.106   3.533  21.726  0.00  0.00    +0.000 Cl
ENDBRANCH  17  18
ENDBRANCH  16  17
ENDBRANCH   5  16
TORSDOF 6
ENDMDL
MODEL 2
REMARK VINA RESULT:      -6.2      1.313      1.313
REMARK  Name = 
REMARK  7 active torsions:
REMARK  status: ('A' for Active; 'I' for Inactive)
REMARK    1  A    between atoms: C_1  and  C_2
REMARK    2  A    between atoms: C_2  and  O_3
REMARK    3  A    between atoms: O_3  and  N_4
REMARK    4  A    between atoms: N_6  and  C_7
REMARK    5  A    between atoms: C_11  and  O_12
REMARK    6  A    between atoms: O_12  and  C_13
REMARK    7  A    between atoms: C_13  and  C_14
REMARK                            x       y       z     vdW  Elec       q    Type
REMARK                         _______ _______ _______ _____ _____    ______ ____
ROOT
ATOM      1  C   UNL     1       5.064   4.929  16.521  0.00  0.00    +0.000 A 
ATOM      2  C   UNL     1       4.448   6.031  17.124  0.00  0.00    +0.000 A 
ATOM      3  C   UNL     1       3.245   5.916  17.843  0.00  0.00    +0.000 A 
ATOM      4 CL   UNL     1       2.696   7.378  18.590  0.00  0.00    +0.000 Cl
ATOM      5  C   UNL     1       2.612   4.672  17.972  0.00  0.00    +0.000 A 
ATOM      6  C   UNL     1       3.248   3.560  17.385  0.00  0.00    +0.000 A 
ATOM      7 CL   UNL     1       2.578   1.967  17.532  0.00  0.00    +0.000 Cl
ATOM      8  C   UNL     1       4.446   3.686  16.668  0.00  0.00    +0.000 A 
ENDROOT
BRANCH   1  11
ATOM      9  N   UNL     1       5.799   4.028  13.755  0.00  0.00    +0.000 NA
ATOM     10  C   UNL     1       6.605   4.559  14.616  0.00  0.00    +0.000 C 
ATOM     11  N   UNL     1       6.311   5.013  15.879  0.00  0.00    +0.000 N 
ATOM     12  H   UNL     1       7.019   5.557  16.354  0.00  0.00    +0.000 HD
BRANCH   9  13
ATOM     13  O   UNL     1       6.486   3.724  12.576  0.00  0.00    +0.000 OA
BRANCH  13  15
ATOM     14  C   UNL     1       4.366   3.262  11.557  0.00  0.00    +0.000 C 
ATOM     15  C   UNL     1       5.737   2.716  11.894  0.00  0.00    +0.000 C 
ENDBRANCH  13  15
ENDBRANCH   9  13
ENDBRANCH   1  11
BRANCH   5  16
ATOM     16  O   UNL     1       1.471   4.390  18.674  0.00  0.00    +0.000 OA
BRANCH  16  17
ATOM     17  C   UNL     1       1.451   4.625  20.083  0.00  0.00    +0.000 C 
BRANCH  17  18
ATOM     18  C   UNL     1       2.431   3.666  20.747  0.00  0.00    +0.000 C 
ATOM     19 CL   UNL     1       1.586   2.568  21.860  0.00  0.00    +0.000 Cl
ENDBRANCH  17  18
ENDBRANCH  16  17
ENDBRANCH   5  16
TORSDOF 6
ENDMDL
MODEL 3
REMARK VINA RESULT:      -6.2      1.069      2.370
REMARK  Name = 
REMARK  7 active torsions:
REMARK  status: ('A' for Active; 'I' for Inactive)
REMARK    1  A    between atoms: C_1  and  C_2
REMARK    2  A    between atoms: C_2  and  O_3
REMARK    3  A    between atoms: O_3  and  N_4
REMARK    4  A    between atoms: N_6  and  C_7
REMARK    5  A    between atoms: C_11  and  O_12
REMARK    6  A    between atoms: O_12  and  C_13
REMARK    7  A    between atoms: C_13  and  C_14
REMARK                            x       y       z     vdW  Elec       q    Type
REMARK                         _______ _______ _______ _____ _____    ______ ____
ROOT
ATOM      1  C   UNL     1       6.056   5.360  16.170  0.00  0.00    +0.000 A 
ATOM      2  C   UNL     1       5.684   4.165  16.794  0.00  0.00    +0.000 A 
ATOM      3  C   UNL     1       4.599   4.093  17.686  0.00  0.00    +0.000 A 
ATOM      4 CL   UNL     1       4.244   2.506  18.280  0.00  0.00    +0.000 Cl
ATOM      5  C   UNL     1       3.852   5.239  17.988  0.00  0.00    +0.000 A 
ATOM      6  C   UNL     1       4.213   6.436  17.338  0.00  0.00    +0.000 A 
ATOM      7 CL   UNL     1       3.320   7.900  17.597  0.00  0.00    +0.000 Cl
ATOM      8  C   UNL     1       5.298   6.498  16.452  0.00  0.00    +0.000 A 
ENDROOT
BRANCH   1  11
ATOM      9  N   UNL     1       6.179   4.025  13.485  0.00  0.00    +0.000 NA
ATOM     10  C   UNL     1       7.100   4.774  14.000  0.00  0.00    +0.000 C 
ATOM     11  N   UNL     1       7.078   5.428  15.207  0.00  0.00    +0.000 N 
ATOM     12  H   UNL     1       7.805   6.109  15.379  0.00  0.00    +0.000 HD
BRANCH   9  13
ATOM     13  O   UNL     1       6.579   3.565  12.227  0.00  0.00    +0.000 OA
BRANCH  13  15
ATOM     14  C   UNL     1       4.331   3.260  11.451  0.00  0.00    +0.000 C 
ATOM     15  C   UNL     1       5.632   2.577  11.813  0.00  0.00    +0.000 C 
ENDBRANCH  13  15
ENDBRANCH   9  13
ENDBRANCH   1  11
BRANCH   5  16
ATOM     16  O   UNL     1       2.748   5.323  18.793  0.00  0.00    +0.000 OA
BRANCH  16  17
ATOM     17  C   UNL     1       1.541   4.680  18.379  0.00  0.00    +0.000 C 
BRANCH  17  18
ATOM     18  C   UNL     1       1.100   3.723  19.479  0.00  0.00    +0.000 C 
ATOM     19 CL   UNL     1       0.628   2.151  18.798  0.00  0.00    +0.000 Cl
ENDBRANCH  17  18
ENDBRANCH  16  17
ENDBRANCH   5  16
TORSDOF 6
ENDMDL
MODEL 4
REMARK VINA RESULT:      -6.2      1.264      1.364
REMARK  Name = 
REMARK  7 active torsions:
REMARK  status: ('A' for Active; 'I' for Inactive)
REMARK    1  A    between atoms: C_1  and  C_2
REMARK    2  A    between atoms: C_2  and  O_3
REMARK    3  A    between atoms: O_3  and  N_4
REMARK    4  A    between atoms: N_6  and  C_7
REMARK    5  A    between atoms: C_11  and  O_12
REMARK    6  A    between atoms: O_12  and  C_13
REMARK    7  A    between atoms: C_13  and  C_14
REMARK                            x       y       z     vdW  Elec       q    Type
REMARK                         _______ _______ _______ _____ _____    ______ ____
ROOT
ATOM      1  C   UNL     1       5.582   5.010  15.943  0.00  0.00    +0.000 A 
ATOM      2  C   UNL     1       4.969   6.194  16.367  0.00  0.00    +0.000 A 
ATOM      3  C   UNL     1       3.884   6.197  17.261  0.00  0.00    +0.000 A 
ATOM      4 CL   UNL     1       3.329   7.767  17.733  0.00  0.00    +0.000 Cl
ATOM      5  C   UNL     1       3.369   4.990  17.754  0.00  0.00    +0.000 A 
ATOM      6  C   UNL     1       4.004   3.801  17.345  0.00  0.00    +0.000 A 
ATOM      7 CL   UNL     1       3.482   2.258  17.940  0.00  0.00    +0.000 Cl
ATOM      8  C   UNL     1       5.084   3.809  16.451  0.00  0.00    +0.000 A 
ENDROOT
BRANCH   1  11
ATOM      9  N   UNL     1       5.901   3.814  13.209  0.00  0.00    +0.000 NA
ATOM     10  C   UNL     1       6.829   4.410  13.887  0.00  0.00    +0.000 C 
ATOM     11  N   UNL     1       6.724   4.996  15.124  0.00  0.00    +0.000 N 
ATOM     12  H   UNL     1       7.499   5.568  15.433  0.00  0.00    +0.000 HD
BRANCH   9  13
ATOM     13  O   UNL     1       6.408   3.374  11.983  0.00  0.00    +0.000 OA
BRANCH  13  15
ATOM     14  C   UNL     1       6.471   1.140  11.113  0.00  0.00    +0.000 C 
ATOM     15  C   UNL     1       5.585   2.289  11.546  0.00  0.00    +0.000 C 
ENDBRANCH  13  15
ENDBRANCH   9  13
ENDBRANCH   1  11
BRANCH   5  16
ATOM     16  O   UNL     1       2.355   4.829  18.659  0.00  0.00    +0.000 OA
BRANCH  16  17
ATOM     17  C   UNL     1       2.624   5.048  20.045  0.00  0.00    +0.000 C 
BRANCH  17  18
ATOM     18  C   UNL     1       1.471   4.474  20.858  0.00  0.00    +0.000 C 
ATOM     19 CL   UNL     1       0.745   3.081  20.028  0.00  0.00    +0.000 Cl
ENDBRANCH  17  18
ENDBRANCH  16  17
ENDBRANCH   5  16
TORSDOF 6
ENDMDL
MODEL 5
REMARK VINA RESULT:      -6.1      1.127      2.272
REMARK  Name = 
REMARK  7 active torsions:
REMARK  status: ('A' for Active; 'I' for Inactive)
REMARK    1  A    between atoms: C_1  and  C_2
REMARK    2  A    between atoms: C_2  and  O_3
REMARK    3  A    between atoms: O_3  and  N_4
REMARK    4  A    between atoms: N_6  and  C_7
REMARK    5  A    between atoms: C_11  and  O_12
REMARK    6  A    between atoms: O_12  and  C_13
REMARK    7  A    between atoms: C_13  and  C_14
REMARK                            x       y       z     vdW  Elec       q    Type
REMARK                         _______ _______ _______ _____ _____    ______ ____
ROOT
ATOM      1  C   UNL     1       5.415   5.013  16.511  0.00  0.00    +0.000 A 
ATOM      2  C   UNL     1       4.745   3.804  16.734  0.00  0.00    +0.000 A 
ATOM      3  C   UNL     1       3.512   3.746  17.406  0.00  0.00    +0.000 A 
ATOM      4 CL   UNL     1       2.803   2.169  17.498  0.00  0.00    +0.000 Cl
ATOM      5  C   UNL     1       2.911   4.916  17.888  0.00  0.00    +0.000 A 
ATOM      6  C   UNL     1       3.575   6.133  17.639  0.00  0.00    +0.000 A 
ATOM      7 CL   UNL     1       2.891   7.646  18.143  0.00  0.00    +0.000 Cl
ATOM      8  C   UNL     1       4.806   6.182  16.971  0.00  0.00    +0.000 A 
ENDROOT
BRANCH   1  11
ATOM      9  N   UNL     1       5.935   4.019  13.728  0.00  0.00    +0.000 NA
ATOM     10  C   UNL     1       6.798   4.600  14.496  0.00  0.00    +0.000 C 
ATOM     11  N   UNL     1       6.601   5.096  15.762  0.00  0.00    +0.000 N 
ATOM     12  H   UNL     1       7.334   5.673  16.153  0.00  0.00    +0.000 HD
BRANCH   9  13
ATOM     13  O   UNL     1       6.527   3.682  12.507  0.00  0.00    +0.000 OA
BRANCH  13  15
ATOM     14  C   UNL     1       4.369   3.304  11.532  0.00  0.00    +0.000 C 
ATOM     15  C   UNL     1       5.704   2.687  11.893  0.00  0.00    +0.000 C 
ENDBRANCH  13  15
ENDBRANCH   9  13
ENDBRANCH   1  11
BRANCH   5  16
ATOM     16  O   UNL     1       1.699   5.030  18.515  0.00  0.00    +0.000 OA
BRANCH  16  17
ATOM     17  C   UNL     1       1.349   4.076  19.519  0.00  0.00    +0.000 C 
BRANCH  17  18
ATOM     18  C   UNL     1       2.175   4.363  20.767  0.00  0.00    +0.000 C 
ATOM     19 CL   UNL     1       2.412   2.882  21.722  0.00  0.00    +0.000 Cl
ENDBRANCH  17  18
ENDBRANCH  16  17
ENDBRANCH   5  16
TORSDOF 6
ENDMDL
MODEL 6
REMARK VINA RESULT:      -6.0      1.462      2.578
REMARK  Name = 
REMARK  7 active torsions:
REMARK  status: ('A' for Active; 'I' for Inactive)
REMARK    1  A    between atoms: C_1  and  C_2
REMARK    2  A    between atoms: C_2  and  O_3
REMARK    3  A    between atoms: O_3  and  N_4
REMARK    4  A    between atoms: N_6  and  C_7
REMARK    5  A    between atoms: C_11  and  O_12
REMARK    6  A    between atoms: O_12  and  C_13
REMARK    7  A    between atoms: C_13  and  C_14
REMARK                            x       y       z     vdW  Elec       q    Type
REMARK                         _______ _______ _______ _____ _____    ______ ____
ROOT
ATOM      1  C   UNL     1       5.593   4.560  15.735  0.00  0.00    +0.000 A 
ATOM      2  C   UNL     1       5.060   3.438  16.379  0.00  0.00    +0.000 A 
ATOM      3  C   UNL     1       4.095   3.546  17.395  0.00  0.00    +0.000 A 
ATOM      4 CL   UNL     1       3.496   2.039  17.999  0.00  0.00    +0.000 Cl
ATOM      5  C   UNL     1       3.638   4.806  17.807  0.00  0.00    +0.000 A 
ATOM      6  C   UNL     1       4.157   5.932  17.139  0.00  0.00    +0.000 A 
ATOM      7 CL   UNL     1       3.618   7.533  17.532  0.00  0.00    +0.000 Cl
ATOM      8  C   UNL     1       5.122   5.814  16.128  0.00  0.00    +0.000 A 
ENDROOT
BRANCH   1  11
ATOM      9  N   UNL     1       5.030   3.685  12.920  0.00  0.00    +0.000 NA
ATOM     10  C   UNL     1       6.186   4.029  13.388  0.00  0.00    +0.000 C 
ATOM     11  N   UNL     1       6.488   4.463  14.656  0.00  0.00    +0.000 N 
ATOM     12  H   UNL     1       7.408   4.855  14.805  0.00  0.00    +0.000 HD
BRANCH   9  13
ATOM     13  O   UNL     1       5.142   3.327  11.573  0.00  0.00    +0.000 OA
BRANCH  13  15
ATOM     14  C   UNL     1       3.348   3.959  10.114  0.00  0.00    +0.000 C 
ATOM     15  C   UNL     1       3.841   2.944  11.124  0.00  0.00    +0.000 C 
ENDBRANCH  13  15
ENDBRANCH   9  13
ENDBRANCH   1  11
BRANCH   5  16
ATOM     16  O   UNL     1       2.675   5.074  18.743  0.00  0.00    +0.000 OA
BRANCH  16  17
ATOM     17  C   UNL     1       2.974   4.857  20.123  0.00  0.00    +0.000 C 
BRANCH  17  18
ATOM     18  C   UNL     1       1.676   4.539  20.854  0.00  0.00    +0.000 C 
ATOM     19 CL   UNL     1       0.773   3.260  20.012  0.00  0.00    +0.000 Cl
ENDBRANCH  17  18
ENDBRANCH  16  17
ENDBRANCH   5  16
TORSDOF 6
ENDMDL
MODEL 7
REMARK VINA RESULT:      -6.0      1.854      1.950
REMARK  Name = 
REMARK  7 active torsions:
REMARK  status: ('A' for Active; 'I' for Inactive)
REMARK    1  A    between atoms: C_1  and  C_2
REMARK    2  A    between atoms: C_2  and  O_3
REMARK    3  A    between atoms: O_3  and  N_4
REMARK    4  A    between atoms: N_6  and  C_7
REMARK    5  A    between atoms: C_11  and  O_12
REMARK    6  A    between atoms: O_12  and  C_13
REMARK    7  A    between atoms: C_13  and  C_14
REMARK                            x       y       z     vdW  Elec       q    Type
REMARK                         _______ _______ _______ _____ _____    ______ ____
ROOT
ATOM      1  C   UNL     1       6.492   4.950  15.882  0.00  0.00    +0.000 A 
ATOM      2  C   UNL     1       5.201   4.410  15.882  0.00  0.00    +0.000 A 
ATOM      3  C   UNL     1       4.475   4.204  17.068  0.00  0.00    +0.000 A 
ATOM      4 CL   UNL     1       2.863   3.614  16.847  0.00  0.00    +0.000 Cl
ATOM      5  C   UNL     1       5.038   4.533  18.309  0.00  0.00    +0.000 A 
ATOM      6  C   UNL     1       6.327   5.100  18.304  0.00  0.00    +0.000 A 
ATOM      7 CL   UNL     1       7.093   5.593  19.780  0.00  0.00    +0.000 Cl
ATOM      8  C   UNL     1       7.044   5.298  17.116  0.00  0.00    +0.000 A 
ENDROOT
BRANCH   1  11
ATOM      9  N   UNL     1       6.346   3.553  13.230  0.00  0.00    +0.000 NA
ATOM     10  C   UNL     1       7.110   4.557  13.515  0.00  0.00    +0.000 C 
ATOM     11  N   UNL     1       7.192   5.247  14.700  0.00  0.00    +0.000 N 
ATOM     12  H   UNL     1       7.714   6.112  14.698  0.00  0.00    +0.000 HD
BRANCH   9  13
ATOM     13  O   UNL     1       6.548   3.154  11.906  0.00  0.00    +0.000 OA
BRANCH  13  15
ATOM     14  C   UNL     1       4.212   3.251  11.376  0.00  0.00    +0.000 C 
ATOM     15  C   UNL     1       5.424   2.356  11.525  0.00  0.00    +0.000 C 
ENDBRANCH  13  15
ENDBRANCH   9  13
ENDBRANCH   1  11
BRANCH   5  16
ATOM     16  O   UNL     1       4.446   4.437  19.540  0.00  0.00    +0.000 OA
BRANCH  16  17
ATOM     17  C   UNL     1       3.400   5.349  19.876  0.00  0.00    +0.000 C 
BRANCH  17  18
ATOM     18  C   UNL     1       2.448   4.657  20.844  0.00  0.00    +0.000 C 
ATOM     19 CL   UNL     1       1.402   3.504  19.985  0.00  0.00    +0.000 Cl
ENDBRANCH  17  18
ENDBRANCH  16  17
ENDBRANCH   5  16
TORSDOF 6
ENDMDL
MODEL 8
REMARK VINA RESULT:      -6.0      1.492      2.470
REMARK  Name = 
REMARK  7 active torsions:
REMARK  status: ('A' for Active; 'I' for Inactive)
REMARK    1  A    between atoms: C_1  and  C_2
REMARK    2  A    between atoms: C_2  and  O_3
REMARK    3  A    between atoms: O_3  and  N_4
REMARK    4  A    between atoms: N_6  and  C_7
REMARK    5  A    between atoms: C_11  and  O_12
REMARK    6  A    between atoms: O_12  and  C_13
REMARK    7  A    between atoms: C_13  and  C_14
REMARK                            x       y       z     vdW  Elec       q    Type
REMARK                         _______ _______ _______ _____ _____    ______ ____
ROOT
ATOM      1  C   UNL     1       5.479   4.546  16.367  0.00  0.00    +0.000 A 
ATOM      2  C   UNL     1       4.699   3.423  16.665  0.00  0.00    +0.000 A 
ATOM      3  C   UNL     1       3.480   3.521  17.359  0.00  0.00    +0.000 A 
ATOM      4 CL   UNL     1       2.622   2.029  17.546  0.00  0.00    +0.000 Cl
ATOM      5  C   UNL     1       3.008   4.769  17.788  0.00  0.00    +0.000 A 
ATOM      6  C   UNL     1       3.782   5.900  17.465  0.00  0.00    +0.000 A 
ATOM      7 CL   UNL     1       3.261   7.496  17.900  0.00  0.00    +0.000 Cl
ATOM      8  C   UNL     1       4.998   5.791  16.774  0.00  0.00    +0.000 A 
ENDROOT
BRANCH   1  11
ATOM      9  N   UNL     1       5.750   3.912  13.446  0.00  0.00    +0.000 NA
ATOM     10  C   UNL     1       6.725   4.151  14.261  0.00  0.00    +0.000 C 
ATOM     11  N   UNL     1       6.651   4.473  15.595  0.00  0.00    +0.000 N 
ATOM     12  H   UNL     1       7.498   4.798  16.041  0.00  0.00    +0.000 HD
BRANCH   9  13
ATOM     13  O   UNL     1       6.245   3.646  12.167  0.00  0.00    +0.000 OA
BRANCH  13  15
ATOM     14  C   UNL     1       4.131   3.107  11.172  0.00  0.00    +0.000 C 
ATOM     15  C   UNL     1       5.473   2.572  11.624  0.00  0.00    +0.000 C 
ENDBRANCH  13  15
ENDBRANCH   9  13
ENDBRANCH   1  11
BRANCH   5  16
ATOM     16  O   UNL     1       1.827   5.033  18.429  0.00  0.00    +0.000 OA
BRANCH  16  17
ATOM     17  C   UNL     1       1.498   4.293  19.605  0.00  0.00    +0.000 C 
BRANCH  17  18
ATOM     18  C   UNL     1       2.028   5.049  20.817  0.00  0.00    +0.000 C 
ATOM     19 CL   UNL     1       1.599   6.771  20.724  0.00  0.00    +0.000 Cl
ENDBRANCH  17  18
ENDBRANCH  16  17
ENDBRANCH   5  16
TORSDOF 6
ENDMDL
MODEL 9
REMARK VINA RESULT:      -5.9      1.796      2.141
REMARK  Name = 
REMARK  7 active torsions:
REMARK  status: ('A' for Active; 'I' for Inactive)
REMARK    1  A    between atoms: C_1  and  C_2
REMARK    2  A    between atoms: C_2  and  O_3
REMARK    3  A    between atoms: O_3  and  N_4
REMARK    4  A    between atoms: N_6  and  C_7
REMARK    5  A    between atoms: C_11  and  O_12
REMARK    6  A    between atoms: O_12  and  C_13
REMARK    7  A    between atoms: C_13  and  C_14
REMARK                            x       y       z     vdW  Elec       q    Type
REMARK                         _______ _______ _______ _____ _____    ______ ____
ROOT
ATOM      1  C   UNL     1       6.633   5.247  15.894  0.00  0.00    +0.000 A 
ATOM      2  C   UNL     1       7.166   5.498  17.163  0.00  0.00    +0.000 A 
ATOM      3  C   UNL     1       6.446   5.238  18.343  0.00  0.00    +0.000 A 
ATOM      4 CL   UNL     1       7.317   5.529  19.811  0.00  0.00    +0.000 Cl
ATOM      5  C   UNL     1       5.146   4.719  18.280  0.00  0.00    +0.000 A 
ATOM      6  C   UNL     1       4.621   4.444  17.002  0.00  0.00    +0.000 A 
ATOM      7 CL   UNL     1       3.043   3.749  16.813  0.00  0.00    +0.000 Cl
ATOM      8  C   UNL     1       5.346   4.709  15.831  0.00  0.00    +0.000 A 
ENDROOT
BRANCH   1  11
ATOM      9  N   UNL     1       6.331   3.797  13.285  0.00  0.00    +0.000 NA
ATOM     10  C   UNL     1       7.214   4.705  13.547  0.00  0.00    +0.000 C 
ATOM     11  N   UNL     1       7.373   5.415  14.712  0.00  0.00    +0.000 N 
ATOM     12  H   UNL     1       8.001   6.208  14.690  0.00  0.00    +0.000 HD
BRANCH   9  13
ATOM     13  O   UNL     1       6.491   3.333  11.976  0.00  0.00    +0.000 OA
BRANCH  13  15
ATOM     14  C   UNL     1       4.183   3.268  11.330  0.00  0.00    +0.000 C 
ATOM     15  C   UNL     1       5.402   2.450  11.700  0.00  0.00    +0.000 C 
ENDBRANCH  13  15
ENDBRANCH   9  13
ENDBRANCH   1  11
BRANCH   5  16
ATOM     16  O   UNL     1       4.339   4.371  19.330  0.00  0.00    +0.000 OA
BRANCH  16  17
ATOM     17  C   UNL     1       4.395   3.034  19.829  0.00  0.00    +0.000 C 
BRANCH  17  18
ATOM     18  C   UNL     1       2.985   2.603  20.214  0.00  0.00    +0.000 C 
ATOM     19 CL   UNL     1       2.362   3.600  21.547  0.00  0.00    +0.000 Cl
ENDBRANCH  17  18
ENDBRANCH  16  17
ENDBRANCH   5  16
TORSDOF 6
ENDMDL
