MODEL 1
REMARK VINA RESULT:      -7.4      0.000      0.000
REMARK  Name = 
REMARK  5 active torsions:
REMARK  status: ('A' for Active; 'I' for Inactive)
REMARK    1  A    between atoms: C_1  and  O_2
REMARK    2  A    between atoms: O_2  and  C_3
REMARK    3  A    between atoms: C_3  and  C_5
REMARK    4  A    between atoms: N_7  and  C_8
REMARK    5  A    between atoms: C_11  and  N_12
REMARK                            x       y       z     vdW  Elec       q    Type
REMARK                         _______ _______ _______ _____ _____    ______ ____
ROOT
ATOM      1  C   UNL     1       2.518   7.456  18.667  0.00  0.00    +0.000 A 
ATOM      2  C   UNL     1       2.006   8.573  17.997  0.00  0.00    +0.000 A 
ATOM      3  C   UNL     1       1.186   9.507  18.643  0.00  0.00    +0.000 A 
ATOM      4  C   UNL     1       0.841   9.348  19.983  0.00  0.00    +0.000 A 
ATOM      5  C   UNL     1       1.369   8.252  20.674  0.00  0.00    +0.000 A 
ATOM      6  C   UNL     1       2.183   7.308  20.017  0.00  0.00    +0.000 A 
ENDROOT
BRANCH   4   7
ATOM      7  N   UNL     1      -0.007  10.254  20.671  0.00  0.00    +0.000 N 
ATOM      8  C   UNL     1       0.379  11.477  21.186  0.00  0.00    +0.000 C 
ATOM      9  O   UNL     1       1.486  11.988  21.027  0.00  0.00    +0.000 OA
ATOM     10  N   UNL     1      -0.597  12.149  21.891  0.00  0.00    +0.000 N 
ATOM     11  C   UNL     1      -0.325  13.509  22.365  0.00  0.00    +0.000 C 
ATOM     12  C   UNL     1      -1.540  13.854  23.160  0.00  0.00    +0.000 A 
ATOM     13  C   UNL     1      -1.877  15.042  23.781  0.00  0.00    +0.000 A 
ATOM     14  C   UNL     1      -3.082  15.058  24.469  0.00  0.00    +0.000 A 
ATOM     15  N   UNL     1      -3.923  13.993  24.567  0.00  0.00    +0.000 NA
ATOM     16  C   UNL     1      -3.559  12.848  23.946  0.00  0.00    +0.000 A 
ATOM     17  C   UNL     1      -2.386  12.748  23.236  0.00  0.00    +0.000 A 
ATOM     18  C   UNL     1      -1.816  11.595  22.485  0.00  0.00    +0.000 C 
ATOM     19  H   UNL     1      -0.996  10.139  20.515  0.00  0.00    +0.000 HD
ENDBRANCH   4   7
BRANCH   1  22
ATOM     20  C   UNL     1       5.091   5.534  17.617  0.00  0.00    +0.000 C 
ATOM     21  C   UNL     1       4.409   6.794  17.079  0.00  0.00    +0.000 C 
ATOM     22  N   UNL     1       3.327   6.536  17.978  0.00  0.00    +0.000 N 
ATOM     23  C   UNL     1       3.744   5.203  18.273  0.00  0.00    +0.000 C 
BRANCH  20  24
ATOM     24  C   UNL     1       5.734   4.613  16.580  0.00  0.00    +0.000 C 
ATOM     25  O   UNL     1       5.148   4.174  15.590  0.00  0.00    +0.000 OA
BRANCH  24  27
ATOM     26  C   UNL     1       7.566   5.001  17.999  0.00  0.00    +0.000 C 
ATOM     27  O   UNL     1       7.051   4.344  16.838  0.00  0.00    +0.000 OA
ENDBRANCH  24  27
ENDBRANCH  20  24
ENDBRANCH   1  22
TORSDOF 4
ENDMDL
MODEL 2
REMARK VINA RESULT:      -7.3      0.601      1.445
REMARK  Name = 
REMARK  5 active torsions:
REMARK  status: ('A' for Active; 'I' for Inactive)
REMARK    1  A    between atoms: C_1  and  O_2
REMARK    2  A    between atoms: O_2  and  C_3
REMARK    3  A    between atoms: C_3  and  C_5
REMARK    4  A    between atoms: N_7  and  C_8
REMARK    5  A    between atoms: C_11  and  N_12
REMARK                            x       y       z     vdW  Elec       q    Type
REMARK                         _______ _______ _______ _____ _____    ______ ____
ROOT
ATOM      1  C   UNL     1       2.742   7.510  18.343  0.00  0.00    +0.000 A 
ATOM      2  C   UNL     1       2.416   7.236  19.676  0.00  0.00    +0.000 A 
ATOM      3  C   UNL     1       1.552   8.062  20.408  0.00  0.00    +0.000 A 
ATOM      4  C   UNL     1       0.992   9.199  19.830  0.00  0.00    +0.000 A 
ATOM      5  C   UNL     1       1.285   9.470  18.489  0.00  0.00    +0.000 A 
ATOM      6  C   UNL     1       2.165   8.644  17.761  0.00  0.00    +0.000 A 
ENDROOT
BRANCH   4   7
ATOM      7  N   UNL     1       0.134  10.078  20.540  0.00  0.00    +0.000 N 
ATOM      8  C   UNL     1       0.502  11.299  21.073  0.00  0.00    +0.000 C 
ATOM      9  O   UNL     1       1.598  11.832  20.913  0.00  0.00    +0.000 OA
ATOM     10  N   UNL     1      -0.479  11.940  21.797  0.00  0.00    +0.000 N 
ATOM     11  C   UNL     1      -0.228  13.297  22.292  0.00  0.00    +0.000 C 
ATOM     12  C   UNL     1      -1.443  13.607  23.103  0.00  0.00    +0.000 A 
ATOM     13  C   UNL     1      -1.795  14.778  23.747  0.00  0.00    +0.000 A 
ATOM     14  C   UNL     1      -2.994  14.761  24.445  0.00  0.00    +0.000 A 
ATOM     15  N   UNL     1      -3.815  13.679  24.532  0.00  0.00    +0.000 NA
ATOM     16  C   UNL     1      -3.435  12.552  23.888  0.00  0.00    +0.000 A 
ATOM     17  C   UNL     1      -2.268  12.484  23.167  0.00  0.00    +0.000 A 
ATOM     18  C   UNL     1      -1.683  11.355  22.391  0.00  0.00    +0.000 C 
ATOM     19  H   UNL     1      -0.854   9.948  20.390  0.00  0.00    +0.000 HD
ENDBRANCH   4   7
BRANCH   1  22
ATOM     20  C   UNL     1       5.311   5.494  17.475  0.00  0.00    +0.000 C 
ATOM     21  C   UNL     1       4.937   6.944  17.161  0.00  0.00    +0.000 C 
ATOM     22  N   UNL     1       3.622   6.663  17.649  0.00  0.00    +0.000 N 
ATOM     23  C   UNL     1       3.806   5.247  17.651  0.00  0.00    +0.000 C 
BRANCH  20  24
ATOM     24  C   UNL     1       6.132   4.758  16.417  0.00  0.00    +0.000 C 
ATOM     25  O   UNL     1       7.358   4.646  16.451  0.00  0.00    +0.000 OA
BRANCH  24  27
ATOM     26  C   UNL     1       6.004   4.143  14.153  0.00  0.00    +0.000 C 
ATOM     27  O   UNL     1       5.366   4.195  15.432  0.00  0.00    +0.000 OA
ENDBRANCH  24  27
ENDBRANCH  20  24
ENDBRANCH   1  22
TORSDOF 4
ENDMDL
MODEL 3
REMARK VINA RESULT:      -7.3      8.088      9.667
REMARK  Name = 
REMARK  5 active torsions:
REMARK  status: ('A' for Active; 'I' for Inactive)
REMARK    1  A    between atoms: C_1  and  O_2
REMARK    2  A    between atoms: O_2  and  C_3
REMARK    3  A    between atoms: C_3  and  C_5
REMARK    4  A    between atoms: N_7  and  C_8
REMARK    5  A    between atoms: C_11  and  N_12
REMARK                            x       y       z     vdW  Elec       q    Type
REMARK                         _______ _______ _______ _____ _____    ______ ____
ROOT
ATOM      1  C   UNL     1       6.335   5.920  17.934  0.00  0.00    +0.000 A 
ATOM      2  C   UNL     1       7.490   5.960  18.724  0.00  0.00    +0.000 A 
ATOM      3  C   UNL     1       8.317   7.090  18.763  0.00  0.00    +0.000 A 
ATOM      4  C   UNL     1       8.020   8.219  18.003  0.00  0.00    +0.000 A 
ATOM      5  C   UNL     1       6.852   8.205  17.231  0.00  0.00    +0.000 A 
ATOM      6  C   UNL     1       6.030   7.061  17.185  0.00  0.00    +0.000 A 
ENDROOT
BRANCH   4   7
ATOM      7  N   UNL     1       8.841   9.375  17.991  0.00  0.00    +0.000 N 
ATOM      8  C   UNL     1       9.168  10.136  19.097  0.00  0.00    +0.000 C 
ATOM      9  O   UNL     1       8.873   9.851  20.257  0.00  0.00    +0.000 OA
ATOM     10  N   UNL     1       9.911  11.266  18.832  0.00  0.00    +0.000 N 
ATOM     11  C   UNL     1      10.416  12.066  19.951  0.00  0.00    +0.000 C 
ATOM     12  C   UNL     1      11.059  13.238  19.285  0.00  0.00    +0.000 A 
ATOM     13  C   UNL     1      11.770  14.284  19.840  0.00  0.00    +0.000 A 
ATOM     14  C   UNL     1      12.240  15.247  18.958  0.00  0.00    +0.000 A 
ATOM     15  N   UNL     1      12.036  15.219  17.613  0.00  0.00    +0.000 NA
ATOM     16  C   UNL     1      11.335  14.178  17.108  0.00  0.00    +0.000 A 
ATOM     17  C   UNL     1      10.840  13.178  17.909  0.00  0.00    +0.000 A 
ATOM     18  C   UNL     1      10.061  11.960  17.550  0.00  0.00    +0.000 C 
ATOM     19  H   UNL     1       9.455   9.474  17.197  0.00  0.00    +0.000 HD
ENDBRANCH   4   7
BRANCH   1  22
ATOM     20  C   UNL     1       3.743   3.753  17.865  0.00  0.00    +0.000 C 
ATOM     21  C   UNL     1       4.713   4.226  18.950  0.00  0.00    +0.000 C 
ATOM     22  N   UNL     1       5.540   4.762  17.914  0.00  0.00    +0.000 N 
ATOM     23  C   UNL     1       4.863   4.071  16.865  0.00  0.00    +0.000 C 
BRANCH  20  24
ATOM     24  C   UNL     1       3.177   2.343  18.025  0.00  0.00    +0.000 C 
ATOM     25  O   UNL     1       3.857   1.354  18.303  0.00  0.00    +0.000 OA
BRANCH  24  27
ATOM     26  C   UNL     1       1.080   3.003  18.855  0.00  0.00    +0.000 C 
ATOM     27  O   UNL     1       1.819   2.283  17.864  0.00  0.00    +0.000 OA
ENDBRANCH  24  27
ENDBRANCH  20  24
ENDBRANCH   1  22
TORSDOF 4
ENDMDL
MODEL 4
REMARK VINA RESULT:      -7.0      0.575      1.099
REMARK  Name = 
REMARK  5 active torsions:
REMARK  status: ('A' for Active; 'I' for Inactive)
REMARK    1  A    between atoms: C_1  and  O_2
REMARK    2  A    between atoms: O_2  and  C_3
REMARK    3  A    between atoms: C_3  and  C_5
REMARK    4  A    between atoms: N_7  and  C_8
REMARK    5  A    between atoms: C_11  and  N_12
REMARK                            x       y       z     vdW  Elec       q    Type
REMARK                         _______ _______ _______ _____ _____    ______ ____
ROOT
ATOM      1  C   UNL     1       2.343   7.464  19.187  0.00  0.00    +0.000 A 
ATOM      2  C   UNL     1       1.888   7.306  20.501  0.00  0.00    +0.000 A 
ATOM      3  C   UNL     1       1.055   8.253  21.111  0.00  0.00    +0.000 A 
ATOM      4  C   UNL     1       0.655   9.398  20.426  0.00  0.00    +0.000 A 
ATOM      5  C   UNL     1       1.078   9.556  19.101  0.00  0.00    +0.000 A 
ATOM      6  C   UNL     1       1.927   8.607  18.496  0.00  0.00    +0.000 A 
ENDROOT
BRANCH   4   7
ATOM      7  N   UNL     1      -0.167  10.395  21.011  0.00  0.00    +0.000 N 
ATOM      8  C   UNL     1       0.260  11.644  21.422  0.00  0.00    +0.000 C 
ATOM      9  O   UNL     1       1.389  12.094  21.241  0.00  0.00    +0.000 OA
ATOM     10  N   UNL     1      -0.699  12.414  22.044  0.00  0.00    +0.000 N 
ATOM     11  C   UNL     1      -0.380  13.800  22.399  0.00  0.00    +0.000 C 
ATOM     12  C   UNL     1      -1.594  14.264  23.134  0.00  0.00    +0.000 A 
ATOM     13  C   UNL     1      -1.892  15.515  23.639  0.00  0.00    +0.000 A 
ATOM     14  C   UNL     1      -3.107  15.641  24.297  0.00  0.00    +0.000 A 
ATOM     15  N   UNL     1      -3.993  14.623  24.473  0.00  0.00    +0.000 NA
ATOM     16  C   UNL     1      -3.665  13.414  23.965  0.00  0.00    +0.000 A 
ATOM     17  C   UNL     1      -2.485  13.203  23.292  0.00  0.00    +0.000 A 
ATOM     18  C   UNL     1      -1.950  11.965  22.659  0.00  0.00    +0.000 C 
ATOM     19  H   UNL     1      -1.157  10.306  20.846  0.00  0.00    +0.000 HD
ENDBRANCH   4   7
BRANCH   1  22
ATOM     20  C   UNL     1       5.022   5.632  18.247  0.00  0.00    +0.000 C 
ATOM     21  C   UNL     1       4.118   6.643  17.540  0.00  0.00    +0.000 C 
ATOM     22  N   UNL     1       3.189   6.497  18.617  0.00  0.00    +0.000 N 
ATOM     23  C   UNL     1       3.815   5.328  19.145  0.00  0.00    +0.000 C 
BRANCH  20  24
ATOM     24  C   UNL     1       5.665   4.561  17.367  0.00  0.00    +0.000 C 
ATOM     25  O   UNL     1       5.040   3.847  16.581  0.00  0.00    +0.000 OA
BRANCH  24  27
ATOM     26  C   UNL     1       7.577   5.484  18.375  0.00  0.00    +0.000 C 
ATOM     27  O   UNL     1       7.025   4.491  17.506  0.00  0.00    +0.000 OA
ENDBRANCH  24  27
ENDBRANCH  20  24
ENDBRANCH   1  22
TORSDOF 4
ENDMDL
MODEL 5
REMARK VINA RESULT:      -6.9      1.405      2.055
REMARK  Name = 
REMARK  5 active torsions:
REMARK  status: ('A' for Active; 'I' for Inactive)
REMARK    1  A    between atoms: C_1  and  O_2
REMARK    2  A    between atoms: O_2  and  C_3
REMARK    3  A    between atoms: C_3  and  C_5
REMARK    4  A    between atoms: N_7  and  C_8
REMARK    5  A    between atoms: C_11  and  N_12
REMARK                            x       y       z     vdW  Elec       q    Type
REMARK                         _______ _______ _______ _____ _____    ______ ____
ROOT
ATOM      1  C   UNL     1       3.029   7.368  18.287  0.00  0.00    +0.000 A 
ATOM      2  C   UNL     1       2.559   7.175  19.592  0.00  0.00    +0.000 A 
ATOM      3  C   UNL     1       1.661   8.068  20.190  0.00  0.00    +0.000 A 
ATOM      4  C   UNL     1       1.208   9.193  19.504  0.00  0.00    +0.000 A 
ATOM      5  C   UNL     1       1.646   9.383  18.189  0.00  0.00    +0.000 A 
ATOM      6  C   UNL     1       2.560   8.489  17.595  0.00  0.00    +0.000 A 
ENDROOT
BRANCH   4   7
ATOM      7  N   UNL     1       0.319  10.137  20.079  0.00  0.00    +0.000 N 
ATOM      8  C   UNL     1      -0.154  10.104  21.377  0.00  0.00    +0.000 C 
ATOM      9  O   UNL     1       0.214   9.307  22.238  0.00  0.00    +0.000 OA
ATOM     10  N   UNL     1      -1.077  11.078  21.688  0.00  0.00    +0.000 N 
ATOM     11  C   UNL     1      -1.540  11.206  23.073  0.00  0.00    +0.000 C 
ATOM     12  C   UNL     1      -2.588  12.266  22.999  0.00  0.00    +0.000 A 
ATOM     13  C   UNL     1      -3.316  12.857  24.014  0.00  0.00    +0.000 A 
ATOM     14  C   UNL     1      -4.243  13.815  23.631  0.00  0.00    +0.000 A 
ATOM     15  N   UNL     1      -4.472  14.188  22.343  0.00  0.00    +0.000 NA
ATOM     16  C   UNL     1      -3.740  13.587  21.377  0.00  0.00    +0.000 A 
ATOM     17  C   UNL     1      -2.795  12.634  21.669  0.00  0.00    +0.000 A 
ATOM     18  C   UNL     1      -1.892  11.870  20.763  0.00  0.00    +0.000 C 
ATOM     19  H   UNL     1       0.267  11.033  19.619  0.00  0.00    +0.000 HD
ENDBRANCH   4   7
BRANCH   1  22
ATOM     20  C   UNL     1       5.827   5.698  17.391  0.00  0.00    +0.000 C 
ATOM     21  C   UNL     1       4.880   6.662  16.672  0.00  0.00    +0.000 C 
ATOM     22  N   UNL     1       3.940   6.455  17.729  0.00  0.00    +0.000 N 
ATOM     23  C   UNL     1       4.621   5.319  18.261  0.00  0.00    +0.000 C 
BRANCH  20  24
ATOM     24  C   UNL     1       6.547   4.673  16.517  0.00  0.00    +0.000 C 
ATOM     25  O   UNL     1       7.739   4.383  16.634  0.00  0.00    +0.000 OA
BRANCH  24  27
ATOM     26  C   UNL     1       6.266   4.015  14.279  0.00  0.00    +0.000 C 
ATOM     27  O   UNL     1       5.727   4.069  15.602  0.00  0.00    +0.000 OA
ENDBRANCH  24  27
ENDBRANCH  20  24
ENDBRANCH   1  22
TORSDOF 4
ENDMDL
MODEL 6
REMARK VINA RESULT:      -6.9      1.316      1.478
REMARK  Name = 
REMARK  5 active torsions:
REMARK  status: ('A' for Active; 'I' for Inactive)
REMARK    1  A    between atoms: C_1  and  O_2
REMARK    2  A    between atoms: O_2  and  C_3
REMARK    3  A    between atoms: C_3  and  C_5
REMARK    4  A    between atoms: N_7  and  C_8
REMARK    5  A    between atoms: C_11  and  N_12
REMARK                            x       y       z     vdW  Elec       q    Type
REMARK                         _______ _______ _______ _____ _____    ______ ____
ROOT
ATOM      1  C   UNL     1       2.780   7.423  18.311  0.00  0.00    +0.000 A 
ATOM      2  C   UNL     1       2.347   8.624  17.736  0.00  0.00    +0.000 A 
ATOM      3  C   UNL     1       1.536   9.525  18.438  0.00  0.00    +0.000 A 
ATOM      4  C   UNL     1       1.122   9.249  19.739  0.00  0.00    +0.000 A 
ATOM      5  C   UNL     1       1.571   8.067  20.337  0.00  0.00    +0.000 A 
ATOM      6  C   UNL     1       2.376   7.157  19.623  0.00  0.00    +0.000 A 
ENDROOT
BRANCH   4   7
ATOM      7  N   UNL     1       0.280  10.120  20.477  0.00  0.00    +0.000 N 
ATOM      8  C   UNL     1      -0.768  10.853  19.955  0.00  0.00    +0.000 C 
ATOM      9  O   UNL     1      -1.175  10.770  18.798  0.00  0.00    +0.000 OA
ATOM     10  N   UNL     1      -1.392  11.699  20.847  0.00  0.00    +0.000 N 
ATOM     11  C   UNL     1      -2.595  12.421  20.422  0.00  0.00    +0.000 C 
ATOM     12  C   UNL     1      -2.910  13.297  21.589  0.00  0.00    +0.000 A 
ATOM     13  C   UNL     1      -3.983  14.145  21.789  0.00  0.00    +0.000 A 
ATOM     14  C   UNL     1      -3.997  14.852  22.983  0.00  0.00    +0.000 A 
ATOM     15  N   UNL     1      -3.033  14.762  23.938  0.00  0.00    +0.000 NA
ATOM     16  C   UNL     1      -1.999  13.921  23.707  0.00  0.00    +0.000 A 
ATOM     17  C   UNL     1      -1.910  13.178  22.555  0.00  0.00    +0.000 A 
ATOM     18  C   UNL     1      -0.871  12.203  22.120  0.00  0.00    +0.000 C 
ATOM     19  H   UNL     1       0.252   9.969  21.474  0.00  0.00    +0.000 HD
ENDBRANCH   4   7
BRANCH   1  22
ATOM     20  C   UNL     1       5.269   5.400  17.247  0.00  0.00    +0.000 C 
ATOM     21  C   UNL     1       4.805   6.810  16.875  0.00  0.00    +0.000 C 
ATOM     22  N   UNL     1       3.583   6.540  17.568  0.00  0.00    +0.000 N 
ATOM     23  C   UNL     1       3.814   5.135  17.656  0.00  0.00    +0.000 C 
BRANCH  20  24
ATOM     24  C   UNL     1       5.958   4.597  16.144  0.00  0.00    +0.000 C 
ATOM     25  O   UNL     1       5.375   4.128  15.166  0.00  0.00    +0.000 OA
BRANCH  24  27
ATOM     26  C   UNL     1       7.726   4.575  17.691  0.00  0.00    +0.000 C 
ATOM     27  O   UNL     1       7.309   4.475  16.327  0.00  0.00    +0.000 OA
ENDBRANCH  24  27
ENDBRANCH  20  24
ENDBRANCH   1  22
TORSDOF 4
ENDMDL
MODEL 7
REMARK VINA RESULT:      -6.9      1.591      2.194
REMARK  Name = 
REMARK  5 active torsions:
REMARK  status: ('A' for Active; 'I' for Inactive)
REMARK    1  A    between atoms: C_1  and  O_2
REMARK    2  A    between atoms: O_2  and  C_3
REMARK    3  A    between atoms: C_3  and  C_5
REMARK    4  A    between atoms: N_7  and  C_8
REMARK    5  A    between atoms: C_11  and  N_12
REMARK                            x       y       z     vdW  Elec       q    Type
REMARK                         _______ _______ _______ _____ _____    ______ ____
ROOT
ATOM      1  C   UNL     1       3.183   7.165  18.159  0.00  0.00    +0.000 A 
ATOM      2  C   UNL     1       2.697   6.818  19.425  0.00  0.00    +0.000 A 
ATOM      3  C   UNL     1       1.799   7.638  20.120  0.00  0.00    +0.000 A 
ATOM      4  C   UNL     1       1.363   8.843  19.573  0.00  0.00    +0.000 A 
ATOM      5  C   UNL     1       1.817   9.189  18.295  0.00  0.00    +0.000 A 
ATOM      6  C   UNL     1       2.731   8.367  17.605  0.00  0.00    +0.000 A 
ENDROOT
BRANCH   4   7
ATOM      7  N   UNL     1       0.475   9.717  20.250  0.00  0.00    +0.000 N 
ATOM      8  C   UNL     1      -0.484  10.509  19.647  0.00  0.00    +0.000 C 
ATOM      9  O   UNL     1      -0.763  10.484  18.450  0.00  0.00    +0.000 OA
ATOM     10  N   UNL     1      -1.173  11.344  20.499  0.00  0.00    +0.000 N 
ATOM     11  C   UNL     1      -2.297  12.127  19.976  0.00  0.00    +0.000 C 
ATOM     12  C   UNL     1      -2.709  12.971  21.137  0.00  0.00    +0.000 A 
ATOM     13  C   UNL     1      -3.768  13.851  21.252  0.00  0.00    +0.000 A 
ATOM     14  C   UNL     1      -3.890  14.513  22.465  0.00  0.00    +0.000 A 
ATOM     15  N   UNL     1      -3.040  14.351  23.516  0.00  0.00    +0.000 NA
ATOM     16  C   UNL     1      -2.016  13.481  23.364  0.00  0.00    +0.000 A 
ATOM     17  C   UNL     1      -1.826  12.778  22.199  0.00  0.00    +0.000 A 
ATOM     18  C   UNL     1      -0.779  11.780  21.841  0.00  0.00    +0.000 C 
ATOM     19  H   UNL     1       0.332   9.530  21.231  0.00  0.00    +0.000 HD
ENDBRANCH   4   7
BRANCH   1  22
ATOM     20  C   UNL     1       5.733   5.073  17.422  0.00  0.00    +0.000 C 
ATOM     21  C   UNL     1       5.465   6.560  17.178  0.00  0.00    +0.000 C 
ATOM     22  N   UNL     1       4.093   6.319  17.502  0.00  0.00    +0.000 N 
ATOM     23  C   UNL     1       4.208   4.899  17.419  0.00  0.00    +0.000 C 
BRANCH  20  24
ATOM     24  C   UNL     1       6.629   4.367  16.406  0.00  0.00    +0.000 C 
ATOM     25  O   UNL     1       7.859   4.437  16.405  0.00  0.00    +0.000 OA
BRANCH  24  27
ATOM     26  C   UNL     1       6.101   4.015  14.143  0.00  0.00    +0.000 C 
ATOM     27  O   UNL     1       5.932   3.608  15.504  0.00  0.00    +0.000 OA
ENDBRANCH  24  27
ENDBRANCH  20  24
ENDBRANCH   1  22
TORSDOF 4
ENDMDL
MODEL 8
REMARK VINA RESULT:      -6.8      2.470     10.959
REMARK  Name = 
REMARK  5 active torsions:
REMARK  status: ('A' for Active; 'I' for Inactive)
REMARK    1  A    between atoms: C_1  and  O_2
REMARK    2  A    between atoms: O_2  and  C_3
REMARK    3  A    between atoms: C_3  and  C_5
REMARK    4  A    between atoms: N_7  and  C_8
REMARK    5  A    between atoms: C_11  and  N_12
REMARK                            x       y       z     vdW  Elec       q    Type
REMARK                         _______ _______ _______ _____ _____    ______ ____
ROOT
ATOM      1  C   UNL     1      -0.348  10.305  20.906  0.00  0.00    +0.000 A 
ATOM      2  C   UNL     1       0.425   9.275  21.454  0.00  0.00    +0.000 A 
ATOM      3  C   UNL     1       1.365   8.573  20.688  0.00  0.00    +0.000 A 
ATOM      4  C   UNL     1       1.556   8.874  19.341  0.00  0.00    +0.000 A 
ATOM      5  C   UNL     1       0.812   9.921  18.787  0.00  0.00    +0.000 A 
ATOM      6  C   UNL     1      -0.142  10.616  19.558  0.00  0.00    +0.000 A 
ENDROOT
BRANCH   4   7
ATOM      7  N   UNL     1       2.477   8.173  18.521  0.00  0.00    +0.000 N 
ATOM      8  C   UNL     1       2.585   6.798  18.432  0.00  0.00    +0.000 C 
ATOM      9  O   UNL     1       1.826   5.998  18.977  0.00  0.00    +0.000 OA
ATOM     10  N   UNL     1       3.612   6.342  17.635  0.00  0.00    +0.000 N 
ATOM     11  C   UNL     1       3.727   4.904  17.374  0.00  0.00    +0.000 C 
ATOM     12  C   UNL     1       4.990   4.789  16.586  0.00  0.00    +0.000 A 
ATOM     13  C   UNL     1       5.562   3.677  15.998  0.00  0.00    +0.000 A 
ATOM     14  C   UNL     1       6.763   3.879  15.334  0.00  0.00    +0.000 A 
ATOM     15  N   UNL     1       7.395   5.081  15.241  0.00  0.00    +0.000 NA
ATOM     16  C   UNL     1       6.804   6.146  15.830  0.00  0.00    +0.000 A 
ATOM     17  C   UNL     1       5.610   6.036  16.500  0.00  0.00    +0.000 A 
ATOM     18  C   UNL     1       4.803   7.075  17.199  0.00  0.00    +0.000 C 
ATOM     19  H   UNL     1       2.864   8.691  17.747  0.00  0.00    +0.000 HD
ENDBRANCH   4   7
BRANCH   1  22
ATOM     20  C   UNL     1      -1.885  12.451  23.016  0.00  0.00    +0.000 C 
ATOM     21  C   UNL     1      -1.388  11.009  23.133  0.00  0.00    +0.000 C 
ATOM     22  N   UNL     1      -1.289  10.976  21.707  0.00  0.00    +0.000 N 
ATOM     23  C   UNL     1      -2.046  12.170  21.516  0.00  0.00    +0.000 C 
BRANCH  20  24
ATOM     24  C   UNL     1      -3.072  12.837  23.898  0.00  0.00    +0.000 C 
ATOM     25  O   UNL     1      -4.029  12.096  24.129  0.00  0.00    +0.000 OA
BRANCH  24  27
ATOM     26  C   UNL     1      -4.054  14.956  24.158  0.00  0.00    +0.000 C 
ATOM     27  O   UNL     1      -2.956  14.086  24.446  0.00  0.00    +0.000 OA
ENDBRANCH  24  27
ENDBRANCH  20  24
ENDBRANCH   1  22
TORSDOF 4
ENDMDL
MODEL 9
REMARK VINA RESULT:      -6.8      1.370      2.064
REMARK  Name = 
REMARK  5 active torsions:
REMARK  status: ('A' for Active; 'I' for Inactive)
REMARK    1  A    between atoms: C_1  and  O_2
REMARK    2  A    between atoms: O_2  and  C_3
REMARK    3  A    between atoms: C_3  and  C_5
REMARK    4  A    between atoms: N_7  and  C_8
REMARK    5  A    between atoms: C_11  and  N_12
REMARK                            x       y       z     vdW  Elec       q    Type
REMARK                         _______ _______ _______ _____ _____    ______ ____
ROOT
ATOM      1  C   UNL     1       1.992   7.712  19.621  0.00  0.00    +0.000 A 
ATOM      2  C   UNL     1       1.464   7.631  20.915  0.00  0.00    +0.000 A 
ATOM      3  C   UNL     1       0.606   8.614  21.423  0.00  0.00    +0.000 A 
ATOM      4  C   UNL     1       0.253   9.721  20.654  0.00  0.00    +0.000 A 
ATOM      5  C   UNL     1       0.749   9.801  19.348  0.00  0.00    +0.000 A 
ATOM      6  C   UNL     1       1.623   8.816  18.845  0.00  0.00    +0.000 A 
ENDROOT
BRANCH   4   7
ATOM      7  N   UNL     1      -0.591  10.753  21.136  0.00  0.00    +0.000 N 
ATOM      8  C   UNL     1      -0.165  11.970  21.633  0.00  0.00    +0.000 C 
ATOM      9  O   UNL     1       1.001  12.360  21.628  0.00  0.00    +0.000 OA
ATOM     10  N   UNL     1      -1.162  12.784  22.125  0.00  0.00    +0.000 N 
ATOM     11  C   UNL     1      -0.826  14.144  22.554  0.00  0.00    +0.000 C 
ATOM     12  C   UNL     1      -2.108  14.664  23.116  0.00  0.00    +0.000 A 
ATOM     13  C   UNL     1      -2.411  15.922  23.600  0.00  0.00    +0.000 A 
ATOM     14  C   UNL     1      -3.700  16.106  24.077  0.00  0.00    +0.000 A 
ATOM     15  N   UNL     1      -4.655  15.136  24.100  0.00  0.00    +0.000 NA
ATOM     16  C   UNL     1      -4.320  13.918  23.617  0.00  0.00    +0.000 A 
ATOM     17  C   UNL     1      -3.068  13.652  23.119  0.00  0.00    +0.000 A 
ATOM     18  C   UNL     1      -2.512  12.395  22.542  0.00  0.00    +0.000 C 
ATOM     19  H   UNL     1      -1.551  10.721  20.827  0.00  0.00    +0.000 HD
ENDBRANCH   4   7
BRANCH   1  22
ATOM     20  C   UNL     1       3.292   4.942  18.188  0.00  0.00    +0.000 C 
ATOM     21  C   UNL     1       3.019   5.371  19.631  0.00  0.00    +0.000 C 
ATOM     22  N   UNL     1       2.860   6.710  19.154  0.00  0.00    +0.000 N 
ATOM     23  C   UNL     1       3.423   6.438  17.872  0.00  0.00    +0.000 C 
BRANCH  20  24
ATOM     24  C   UNL     1       4.449   3.966  17.975  0.00  0.00    +0.000 C 
ATOM     25  O   UNL     1       5.613   4.193  18.309  0.00  0.00    +0.000 OA
BRANCH  24  27
ATOM     26  C   UNL     1       3.492   1.848  18.322  0.00  0.00    +0.000 C 
ATOM     27  O   UNL     1       4.062   2.785  17.403  0.00  0.00    +0.000 OA
ENDBRANCH  24  27
ENDBRANCH  20  24
ENDBRANCH   1  22
TORSDOF 4
ENDMDL
