MODEL 1
REMARK VINA RESULT:      -8.2      0.000      0.000
REMARK  Name = 
REMARK  4 active torsions:
REMARK  status: ('A' for Active; 'I' for Inactive)
REMARK    1  A    between atoms: C_1  and  C_2
REMARK    2  A    between atoms: C_8  and  O_9
REMARK    3  A    between atoms: O_9  and  C_10
REMARK    4  A    between atoms: C_16  and  C_17
REMARK                            x       y       z     vdW  Elec       q    Type
REMARK                         _______ _______ _______ _____ _____    ______ ____
ROOT
ATOM      1  C   UNL     1       0.805   9.746  19.438  0.00  0.00    +0.000 A 
ATOM      2  N   UNL     1       0.463   9.876  20.740  0.00  0.00    +0.000 NA
ATOM      3  C   UNL     1       0.823   8.877  21.575  0.00  0.00    +0.000 A 
ATOM      4  N   UNL     1       1.534   7.777  21.294  0.00  0.00    +0.000 NA
ATOM      5  C   UNL     1       1.919   7.757  20.012  0.00  0.00    +0.000 A 
ATOM      6  O   UNL     1       2.696   6.775  19.473  0.00  0.00    +0.000 OA
ATOM      7  C   UNL     1       2.914   7.087  18.160  0.00  0.00    +0.000 A 
ATOM      8  C   UNL     1       2.250   8.260  17.847  0.00  0.00    +0.000 A 
ATOM      9  C   UNL     1       1.617   8.694  19.039  0.00  0.00    +0.000 A 
ENDROOT
BRANCH   7  10
ATOM     10  C   UNL     1       3.786   6.189  17.409  0.00  0.00    +0.000 A 
ATOM     11  C   UNL     1       4.762   6.686  16.530  0.00  0.00    +0.000 A 
ATOM     12  C   UNL     1       5.554   5.819  15.774  0.00  0.00    +0.000 A 
ATOM     13  C   UNL     1       5.383   4.440  15.884  0.00  0.00    +0.000 A 
ATOM     14  C   UNL     1       4.437   3.930  16.767  0.00  0.00    +0.000 A 
ATOM     15  C   UNL     1       3.647   4.798  17.527  0.00  0.00    +0.000 A 
ENDBRANCH   7  10
BRANCH   1  16
ATOM     16  O   UNL     1       0.409  10.673  18.494  0.00  0.00    +0.000 OA
BRANCH  16  24
ATOM     17  C   UNL     1      -1.156  12.981  19.837  0.00  0.00    +0.000 C 
ATOM     18  C   UNL     1      -1.693  11.943  18.885  0.00  0.00    +0.000 A 
ATOM     19  C   UNL     1      -3.086  11.946  18.658  0.00  0.00    +0.000 A 
ATOM     20  C   UNL     1      -3.695  10.964  17.880  0.00  0.00    +0.000 A 
ATOM     21 CL   UNL     1      -5.402  10.976  17.674  0.00  0.00    +0.000 Cl
ATOM     22  C   UNL     1      -2.935   9.957  17.304  0.00  0.00    +0.000 A 
ATOM     23  C   UNL     1      -1.554   9.944  17.504  0.00  0.00    +0.000 A 
ATOM     24  C   UNL     1      -0.924  10.931  18.279  0.00  0.00    +0.000 A 
ENDBRANCH  16  24
ENDBRANCH   1  16
TORSDOF 3
ENDMDL
MODEL 2
REMARK VINA RESULT:      -8.1      5.116      7.182
REMARK  Name = 
REMARK  4 active torsions:
REMARK  status: ('A' for Active; 'I' for Inactive)
REMARK    1  A    between atoms: C_1  and  C_2
REMARK    2  A    between atoms: C_8  and  O_9
REMARK    3  A    between atoms: O_9  and  C_10
REMARK    4  A    between atoms: C_16  and  C_17
REMARK                            x       y       z     vdW  Elec       q    Type
REMARK                         _______ _______ _______ _____ _____    ______ ____
ROOT
ATOM      1  C   UNL     1       6.055   5.426  19.158  0.00  0.00    +0.000 A 
ATOM      2  N   UNL     1       7.044   5.476  20.080  0.00  0.00    +0.000 NA
ATOM      3  C   UNL     1       8.267   5.052  19.695  0.00  0.00    +0.000 A 
ATOM      4  N   UNL     1       8.657   4.632  18.484  0.00  0.00    +0.000 NA
ATOM      5  C   UNL     1       7.654   4.695  17.598  0.00  0.00    +0.000 A 
ATOM      6  O   UNL     1       7.790   4.372  16.281  0.00  0.00    +0.000 OA
ATOM      7  C   UNL     1       6.583   4.579  15.672  0.00  0.00    +0.000 A 
ATOM      8  C   UNL     1       5.661   5.008  16.610  0.00  0.00    +0.000 A 
ATOM      9  C   UNL     1       6.351   5.090  17.845  0.00  0.00    +0.000 A 
ENDROOT
BRANCH   7  10
ATOM     10  C   UNL     1       6.529   4.352  14.231  0.00  0.00    +0.000 A 
ATOM     11  C   UNL     1       5.523   3.559  13.655  0.00  0.00    +0.000 A 
ATOM     12  C   UNL     1       5.511   3.302  12.282  0.00  0.00    +0.000 A 
ATOM     13  C   UNL     1       6.505   3.834  11.463  0.00  0.00    +0.000 A 
ATOM     14  C   UNL     1       7.495   4.641  12.013  0.00  0.00    +0.000 A 
ATOM     15  C   UNL     1       7.505   4.901  13.387  0.00  0.00    +0.000 A 
ENDBRANCH   7  10
BRANCH   1  16
ATOM     16  O   UNL     1       4.753   5.758  19.481  0.00  0.00    +0.000 OA
BRANCH  16  24
ATOM     17  C   UNL     1       2.273   6.699  17.886  0.00  0.00    +0.000 C 
ATOM     18  C   UNL     1       2.545   5.319  18.425  0.00  0.00    +0.000 A 
ATOM     19  C   UNL     1       1.512   4.366  18.290  0.00  0.00    +0.000 A 
ATOM     20  C   UNL     1       1.621   3.094  18.848  0.00  0.00    +0.000 A 
ATOM     21 CL   UNL     1       0.316   1.984  18.704  0.00  0.00    +0.000 Cl
ATOM     22  C   UNL     1       2.763   2.735  19.550  0.00  0.00    +0.000 A 
ATOM     23  C   UNL     1       3.802   3.656  19.683  0.00  0.00    +0.000 A 
ATOM     24  C   UNL     1       3.710   4.940  19.120  0.00  0.00    +0.000 A 
ENDBRANCH  16  24
ENDBRANCH   1  16
TORSDOF 3
ENDMDL
MODEL 3
REMARK VINA RESULT:      -8.0      2.565      4.011
REMARK  Name = 
REMARK  4 active torsions:
REMARK  status: ('A' for Active; 'I' for Inactive)
REMARK    1  A    between atoms: C_1  and  C_2
REMARK    2  A    between atoms: C_8  and  O_9
REMARK    3  A    between atoms: O_9  and  C_10
REMARK    4  A    between atoms: C_16  and  C_17
REMARK                            x       y       z     vdW  Elec       q    Type
REMARK                         _______ _______ _______ _____ _____    ______ ____
ROOT
ATOM      1  C   UNL     1       2.210   5.913  19.886  0.00  0.00    +0.000 A 
ATOM      2  N   UNL     1       1.323   5.092  20.493  0.00  0.00    +0.000 NA
ATOM      3  C   UNL     1       1.104   3.889  19.920  0.00  0.00    +0.000 A 
ATOM      4  N   UNL     1       1.697   3.365  18.839  0.00  0.00    +0.000 NA
ATOM      5  C   UNL     1       2.627   4.190  18.343  0.00  0.00    +0.000 A 
ATOM      6  O   UNL     1       3.415   3.883  17.274  0.00  0.00    +0.000 OA
ATOM      7  C   UNL     1       4.263   4.935  17.062  0.00  0.00    +0.000 A 
ATOM      8  C   UNL     1       3.998   5.933  17.982  0.00  0.00    +0.000 A 
ATOM      9  C   UNL     1       2.953   5.452  18.809  0.00  0.00    +0.000 A 
ENDROOT
BRANCH   7  10
ATOM     10  C   UNL     1       5.244   4.780  15.992  0.00  0.00    +0.000 A 
ATOM     11  C   UNL     1       6.539   5.312  16.108  0.00  0.00    +0.000 A 
ATOM     12  C   UNL     1       7.454   5.208  15.058  0.00  0.00    +0.000 A 
ATOM     13  C   UNL     1       7.088   4.570  13.873  0.00  0.00    +0.000 A 
ATOM     14  C   UNL     1       5.818   4.016  13.751  0.00  0.00    +0.000 A 
ATOM     15  C   UNL     1       4.904   4.118  14.804  0.00  0.00    +0.000 A 
ENDBRANCH   7  10
BRANCH   1  16
ATOM     16  O   UNL     1       2.439   7.195  20.350  0.00  0.00    +0.000 OA
BRANCH  16  24
ATOM     17  C   UNL     1       2.166   8.976  17.834  0.00  0.00    +0.000 C 
ATOM     18  C   UNL     1       1.339   9.036  19.092  0.00  0.00    +0.000 A 
ATOM     19  C   UNL     1       0.403  10.089  19.191  0.00  0.00    +0.000 A 
ATOM     20  C   UNL     1      -0.334  10.296  20.355  0.00  0.00    +0.000 A 
ATOM     21 CL   UNL     1      -1.423  11.624  20.451  0.00  0.00    +0.000 Cl
ATOM     22  C   UNL     1      -0.165   9.458  21.448  0.00  0.00    +0.000 A 
ATOM     23  C   UNL     1       0.743   8.403  21.365  0.00  0.00    +0.000 A 
ATOM     24  C   UNL     1       1.489   8.176  20.197  0.00  0.00    +0.000 A 
ENDBRANCH  16  24
ENDBRANCH   1  16
TORSDOF 3
ENDMDL
MODEL 4
REMARK VINA RESULT:      -8.0      5.795      7.625
REMARK  Name = 
REMARK  4 active torsions:
REMARK  status: ('A' for Active; 'I' for Inactive)
REMARK    1  A    between atoms: C_1  and  C_2
REMARK    2  A    between atoms: C_8  and  O_9
REMARK    3  A    between atoms: O_9  and  C_10
REMARK    4  A    between atoms: C_16  and  C_17
REMARK                            x       y       z     vdW  Elec       q    Type
REMARK                         _______ _______ _______ _____ _____    ______ ____
ROOT
ATOM      1  C   UNL     1       6.428   5.060  18.429  0.00  0.00    +0.000 A 
ATOM      2  N   UNL     1       6.997   6.169  18.953  0.00  0.00    +0.000 NA
ATOM      3  C   UNL     1       7.674   6.974  18.105  0.00  0.00    +0.000 A 
ATOM      4  N   UNL     1       7.817   6.848  16.778  0.00  0.00    +0.000 NA
ATOM      5  C   UNL     1       7.153   5.782  16.313  0.00  0.00    +0.000 A 
ATOM      6  O   UNL     1       7.091   5.451  14.993  0.00  0.00    +0.000 OA
ATOM      7  C   UNL     1       6.313   4.331  14.879  0.00  0.00    +0.000 A 
ATOM      8  C   UNL     1       5.899   3.927  16.135  0.00  0.00    +0.000 A 
ATOM      9  C   UNL     1       6.433   4.864  17.056  0.00  0.00    +0.000 A 
ENDROOT
BRANCH   7  10
ATOM     10  C   UNL     1       6.063   3.842  13.526  0.00  0.00    +0.000 A 
ATOM     11  C   UNL     1       4.755   3.682  13.039  0.00  0.00    +0.000 A 
ATOM     12  C   UNL     1       4.524   3.161  11.764  0.00  0.00    +0.000 A 
ATOM     13  C   UNL     1       5.597   2.792  10.954  0.00  0.00    +0.000 A 
ATOM     14  C   UNL     1       6.899   2.967  11.411  0.00  0.00    +0.000 A 
ATOM     15  C   UNL     1       7.130   3.491  12.687  0.00  0.00    +0.000 A 
ENDBRANCH   7  10
BRANCH   1  16
ATOM     16  O   UNL     1       5.787   4.134  19.230  0.00  0.00    +0.000 OA
BRANCH  16  24
ATOM     17  C   UNL     1       3.457   6.172  19.227  0.00  0.00    +0.000 C 
ATOM     18  C   UNL     1       3.370   4.681  19.026  0.00  0.00    +0.000 A 
ATOM     19  C   UNL     1       2.075   4.125  18.934  0.00  0.00    +0.000 A 
ATOM     20  C   UNL     1       1.882   2.747  18.854  0.00  0.00    +0.000 A 
ATOM     21 CL   UNL     1       0.286   2.111  18.799  0.00  0.00    +0.000 Cl
ATOM     22  C   UNL     1       2.972   1.888  18.859  0.00  0.00    +0.000 A 
ATOM     23  C   UNL     1       4.260   2.418  18.933  0.00  0.00    +0.000 A 
ATOM     24  C   UNL     1       4.471   3.804  19.007  0.00  0.00    +0.000 A 
ENDBRANCH  16  24
ENDBRANCH   1  16
TORSDOF 3
ENDMDL
MODEL 5
REMARK VINA RESULT:      -7.9      4.057      8.102
REMARK  Name = 
REMARK  4 active torsions:
REMARK  status: ('A' for Active; 'I' for Inactive)
REMARK    1  A    between atoms: C_1  and  C_2
REMARK    2  A    between atoms: C_8  and  O_9
REMARK    3  A    between atoms: O_9  and  C_10
REMARK    4  A    between atoms: C_16  and  C_17
REMARK                            x       y       z     vdW  Elec       q    Type
REMARK                         _______ _______ _______ _____ _____    ______ ____
ROOT
ATOM      1  C   UNL     1       3.967   3.611  20.043  0.00  0.00    +0.000 A 
ATOM      2  N   UNL     1       3.407   2.494  20.561  0.00  0.00    +0.000 NA
ATOM      3  C   UNL     1       2.197   2.626  21.147  0.00  0.00    +0.000 A 
ATOM      4  N   UNL     1       1.436   3.725  21.240  0.00  0.00    +0.000 NA
ATOM      5  C   UNL     1       2.007   4.770  20.629  0.00  0.00    +0.000 A 
ATOM      6  O   UNL     1       1.424   5.998  20.531  0.00  0.00    +0.000 OA
ATOM      7  C   UNL     1       2.269   6.808  19.824  0.00  0.00    +0.000 A 
ATOM      8  C   UNL     1       3.412   6.104  19.491  0.00  0.00    +0.000 A 
ATOM      9  C   UNL     1       3.241   4.792  20.002  0.00  0.00    +0.000 A 
ENDROOT
BRANCH   7  10
ATOM     10  C   UNL     1       1.800   8.162  19.548  0.00  0.00    +0.000 A 
ATOM     11  C   UNL     1       1.107   8.906  20.518  0.00  0.00    +0.000 A 
ATOM     12  C   UNL     1       0.613  10.179  20.227  0.00  0.00    +0.000 A 
ATOM     13  C   UNL     1       0.804  10.731  18.961  0.00  0.00    +0.000 A 
ATOM     14  C   UNL     1       1.510  10.019  17.997  0.00  0.00    +0.000 A 
ATOM     15  C   UNL     1       2.007   8.745  18.289  0.00  0.00    +0.000 A 
ENDBRANCH   7  10
BRANCH   1  16
ATOM     16  O   UNL     1       5.237   3.593  19.498  0.00  0.00    +0.000 OA
BRANCH  16  24
ATOM     17  C   UNL     1       3.393   2.802  17.142  0.00  0.00    +0.000 C 
ATOM     18  C   UNL     1       4.662   3.612  17.079  0.00  0.00    +0.000 A 
ATOM     19  C   UNL     1       5.132   3.964  15.795  0.00  0.00    +0.000 A 
ATOM     20  C   UNL     1       6.349   4.619  15.623  0.00  0.00    +0.000 A 
ATOM     21 CL   UNL     1       6.908   4.980  14.038  0.00  0.00    +0.000 Cl
ATOM     22  C   UNL     1       7.127   4.947  16.724  0.00  0.00    +0.000 A 
ATOM     23  C   UNL     1       6.674   4.623  18.002  0.00  0.00    +0.000 A 
ATOM     24  C   UNL     1       5.446   3.969  18.193  0.00  0.00    +0.000 A 
ENDBRANCH  16  24
ENDBRANCH   1  16
TORSDOF 3
ENDMDL
MODEL 6
REMARK VINA RESULT:      -7.9      4.077      6.349
REMARK  Name = 
REMARK  4 active torsions:
REMARK  status: ('A' for Active; 'I' for Inactive)
REMARK    1  A    between atoms: C_1  and  C_2
REMARK    2  A    between atoms: C_8  and  O_9
REMARK    3  A    between atoms: O_9  and  C_10
REMARK    4  A    between atoms: C_16  and  C_17
REMARK                            x       y       z     vdW  Elec       q    Type
REMARK                         _______ _______ _______ _____ _____    ______ ____
ROOT
ATOM      1  C   UNL     1       5.087   4.919  18.690  0.00  0.00    +0.000 A 
ATOM      2  N   UNL     1       5.868   5.209  19.754  0.00  0.00    +0.000 NA
ATOM      3  C   UNL     1       7.205   5.193  19.561  0.00  0.00    +0.000 A 
ATOM      4  N   UNL     1       7.876   4.976  18.421  0.00  0.00    +0.000 NA
ATOM      5  C   UNL     1       7.042   4.786  17.391  0.00  0.00    +0.000 A 
ATOM      6  O   UNL     1       7.460   4.593  16.108  0.00  0.00    +0.000 OA
ATOM      7  C   UNL     1       6.349   4.463  15.321  0.00  0.00    +0.000 A 
ATOM      8  C   UNL     1       5.214   4.545  16.107  0.00  0.00    +0.000 A 
ATOM      9  C   UNL     1       5.659   4.760  17.436  0.00  0.00    +0.000 A 
ENDROOT
BRANCH   7  10
ATOM     10  C   UNL     1       6.576   4.312  13.887  0.00  0.00    +0.000 A 
ATOM     11  C   UNL     1       5.913   3.321  13.144  0.00  0.00    +0.000 A 
ATOM     12  C   UNL     1       6.178   3.147  11.784  0.00  0.00    +0.000 A 
ATOM     13  C   UNL     1       7.112   3.961  11.144  0.00  0.00    +0.000 A 
ATOM     14  C   UNL     1       7.760   4.963  11.859  0.00  0.00    +0.000 A 
ATOM     15  C   UNL     1       7.492   5.139  13.220  0.00  0.00    +0.000 A 
ENDBRANCH   7  10
BRANCH   1  16
ATOM     16  O   UNL     1       3.713   4.828  18.809  0.00  0.00    +0.000 OA
BRANCH  16  24
ATOM     17  C   UNL     1       2.011   4.510  21.374  0.00  0.00    +0.000 C 
ATOM     18  C   UNL     1       2.175   5.749  20.532  0.00  0.00    +0.000 A 
ATOM     19  C   UNL     1       1.383   6.865  20.879  0.00  0.00    +0.000 A 
ATOM     20  C   UNL     1       1.381   8.021  20.102  0.00  0.00    +0.000 A 
ATOM     21 CL   UNL     1       0.360   9.336  20.532  0.00  0.00    +0.000 Cl
ATOM     22  C   UNL     1       2.169   8.099  18.963  0.00  0.00    +0.000 A 
ATOM     23  C   UNL     1       2.971   7.013  18.611  0.00  0.00    +0.000 A 
ATOM     24  C   UNL     1       2.990   5.844  19.388  0.00  0.00    +0.000 A 
ENDBRANCH  16  24
ENDBRANCH   1  16
TORSDOF 3
ENDMDL
MODEL 7
REMARK VINA RESULT:      -7.9      3.894      6.129
REMARK  Name = 
REMARK  4 active torsions:
REMARK  status: ('A' for Active; 'I' for Inactive)
REMARK    1  A    between atoms: C_1  and  C_2
REMARK    2  A    between atoms: C_8  and  O_9
REMARK    3  A    between atoms: O_9  and  C_10
REMARK    4  A    between atoms: C_16  and  C_17
REMARK                            x       y       z     vdW  Elec       q    Type
REMARK                         _______ _______ _______ _____ _____    ______ ____
ROOT
ATOM      1  C   UNL     1       4.976   5.121  18.584  0.00  0.00    +0.000 A 
ATOM      2  N   UNL     1       5.715   5.384  19.686  0.00  0.00    +0.000 NA
ATOM      3  C   UNL     1       7.057   5.289  19.566  0.00  0.00    +0.000 A 
ATOM      4  N   UNL     1       7.774   5.017  18.468  0.00  0.00    +0.000 NA
ATOM      5  C   UNL     1       6.987   4.859  17.396  0.00  0.00    +0.000 A 
ATOM      6  O   UNL     1       7.462   4.623  16.141  0.00  0.00    +0.000 OA
ATOM      7  C   UNL     1       6.390   4.544  15.295  0.00  0.00    +0.000 A 
ATOM      8  C   UNL     1       5.220   4.701  16.017  0.00  0.00    +0.000 A 
ATOM      9  C   UNL     1       5.605   4.912  17.366  0.00  0.00    +0.000 A 
ENDROOT
BRANCH   7  10
ATOM     10  C   UNL     1       6.685   4.357  13.878  0.00  0.00    +0.000 A 
ATOM     11  C   UNL     1       7.554   5.223  13.194  0.00  0.00    +0.000 A 
ATOM     12  C   UNL     1       7.787   5.071  11.825  0.00  0.00    +0.000 A 
ATOM     13  C   UNL     1       7.155   4.050  11.118  0.00  0.00    +0.000 A 
ATOM     14  C   UNL     1       6.311   3.168  11.784  0.00  0.00    +0.000 A 
ATOM     15  C   UNL     1       6.080   3.319  13.155  0.00  0.00    +0.000 A 
ENDBRANCH   7  10
BRANCH   1  16
ATOM     16  O   UNL     1       3.595   5.110  18.630  0.00  0.00    +0.000 OA
BRANCH  16  24
ATOM     17  C   UNL     1       1.953   4.862  21.241  0.00  0.00    +0.000 C 
ATOM     18  C   UNL     1       2.115   6.084  20.375  0.00  0.00    +0.000 A 
ATOM     19  C   UNL     1       1.351   7.219  20.722  0.00  0.00    +0.000 A 
ATOM     20  C   UNL     1       1.348   8.362  19.926  0.00  0.00    +0.000 A 
ATOM     21 CL   UNL     1       0.359   9.701  20.359  0.00  0.00    +0.000 Cl
ATOM     22  C   UNL     1       2.109   8.408  18.767  0.00  0.00    +0.000 A 
ATOM     23  C   UNL     1       2.884   7.304  18.414  0.00  0.00    +0.000 A 
ATOM     24  C   UNL     1       2.903   6.147  19.209  0.00  0.00    +0.000 A 
ENDBRANCH  16  24
ENDBRANCH   1  16
TORSDOF 3
ENDMDL
MODEL 8
REMARK VINA RESULT:      -7.8      4.150      8.247
REMARK  Name = 
REMARK  4 active torsions:
REMARK  status: ('A' for Active; 'I' for Inactive)
REMARK    1  A    between atoms: C_1  and  C_2
REMARK    2  A    between atoms: C_8  and  O_9
REMARK    3  A    between atoms: O_9  and  C_10
REMARK    4  A    between atoms: C_16  and  C_17
REMARK                            x       y       z     vdW  Elec       q    Type
REMARK                         _______ _______ _______ _____ _____    ______ ____
ROOT
ATOM      1  C   UNL     1       4.197   3.636  19.475  0.00  0.00    +0.000 A 
ATOM      2  N   UNL     1       3.642   2.403  19.513  0.00  0.00    +0.000 NA
ATOM      3  C   UNL     1       2.316   2.331  19.765  0.00  0.00    +0.000 A 
ATOM      4  N   UNL     1       1.448   3.338  19.933  0.00  0.00    +0.000 NA
ATOM      5  C   UNL     1       2.045   4.528  19.791  0.00  0.00    +0.000 A 
ATOM      6  O   UNL     1       1.382   5.717  19.863  0.00  0.00    +0.000 OA
ATOM      7  C   UNL     1       2.291   6.716  19.646  0.00  0.00    +0.000 A 
ATOM      8  C   UNL     1       3.547   6.166  19.462  0.00  0.00    +0.000 A 
ATOM      9  C   UNL     1       3.387   4.760  19.548  0.00  0.00    +0.000 A 
ENDROOT
BRANCH   7  10
ATOM     10  C   UNL     1       1.770   8.079  19.617  0.00  0.00    +0.000 A 
ATOM     11  C   UNL     1       1.174   8.657  20.750  0.00  0.00    +0.000 A 
ATOM     12  C   UNL     1       0.628   9.942  20.697  0.00  0.00    +0.000 A 
ATOM     13  C   UNL     1       0.670  10.670  19.509  0.00  0.00    +0.000 A 
ATOM     14  C   UNL     1       1.279  10.123  18.384  0.00  0.00    +0.000 A 
ATOM     15  C   UNL     1       1.827   8.838  18.438  0.00  0.00    +0.000 A 
ENDBRANCH   7  10
BRANCH   1  16
ATOM     16  O   UNL     1       5.557   3.808  19.307  0.00  0.00    +0.000 OA
BRANCH  16  24
ATOM     17  C   UNL     1       7.762   5.926  18.827  0.00  0.00    +0.000 C 
ATOM     18  C   UNL     1       7.057   5.087  17.792  0.00  0.00    +0.000 A 
ATOM     19  C   UNL     1       7.348   5.366  16.439  0.00  0.00    +0.000 A 
ATOM     20  C   UNL     1       6.673   4.722  15.405  0.00  0.00    +0.000 A 
ATOM     21 CL   UNL     1       7.021   5.132  13.772  0.00  0.00    +0.000 Cl
ATOM     22  C   UNL     1       5.695   3.780  15.690  0.00  0.00    +0.000 A 
ATOM     23  C   UNL     1       5.403   3.478  17.020  0.00  0.00    +0.000 A 
ATOM     24  C   UNL     1       6.080   4.113  18.073  0.00  0.00    +0.000 A 
ENDBRANCH  16  24
ENDBRANCH   1  16
TORSDOF 3
ENDMDL
MODEL 9
REMARK VINA RESULT:      -7.8      6.837      8.930
REMARK  Name = 
REMARK  4 active torsions:
REMARK  status: ('A' for Active; 'I' for Inactive)
REMARK    1  A    between atoms: C_1  and  C_2
REMARK    2  A    between atoms: C_8  and  O_9
REMARK    3  A    between atoms: O_9  and  C_10
REMARK    4  A    between atoms: C_16  and  C_17
REMARK                            x       y       z     vdW  Elec       q    Type
REMARK                         _______ _______ _______ _____ _____    ______ ____
ROOT
ATOM      1  C   UNL     1       6.364   6.042  16.179  0.00  0.00    +0.000 A 
ATOM      2  N   UNL     1       7.595   6.450  16.563  0.00  0.00    +0.000 NA
ATOM      3  C   UNL     1       7.862   6.444  17.887  0.00  0.00    +0.000 A 
ATOM      4  N   UNL     1       7.076   6.029  18.890  0.00  0.00    +0.000 NA
ATOM      5  C   UNL     1       5.911   5.553  18.433  0.00  0.00    +0.000 A 
ATOM      6  O   UNL     1       4.947   5.021  19.237  0.00  0.00    +0.000 OA
ATOM      7  C   UNL     1       3.914   4.613  18.439  0.00  0.00    +0.000 A 
ATOM      8  C   UNL     1       4.205   4.911  17.120  0.00  0.00    +0.000 A 
ATOM      9  C   UNL     1       5.491   5.508  17.116  0.00  0.00    +0.000 A 
ENDROOT
BRANCH   7  10
ATOM     10  C   UNL     1       2.796   3.950  19.102  0.00  0.00    +0.000 A 
ATOM     11  C   UNL     1       1.823   3.250  18.368  0.00  0.00    +0.000 A 
ATOM     12  C   UNL     1       0.727   2.666  19.006  0.00  0.00    +0.000 A 
ATOM     13  C   UNL     1       0.584   2.772  20.389  0.00  0.00    +0.000 A 
ATOM     14  C   UNL     1       1.551   3.440  21.134  0.00  0.00    +0.000 A 
ATOM     15  C   UNL     1       2.650   4.022  20.495  0.00  0.00    +0.000 A 
ENDBRANCH   7  10
BRANCH   1  16
ATOM     16  O   UNL     1       5.969   6.092  14.856  0.00  0.00    +0.000 OA
BRANCH  16  24
ATOM     17  C   UNL     1       8.467   5.912  13.037  0.00  0.00    +0.000 C 
ATOM     18  C   UNL     1       7.331   4.926  13.133  0.00  0.00    +0.000 A 
ATOM     19  C   UNL     1       7.341   3.851  12.218  0.00  0.00    +0.000 A 
ATOM     20  C   UNL     1       6.284   2.945  12.153  0.00  0.00    +0.000 A 
ATOM     21 CL   UNL     1       6.312   1.683  10.986  0.00  0.00    +0.000 Cl
ATOM     22  C   UNL     1       5.193   3.083  12.999  0.00  0.00    +0.000 A 
ATOM     23  C   UNL     1       5.171   4.129  13.921  0.00  0.00    +0.000 A 
ATOM     24  C   UNL     1       6.232   5.045  14.005  0.00  0.00    +0.000 A 
ENDBRANCH  16  24
ENDBRANCH   1  16
TORSDOF 3
ENDMDL
