MODEL 1
REMARK VINA RESULT:      -7.8      0.000      0.000
REMARK  Name = 
REMARK  10 active torsions:
REMARK  status: ('A' for Active; 'I' for Inactive)
REMARK    1  A    between atoms: C_1  and  O_2
REMARK    2  A    between atoms: O_2  and  C_3
REMARK    3  A    between atoms: C_6  and  C_7
REMARK    4  A    between atoms: C_7  and  C_8
REMARK    5  A    between atoms: C_7  and  N_9
REMARK    6  A    between atoms: C_10  and  C_12
REMARK    7  A    between atoms: C_12  and  C_13
REMARK    8  A    between atoms: C_16  and  C_17
REMARK    9  A    between atoms: C_17  and  C_18
REMARK   10  A    between atoms: C_17  and  C_19
REMARK                            x       y       z     vdW  Elec       q    Type
REMARK                         _______ _______ _______ _____ _____    ______ ____
ROOT
ATOM      1  N   UNL     1       5.455   6.407  17.910  0.00  0.00    +0.000 N 
ATOM      2  C   UNL     1       4.633   7.145  17.094  0.00  0.00    +0.000 C 
ATOM      3  O   UNL     1       4.945   7.478  15.953  0.00  0.00    +0.000 OA
ATOM      4  H   UNL     1       5.124   6.039  18.794  0.00  0.00    +0.000 HD
ENDROOT
BRANCH   1   5
ATOM      5  C   UNL     1       6.748   5.912  17.458  0.00  0.00    +0.000 C 
ATOM      6  C   UNL     1       7.770   7.047  17.395  0.00  0.00    +0.000 C 
BRANCH   5  10
ATOM      7  C   UNL     1       6.468   3.973  13.639  0.00  0.00    +0.000 A 
ATOM      8  C   UNL     1       5.619   3.581  14.668  0.00  0.00    +0.000 A 
ATOM      9  C   UNL     1       5.701   4.215  15.909  0.00  0.00    +0.000 A 
ATOM     10  C   UNL     1       6.628   5.241  16.095  0.00  0.00    +0.000 A 
ATOM     11  N   UNL     1       7.467   5.646  15.104  0.00  0.00    +0.000 NA
ATOM     12  C   UNL     1       7.361   5.003  13.911  0.00  0.00    +0.000 A 
BRANCH   7  14
ATOM     13  C   UNL     1       5.298   2.901  11.875  0.00  0.00    +0.000 C 
ATOM     14  O   UNL     1       6.512   3.444  12.381  0.00  0.00    +0.000 OA
ENDBRANCH   7  14
ENDBRANCH   5  10
ENDBRANCH   1   5
BRANCH   2  15
ATOM     15  C   UNL     1       3.311   7.544  17.722  0.00  0.00    +0.000 C 
BRANCH  15  16
ATOM     16  C   UNL     1       2.599   6.412  18.421  0.00  0.00    +0.000 A 
ATOM     17  C   UNL     1       2.227   5.263  17.714  0.00  0.00    +0.000 A 
ATOM     18  C   UNL     1       1.649   4.173  18.375  0.00  0.00    +0.000 A 
ATOM     19  C   UNL     1       1.434   4.201  19.760  0.00  0.00    +0.000 A 
ATOM     20  C   UNL     1       1.776   5.369  20.460  0.00  0.00    +0.000 A 
ATOM     21  C   UNL     1       2.354   6.459  19.800  0.00  0.00    +0.000 A 
BRANCH  19  22
ATOM     22  C   UNL     1       0.893   2.971  20.471  0.00  0.00    +0.000 C 
ATOM     23  C   UNL     1       0.836   1.762  19.531  0.00  0.00    +0.000 C 
ATOM     24  C   UNL     1       1.684   2.628  21.734  0.00  0.00    +0.000 C 
ENDBRANCH  19  22
ENDBRANCH  15  16
ENDBRANCH   2  15
TORSDOF 6
ENDMDL
MODEL 2
REMARK VINA RESULT:      -7.8      2.520      7.472
REMARK  Name = 
REMARK  10 active torsions:
REMARK  status: ('A' for Active; 'I' for Inactive)
REMARK    1  A    between atoms: C_1  and  O_2
REMARK    2  A    between atoms: O_2  and  C_3
REMARK    3  A    between atoms: C_6  and  C_7
REMARK    4  A    between atoms: C_7  and  C_8
REMARK    5  A    between atoms: C_7  and  N_9
REMARK    6  A    between atoms: C_10  and  C_12
REMARK    7  A    between atoms: C_12  and  C_13
REMARK    8  A    between atoms: C_16  and  C_17
REMARK    9  A    between atoms: C_17  and  C_18
REMARK   10  A    between atoms: C_17  and  C_19
REMARK                            x       y       z     vdW  Elec       q    Type
REMARK                         _______ _______ _______ _____ _____    ______ ____
ROOT
ATOM      1  N   UNL     1       4.658   5.887  17.660  0.00  0.00    +0.000 N 
ATOM      2  C   UNL     1       5.881   5.298  17.871  0.00  0.00    +0.000 C 
ATOM      3  O   UNL     1       6.132   4.613  18.860  0.00  0.00    +0.000 OA
ATOM      4  H   UNL     1       4.438   6.338  16.780  0.00  0.00    +0.000 HD
ENDROOT
BRANCH   1   5
ATOM      5  C   UNL     1       3.541   5.694  18.575  0.00  0.00    +0.000 C 
ATOM      6  C   UNL     1       2.618   4.584  18.074  0.00  0.00    +0.000 C 
BRANCH   5  10
ATOM      7  C   UNL     1       1.388   9.367  19.112  0.00  0.00    +0.000 A 
ATOM      8  C   UNL     1       2.003   9.108  17.893  0.00  0.00    +0.000 A 
ATOM      9  C   UNL     1       2.697   7.911  17.710  0.00  0.00    +0.000 A 
ATOM     10  C   UNL     1       2.755   6.987  18.754  0.00  0.00    +0.000 A 
ATOM     11  N   UNL     1       2.159   7.214  19.955  0.00  0.00    +0.000 NA
ATOM     12  C   UNL     1       1.495   8.392  20.098  0.00  0.00    +0.000 A 
BRANCH   7  14
ATOM     13  C   UNL     1       1.183  11.725  18.935  0.00  0.00    +0.000 C 
ATOM     14  O   UNL     1       0.686  10.491  19.442  0.00  0.00    +0.000 OA
ENDBRANCH   7  14
ENDBRANCH   5  10
ENDBRANCH   1   5
BRANCH   2  15
ATOM     15  C   UNL     1       6.914   5.583  16.797  0.00  0.00    +0.000 C 
BRANCH  15  16
ATOM     16  C   UNL     1       6.641   4.887  15.486  0.00  0.00    +0.000 A 
ATOM     17  C   UNL     1       5.535   4.041  15.348  0.00  0.00    +0.000 A 
ATOM     18  C   UNL     1       5.225   3.465  14.110  0.00  0.00    +0.000 A 
ATOM     19  C   UNL     1       6.009   3.727  12.978  0.00  0.00    +0.000 A 
ATOM     20  C   UNL     1       7.137   4.548  13.128  0.00  0.00    +0.000 A 
ATOM     21  C   UNL     1       7.447   5.124  14.365  0.00  0.00    +0.000 A 
BRANCH  19  22
ATOM     22  C   UNL     1       5.600   3.169  11.624  0.00  0.00    +0.000 C 
ATOM     23  C   UNL     1       6.055   1.714  11.459  0.00  0.00    +0.000 C 
ATOM     24  C   UNL     1       4.097   3.290  11.369  0.00  0.00    +0.000 C 
ENDBRANCH  19  22
ENDBRANCH  15  16
ENDBRANCH   2  15
TORSDOF 6
ENDMDL
MODEL 3
REMARK VINA RESULT:      -7.7      2.618      7.529
REMARK  Name = 
REMARK  10 active torsions:
REMARK  status: ('A' for Active; 'I' for Inactive)
REMARK    1  A    between atoms: C_1  and  O_2
REMARK    2  A    between atoms: O_2  and  C_3
REMARK    3  A    between atoms: C_6  and  C_7
REMARK    4  A    between atoms: C_7  and  C_8
REMARK    5  A    between atoms: C_7  and  N_9
REMARK    6  A    between atoms: C_10  and  C_12
REMARK    7  A    between atoms: C_12  and  C_13
REMARK    8  A    between atoms: C_16  and  C_17
REMARK    9  A    between atoms: C_17  and  C_18
REMARK   10  A    between atoms: C_17  and  C_19
REMARK                            x       y       z     vdW  Elec       q    Type
REMARK                         _______ _______ _______ _____ _____    ______ ____
ROOT
ATOM      1  N   UNL     1       4.442   5.601  18.593  0.00  0.00    +0.000 N 
ATOM      2  C   UNL     1       5.375   4.601  18.714  0.00  0.00    +0.000 C 
ATOM      3  O   UNL     1       5.227   3.632  19.454  0.00  0.00    +0.000 OA
ATOM      4  H   UNL     1       4.531   6.320  17.884  0.00  0.00    +0.000 HD
ENDROOT
BRANCH   1   5
ATOM      5  C   UNL     1       3.169   5.557  19.299  0.00  0.00    +0.000 C 
ATOM      6  C   UNL     1       2.265   4.471  18.719  0.00  0.00    +0.000 C 
BRANCH   5  10
ATOM      7  C   UNL     1       1.255   9.396  19.160  0.00  0.00    +0.000 A 
ATOM      8  C   UNL     1       1.859   8.892  18.014  0.00  0.00    +0.000 A 
ATOM      9  C   UNL     1       2.476   7.641  18.052  0.00  0.00    +0.000 A 
ATOM     10  C   UNL     1       2.467   6.908  19.240  0.00  0.00    +0.000 A 
ATOM     11  N   UNL     1       1.880   7.376  20.374  0.00  0.00    +0.000 NA
ATOM     12  C   UNL     1       1.293   8.601  20.300  0.00  0.00    +0.000 A 
BRANCH   7  14
ATOM     13  C   UNL     1      -0.628  10.602  19.956  0.00  0.00    +0.000 C 
ATOM     14  O   UNL     1       0.625  10.601  19.280  0.00  0.00    +0.000 OA
ENDBRANCH   7  14
ENDBRANCH   5  10
ENDBRANCH   1   5
BRANCH   2  15
ATOM     15  C   UNL     1       6.626   4.799  17.878  0.00  0.00    +0.000 C 
BRANCH  15  16
ATOM     16  C   UNL     1       6.410   4.602  16.397  0.00  0.00    +0.000 A 
ATOM     17  C   UNL     1       7.337   5.097  15.472  0.00  0.00    +0.000 A 
ATOM     18  C   UNL     1       7.189   4.839  14.104  0.00  0.00    +0.000 A 
ATOM     19  C   UNL     1       6.116   4.074  13.628  0.00  0.00    +0.000 A 
ATOM     20  C   UNL     1       5.170   3.609  14.554  0.00  0.00    +0.000 A 
ATOM     21  C   UNL     1       5.317   3.866  15.922  0.00  0.00    +0.000 A 
BRANCH  19  22
ATOM     22  C   UNL     1       6.027   3.726  12.150  0.00  0.00    +0.000 C 
ATOM     23  C   UNL     1       7.128   2.741  11.740  0.00  0.00    +0.000 C 
ATOM     24  C   UNL     1       4.653   3.182  11.757  0.00  0.00    +0.000 C 
ENDBRANCH  19  22
ENDBRANCH  15  16
ENDBRANCH   2  15
TORSDOF 6
ENDMDL
MODEL 4
REMARK VINA RESULT:      -7.4      2.428      3.776
REMARK  Name = 
REMARK  10 active torsions:
REMARK  status: ('A' for Active; 'I' for Inactive)
REMARK    1  A    between atoms: C_1  and  O_2
REMARK    2  A    between atoms: O_2  and  C_3
REMARK    3  A    between atoms: C_6  and  C_7
REMARK    4  A    between atoms: C_7  and  C_8
REMARK    5  A    between atoms: C_7  and  N_9
REMARK    6  A    between atoms: C_10  and  C_12
REMARK    7  A    between atoms: C_12  and  C_13
REMARK    8  A    between atoms: C_16  and  C_17
REMARK    9  A    between atoms: C_17  and  C_18
REMARK   10  A    between atoms: C_17  and  C_19
REMARK                            x       y       z     vdW  Elec       q    Type
REMARK                         _______ _______ _______ _____ _____    ______ ____
ROOT
ATOM      1  N   UNL     1       4.816   5.590  17.475  0.00  0.00    +0.000 N 
ATOM      2  C   UNL     1       4.431   5.494  18.790  0.00  0.00    +0.000 C 
ATOM      3  O   UNL     1       5.232   5.389  19.716  0.00  0.00    +0.000 OA
ATOM      4  H   UNL     1       4.145   5.803  16.745  0.00  0.00    +0.000 HD
ENDROOT
BRANCH   1   5
ATOM      5  C   UNL     1       6.218   5.631  17.083  0.00  0.00    +0.000 C 
ATOM      6  C   UNL     1       6.778   7.046  17.222  0.00  0.00    +0.000 C 
BRANCH   5  10
ATOM      7  C   UNL     1       6.769   4.179  13.082  0.00  0.00    +0.000 A 
ATOM      8  C   UNL     1       5.631   3.813  13.790  0.00  0.00    +0.000 A 
ATOM      9  C   UNL     1       5.443   4.290  15.088  0.00  0.00    +0.000 A 
ATOM     10  C   UNL     1       6.398   5.136  15.653  0.00  0.00    +0.000 A 
ATOM     11  N   UNL     1       7.519   5.512  14.980  0.00  0.00    +0.000 NA
ATOM     12  C   UNL     1       7.670   5.025  13.720  0.00  0.00    +0.000 A 
BRANCH   7  14
ATOM     13  C   UNL     1       6.811   2.435  11.473  0.00  0.00    +0.000 C 
ATOM     14  O   UNL     1       7.095   3.788  11.815  0.00  0.00    +0.000 OA
ENDBRANCH   7  14
ENDBRANCH   5  10
ENDBRANCH   1   5
BRANCH   2  15
ATOM     15  C   UNL     1       2.930   5.499  19.011  0.00  0.00    +0.000 C 
BRANCH  15  16
ATOM     16  C   UNL     1       2.347   6.876  19.219  0.00  0.00    +0.000 A 
ATOM     17  C   UNL     1       2.189   7.751  18.138  0.00  0.00    +0.000 A 
ATOM     18  C   UNL     1       1.566   8.992  18.308  0.00  0.00    +0.000 A 
ATOM     19  C   UNL     1       1.079   9.388  19.562  0.00  0.00    +0.000 A 
ATOM     20  C   UNL     1       1.272   8.524  20.651  0.00  0.00    +0.000 A 
ATOM     21  C   UNL     1       1.894   7.282  20.481  0.00  0.00    +0.000 A 
BRANCH  19  22
ATOM     22  C   UNL     1       0.322  10.699  19.705  0.00  0.00    +0.000 C 
ATOM     23  C   UNL     1      -0.580  10.958  18.493  0.00  0.00    +0.000 C 
ATOM     24  C   UNL     1      -0.491  10.768  20.999  0.00  0.00    +0.000 C 
ENDBRANCH  19  22
ENDBRANCH  15  16
ENDBRANCH   2  15
TORSDOF 6
ENDMDL
MODEL 5
REMARK VINA RESULT:      -7.4      2.098      3.882
REMARK  Name = 
REMARK  10 active torsions:
REMARK  status: ('A' for Active; 'I' for Inactive)
REMARK    1  A    between atoms: C_1  and  O_2
REMARK    2  A    between atoms: O_2  and  C_3
REMARK    3  A    between atoms: C_6  and  C_7
REMARK    4  A    between atoms: C_7  and  C_8
REMARK    5  A    between atoms: C_7  and  N_9
REMARK    6  A    between atoms: C_10  and  C_12
REMARK    7  A    between atoms: C_12  and  C_13
REMARK    8  A    between atoms: C_16  and  C_17
REMARK    9  A    between atoms: C_17  and  C_18
REMARK   10  A    between atoms: C_17  and  C_19
REMARK                            x       y       z     vdW  Elec       q    Type
REMARK                         _______ _______ _______ _____ _____    ______ ____
ROOT
ATOM      1  N   UNL     1       5.205   5.868  18.137  0.00  0.00    +0.000 N 
ATOM      2  C   UNL     1       4.910   4.947  19.112  0.00  0.00    +0.000 C 
ATOM      3  O   UNL     1       5.708   4.092  19.488  0.00  0.00    +0.000 OA
ATOM      4  H   UNL     1       4.577   6.639  17.936  0.00  0.00    +0.000 HD
ENDROOT
BRANCH   1   5
ATOM      5  C   UNL     1       6.518   5.937  17.512  0.00  0.00    +0.000 C 
ATOM      6  C   UNL     1       7.022   7.379  17.468  0.00  0.00    +0.000 C 
BRANCH   5  10
ATOM      7  C   UNL     1       6.456   4.227  13.576  0.00  0.00    +0.000 A 
ATOM      8  C   UNL     1       5.348   4.082  14.401  0.00  0.00    +0.000 A 
ATOM      9  C   UNL     1       5.359   4.644  15.679  0.00  0.00    +0.000 A 
ATOM     10  C   UNL     1       6.483   5.352  16.105  0.00  0.00    +0.000 A 
ATOM     11  N   UNL     1       7.580   5.512  15.317  0.00  0.00    +0.000 NA
ATOM     12  C   UNL     1       7.533   4.948  14.081  0.00  0.00    +0.000 A 
BRANCH   7  14
ATOM     13  C   UNL     1       5.615   2.789  11.886  0.00  0.00    +0.000 C 
ATOM     14  O   UNL     1       6.596   3.729  12.313  0.00  0.00    +0.000 OA
ENDBRANCH   7  14
ENDBRANCH   5  10
ENDBRANCH   1   5
BRANCH   2  15
ATOM     15  C   UNL     1       3.504   5.046  19.672  0.00  0.00    +0.000 C 
BRANCH  15  16
ATOM     16  C   UNL     1       2.812   6.351  19.360  0.00  0.00    +0.000 A 
ATOM     17  C   UNL     1       2.130   7.051  20.362  0.00  0.00    +0.000 A 
ATOM     18  C   UNL     1       1.565   8.304  20.101  0.00  0.00    +0.000 A 
ATOM     19  C   UNL     1       1.672   8.893  18.833  0.00  0.00    +0.000 A 
ATOM     20  C   UNL     1       2.326   8.172  17.821  0.00  0.00    +0.000 A 
ATOM     21  C   UNL     1       2.891   6.919  18.082  0.00  0.00    +0.000 A 
BRANCH  19  22
ATOM     22  C   UNL     1       1.134  10.295  18.597  0.00  0.00    +0.000 C 
ATOM     23  C   UNL     1       0.450  10.850  19.852  0.00  0.00    +0.000 C 
ATOM     24  C   UNL     1       2.212  11.262  18.106  0.00  0.00    +0.000 C 
ENDBRANCH  19  22
ENDBRANCH  15  16
ENDBRANCH   2  15
TORSDOF 6
ENDMDL
MODEL 6
REMARK VINA RESULT:      -7.3      3.864      8.455
REMARK  Name = 
REMARK  10 active torsions:
REMARK  status: ('A' for Active; 'I' for Inactive)
REMARK    1  A    between atoms: C_1  and  O_2
REMARK    2  A    between atoms: O_2  and  C_3
REMARK    3  A    between atoms: C_6  and  C_7
REMARK    4  A    between atoms: C_7  and  C_8
REMARK    5  A    between atoms: C_7  and  N_9
REMARK    6  A    between atoms: C_10  and  C_12
REMARK    7  A    between atoms: C_12  and  C_13
REMARK    8  A    between atoms: C_16  and  C_17
REMARK    9  A    between atoms: C_17  and  C_18
REMARK   10  A    between atoms: C_17  and  C_19
REMARK                            x       y       z     vdW  Elec       q    Type
REMARK                         _______ _______ _______ _____ _____    ______ ____
ROOT
ATOM      1  N   UNL     1       2.612   7.845  18.833  0.00  0.00    +0.000 N 
ATOM      2  C   UNL     1       2.634   6.563  18.341  0.00  0.00    +0.000 C 
ATOM      3  O   UNL     1       1.689   6.061  17.739  0.00  0.00    +0.000 OA
ATOM      4  H   UNL     1       3.448   8.277  19.212  0.00  0.00    +0.000 HD
ENDROOT
BRANCH   1   5
ATOM      5  C   UNL     1       1.476   8.732  18.624  0.00  0.00    +0.000 C 
ATOM      6  C   UNL     1       1.867   9.912  17.735  0.00  0.00    +0.000 C 
BRANCH   5  10
ATOM      7  C   UNL     1      -0.129  10.114  22.357  0.00  0.00    +0.000 A 
ATOM      8  C   UNL     1       0.765   9.049  22.350  0.00  0.00    +0.000 A 
ATOM      9  C   UNL     1       1.296   8.601  21.139  0.00  0.00    +0.000 A 
ATOM     10  C   UNL     1       0.929   9.238  19.953  0.00  0.00    +0.000 A 
ATOM     11  N   UNL     1       0.060  10.284  19.932  0.00  0.00    +0.000 NA
ATOM     12  C   UNL     1      -0.440  10.689  21.130  0.00  0.00    +0.000 A 
BRANCH   7  14
ATOM     13  C   UNL     1      -1.773  11.598  23.209  0.00  0.00    +0.000 C 
ATOM     14  O   UNL     1      -0.736  10.654  23.454  0.00  0.00    +0.000 OA
ENDBRANCH   7  14
ENDBRANCH   5  10
ENDBRANCH   1   5
BRANCH   2  15
ATOM     15  C   UNL     1       3.913   5.798  18.626  0.00  0.00    +0.000 C 
BRANCH  15  16
ATOM     16  C   UNL     1       4.644   5.345  17.386  0.00  0.00    +0.000 A 
ATOM     17  C   UNL     1       4.952   3.993  17.197  0.00  0.00    +0.000 A 
ATOM     18  C   UNL     1       5.548   3.555  16.008  0.00  0.00    +0.000 A 
ATOM     19  C   UNL     1       5.845   4.456  14.976  0.00  0.00    +0.000 A 
ATOM     20  C   UNL     1       5.567   5.816  15.184  0.00  0.00    +0.000 A 
ATOM     21  C   UNL     1       4.971   6.255  16.371  0.00  0.00    +0.000 A 
BRANCH  19  22
ATOM     22  C   UNL     1       6.404   3.946  13.658  0.00  0.00    +0.000 C 
ATOM     23  C   UNL     1       5.282   3.587  12.676  0.00  0.00    +0.000 C 
ATOM     24  C   UNL     1       7.380   4.931  13.014  0.00  0.00    +0.000 C 
ENDBRANCH  19  22
ENDBRANCH  15  16
ENDBRANCH   2  15
TORSDOF 6
ENDMDL
MODEL 7
REMARK VINA RESULT:      -7.3      2.505      7.402
REMARK  Name = 
REMARK  10 active torsions:
REMARK  status: ('A' for Active; 'I' for Inactive)
REMARK    1  A    between atoms: C_1  and  O_2
REMARK    2  A    between atoms: O_2  and  C_3
REMARK    3  A    between atoms: C_6  and  C_7
REMARK    4  A    between atoms: C_7  and  C_8
REMARK    5  A    between atoms: C_7  and  N_9
REMARK    6  A    between atoms: C_10  and  C_12
REMARK    7  A    between atoms: C_12  and  C_13
REMARK    8  A    between atoms: C_16  and  C_17
REMARK    9  A    between atoms: C_17  and  C_18
REMARK   10  A    between atoms: C_17  and  C_19
REMARK                            x       y       z     vdW  Elec       q    Type
REMARK                         _______ _______ _______ _____ _____    ______ ____
ROOT
ATOM      1  N   UNL     1       4.821   5.569  17.582  0.00  0.00    +0.000 N 
ATOM      2  C   UNL     1       6.067   5.034  17.801  0.00  0.00    +0.000 C 
ATOM      3  O   UNL     1       6.360   4.417  18.822  0.00  0.00    +0.000 OA
ATOM      4  H   UNL     1       4.569   5.960  16.681  0.00  0.00    +0.000 HD
ENDROOT
BRANCH   1   5
ATOM      5  C   UNL     1       3.729   5.393  18.529  0.00  0.00    +0.000 C 
ATOM      6  C   UNL     1       2.768   4.306  18.051  0.00  0.00    +0.000 C 
BRANCH   5  10
ATOM      7  C   UNL     1       1.545   9.046  19.087  0.00  0.00    +0.000 A 
ATOM      8  C   UNL     1       1.601   8.119  20.121  0.00  0.00    +0.000 A 
ATOM      9  C   UNL     1       2.317   6.933  19.947  0.00  0.00    +0.000 A 
ATOM     10  C   UNL     1       2.975   6.701  18.739  0.00  0.00    +0.000 A 
ATOM     11  N   UNL     1       2.939   7.593  17.713  0.00  0.00    +0.000 NA
ATOM     12  C   UNL     1       2.229   8.734  17.917  0.00  0.00    +0.000 A 
BRANCH   7  14
ATOM     13  C   UNL     1       0.697  10.847  20.378  0.00  0.00    +0.000 C 
ATOM     14  O   UNL     1       0.880  10.238  19.104  0.00  0.00    +0.000 OA
ENDBRANCH   7  14
ENDBRANCH   5  10
ENDBRANCH   1   5
BRANCH   2  15
ATOM     15  C   UNL     1       7.069   5.288  16.691  0.00  0.00    +0.000 C 
BRANCH  15  16
ATOM     16  C   UNL     1       6.615   4.807  15.334  0.00  0.00    +0.000 A 
ATOM     17  C   UNL     1       7.449   4.939  14.218  0.00  0.00    +0.000 A 
ATOM     18  C   UNL     1       7.071   4.412  12.977  0.00  0.00    +0.000 A 
ATOM     19  C   UNL     1       5.854   3.735  12.823  0.00  0.00    +0.000 A 
ATOM     20  C   UNL     1       5.005   3.636  13.935  0.00  0.00    +0.000 A 
ATOM     21  C   UNL     1       5.381   4.162  15.176  0.00  0.00    +0.000 A 
BRANCH  19  22
ATOM     22  C   UNL     1       5.506   3.089  11.491  0.00  0.00    +0.000 C 
ATOM     23  C   UNL     1       6.009   1.642  11.423  0.00  0.00    +0.000 C 
ATOM     24  C   UNL     1       4.010   3.148  11.183  0.00  0.00    +0.000 C 
ENDBRANCH  19  22
ENDBRANCH  15  16
ENDBRANCH   2  15
TORSDOF 6
ENDMDL
MODEL 8
REMARK VINA RESULT:      -7.3      2.676      7.410
REMARK  Name = 
REMARK  10 active torsions:
REMARK  status: ('A' for Active; 'I' for Inactive)
REMARK    1  A    between atoms: C_1  and  O_2
REMARK    2  A    between atoms: O_2  and  C_3
REMARK    3  A    between atoms: C_6  and  C_7
REMARK    4  A    between atoms: C_7  and  C_8
REMARK    5  A    between atoms: C_7  and  N_9
REMARK    6  A    between atoms: C_10  and  C_12
REMARK    7  A    between atoms: C_12  and  C_13
REMARK    8  A    between atoms: C_16  and  C_17
REMARK    9  A    between atoms: C_17  and  C_18
REMARK   10  A    between atoms: C_17  and  C_19
REMARK                            x       y       z     vdW  Elec       q    Type
REMARK                         _______ _______ _______ _____ _____    ______ ____
ROOT
ATOM      1  N   UNL     1       4.459   5.927  18.389  0.00  0.00    +0.000 N 
ATOM      2  C   UNL     1       5.640   5.383  18.831  0.00  0.00    +0.000 C 
ATOM      3  O   UNL     1       5.752   4.815  19.914  0.00  0.00    +0.000 OA
ATOM      4  H   UNL     1       4.363   6.275  17.442  0.00  0.00    +0.000 HD
ENDROOT
BRANCH   1   5
ATOM      5  C   UNL     1       3.226   5.820  19.156  0.00  0.00    +0.000 C 
ATOM      6  C   UNL     1       2.329   4.721  18.588  0.00  0.00    +0.000 C 
BRANCH   5  10
ATOM      7  C   UNL     1       1.056   9.523  19.185  0.00  0.00    +0.000 A 
ATOM      8  C   UNL     1       1.221   8.819  20.372  0.00  0.00    +0.000 A 
ATOM      9  C   UNL     1       1.934   7.618  20.369  0.00  0.00    +0.000 A 
ATOM     10  C   UNL     1       2.479   7.148  19.174  0.00  0.00    +0.000 A 
ATOM     11  N   UNL     1       2.335   7.819  18.000  0.00  0.00    +0.000 NA
ATOM     12  C   UNL     1       1.632   8.982  18.040  0.00  0.00    +0.000 A 
BRANCH   7  14
ATOM     13  C   UNL     1      -0.900  10.621  18.411  0.00  0.00    +0.000 C 
ATOM     14  O   UNL     1       0.380  10.699  19.029  0.00  0.00    +0.000 OA
ENDBRANCH   7  14
ENDBRANCH   5  10
ENDBRANCH   1   5
BRANCH   2  15
ATOM     15  C   UNL     1       6.813   5.563  17.884  0.00  0.00    +0.000 C 
BRANCH  15  16
ATOM     16  C   UNL     1       6.558   5.045  16.490  0.00  0.00    +0.000 A 
ATOM     17  C   UNL     1       7.293   5.536  15.404  0.00  0.00    +0.000 A 
ATOM     18  C   UNL     1       7.126   4.995  14.124  0.00  0.00    +0.000 A 
ATOM     19  C   UNL     1       6.224   3.946  13.898  0.00  0.00    +0.000 A 
ATOM     20  C   UNL     1       5.463   3.480  14.981  0.00  0.00    +0.000 A 
ATOM     21  C   UNL     1       5.630   4.020  16.261  0.00  0.00    +0.000 A 
BRANCH  19  22
ATOM     22  C   UNL     1       6.127   3.310  12.520  0.00  0.00    +0.000 C 
ATOM     23  C   UNL     1       4.716   3.450  11.938  0.00  0.00    +0.000 C 
ATOM     24  C   UNL     1       7.164   3.866  11.544  0.00  0.00    +0.000 C 
ENDBRANCH  19  22
ENDBRANCH  15  16
ENDBRANCH   2  15
TORSDOF 6
ENDMDL
MODEL 9
REMARK VINA RESULT:      -7.3      2.710      7.604
REMARK  Name = 
REMARK  10 active torsions:
REMARK  status: ('A' for Active; 'I' for Inactive)
REMARK    1  A    between atoms: C_1  and  O_2
REMARK    2  A    between atoms: O_2  and  C_3
REMARK    3  A    between atoms: C_6  and  C_7
REMARK    4  A    between atoms: C_7  and  C_8
REMARK    5  A    between atoms: C_7  and  N_9
REMARK    6  A    between atoms: C_10  and  C_12
REMARK    7  A    between atoms: C_12  and  C_13
REMARK    8  A    between atoms: C_16  and  C_17
REMARK    9  A    between atoms: C_17  and  C_18
REMARK   10  A    between atoms: C_17  and  C_19
REMARK                            x       y       z     vdW  Elec       q    Type
REMARK                         _______ _______ _______ _____ _____    ______ ____
ROOT
ATOM      1  N   UNL     1       4.288   6.454  18.208  0.00  0.00    +0.000 N 
ATOM      2  C   UNL     1       5.471   5.784  18.397  0.00  0.00    +0.000 C 
ATOM      3  O   UNL     1       5.659   5.006  19.329  0.00  0.00    +0.000 OA
ATOM      4  H   UNL     1       4.116   6.989  17.364  0.00  0.00    +0.000 HD
ENDROOT
BRANCH   1   5
ATOM      5  C   UNL     1       3.137   6.247  19.076  0.00  0.00    +0.000 C 
ATOM      6  C   UNL     1       2.293   5.071  18.584  0.00  0.00    +0.000 C 
BRANCH   5  10
ATOM      7  C   UNL     1       0.793   9.833  19.327  0.00  0.00    +0.000 A 
ATOM      8  C   UNL     1       1.295   9.430  18.095  0.00  0.00    +0.000 A 
ATOM      9  C   UNL     1       2.051   8.260  18.007  0.00  0.00    +0.000 A 
ATOM     10  C   UNL     1       2.283   7.506  19.158  0.00  0.00    +0.000 A 
ATOM     11  N   UNL     1       1.800   7.876  20.374  0.00  0.00    +0.000 NA
ATOM     12  C   UNL     1       1.072   9.023  20.422  0.00  0.00    +0.000 A 
BRANCH   7  14
ATOM     13  C   UNL     1      -0.780  11.411  18.509  0.00  0.00    +0.000 C 
ATOM     14  O   UNL     1       0.050  10.952  19.571  0.00  0.00    +0.000 OA
ENDBRANCH   7  14
ENDBRANCH   5  10
ENDBRANCH   1   5
BRANCH   2  15
ATOM     15  C   UNL     1       6.548   6.101  17.375  0.00  0.00    +0.000 C 
BRANCH  15  16
ATOM     16  C   UNL     1       6.354   5.408  16.048  0.00  0.00    +0.000 A 
ATOM     17  C   UNL     1       7.390   5.376  15.106  0.00  0.00    +0.000 A 
ATOM     18  C   UNL     1       7.248   4.658  13.913  0.00  0.00    +0.000 A 
ATOM     19  C   UNL     1       6.071   3.949  13.634  0.00  0.00    +0.000 A 
ATOM     20  C   UNL     1       5.022   4.014  14.564  0.00  0.00    +0.000 A 
ATOM     21  C   UNL     1       5.163   4.731  15.757  0.00  0.00    +0.000 A 
BRANCH  19  22
ATOM     22  C   UNL     1       5.975   3.100  12.376  0.00  0.00    +0.000 C 
ATOM     23  C   UNL     1       4.599   3.235  11.714  0.00  0.00    +0.000 C 
ATOM     24  C   UNL     1       7.083   3.413  11.371  0.00  0.00    +0.000 C 
ENDBRANCH  19  22
ENDBRANCH  15  16
ENDBRANCH   2  15
TORSDOF 6
ENDMDL
