MODEL 1
REMARK VINA RESULT:      -8.3      0.000      0.000
REMARK  Name = 
REMARK  3 active torsions:
REMARK  status: ('A' for Active; 'I' for Inactive)
REMARK    1  A    between atoms: C_1  and  C_2
REMARK    2  A    between atoms: C_2  and  C_3
REMARK    3  A    between atoms: C_10  and  C_11
REMARK                            x       y       z     vdW  Elec       q    Type
REMARK                         _______ _______ _______ _____ _____    ______ ____
ROOT
ATOM      1  C   UNL     1       5.892   4.722  14.016  0.00  0.00    +0.000 C 
ATOM      2  C   UNL     1       7.328   5.279  13.991  0.00  0.00    +0.000 C 
ATOM      3  O   UNL     1       8.014   5.497  13.004  0.00  0.00    +0.000 OA
ATOM      4  N   UNL     1       7.721   5.484  15.307  0.00  0.00    +0.000 N 
ATOM      5  C   UNL     1       6.723   5.115  16.193  0.00  0.00    +0.000 A 
ATOM      6  C   UNL     1       6.769   5.138  17.565  0.00  0.00    +0.000 A 
ATOM      7  C   UNL     1       5.635   4.686  18.251  0.00  0.00    +0.000 A 
ATOM      8  C   UNL     1       4.462   4.252  17.576  0.00  0.00    +0.000 A 
ATOM      9  C   UNL     1       4.467   4.268  16.165  0.00  0.00    +0.000 A 
ATOM     10  C   UNL     1       5.608   4.673  15.493  0.00  0.00    +0.000 A 
ATOM     11  H   UNL     1       8.634   5.834  15.557  0.00  0.00    +0.000 HD
ENDROOT
BRANCH   8  12
ATOM     12  C   UNL     1       3.270   3.785  18.325  0.00  0.00    +0.000 A 
ATOM     13  C   UNL     1       2.042   3.550  17.674  0.00  0.00    +0.000 A 
ATOM     14  C   UNL     1       0.906   3.133  18.374  0.00  0.00    +0.000 A 
ATOM     15  C   UNL     1       0.976   2.923  19.747  0.00  0.00    +0.000 A 
ATOM     16  C   UNL     1       2.180   3.133  20.411  0.00  0.00    +0.000 A 
ATOM     17 CL   UNL     1       2.278   2.864  22.108  0.00  0.00    +0.000 Cl
ATOM     18  C   UNL     1       3.312   3.563  19.713  0.00  0.00    +0.000 A 
ENDBRANCH   8  12
BRANCH   1  20
ATOM     19  C   UNL     1       4.992   3.412  11.987  0.00  0.00    +0.000 C 
ATOM     20  C   UNL     1       5.780   3.377  13.293  0.00  0.00    +0.000 C 
ENDBRANCH   1  20
TORSDOF 2
ENDMDL
MODEL 2
REMARK VINA RESULT:      -8.1      3.740      6.607
REMARK  Name = 
REMARK  3 active torsions:
REMARK  status: ('A' for Active; 'I' for Inactive)
REMARK    1  A    between atoms: C_1  and  C_2
REMARK    2  A    between atoms: C_2  and  C_3
REMARK    3  A    between atoms: C_10  and  C_11
REMARK                            x       y       z     vdW  Elec       q    Type
REMARK                         _______ _______ _______ _____ _____    ______ ____
ROOT
ATOM      1  C   UNL     1       3.201   3.702  18.639  0.00  0.00    +0.000 C 
ATOM      2  C   UNL     1       3.142   4.617  19.877  0.00  0.00    +0.000 C 
ATOM      3  O   UNL     1       2.447   4.468  20.869  0.00  0.00    +0.000 OA
ATOM      4  N   UNL     1       4.026   5.667  19.663  0.00  0.00    +0.000 N 
ATOM      5  C   UNL     1       4.645   5.560  18.429  0.00  0.00    +0.000 A 
ATOM      6  C   UNL     1       5.542   6.432  17.862  0.00  0.00    +0.000 A 
ATOM      7  C   UNL     1       6.014   6.121  16.581  0.00  0.00    +0.000 A 
ATOM      8  C   UNL     1       5.622   4.940  15.893  0.00  0.00    +0.000 A 
ATOM      9  C   UNL     1       4.712   4.073  16.534  0.00  0.00    +0.000 A 
ATOM     10  C   UNL     1       4.215   4.410  17.781  0.00  0.00    +0.000 A 
ATOM     11  H   UNL     1       4.159   6.413  20.329  0.00  0.00    +0.000 HD
ENDROOT
BRANCH   8  12
ATOM     12  C   UNL     1       6.142   4.629  14.539  0.00  0.00    +0.000 A 
ATOM     13  C   UNL     1       7.278   5.286  14.023  0.00  0.00    +0.000 A 
ATOM     14  C   UNL     1       7.763   5.018  12.739  0.00  0.00    +0.000 A 
ATOM     15  C   UNL     1       7.130   4.070  11.943  0.00  0.00    +0.000 A 
ATOM     16  C   UNL     1       6.016   3.397  12.435  0.00  0.00    +0.000 A 
ATOM     17 CL   UNL     1       5.235   2.213  11.460  0.00  0.00    +0.000 Cl
ATOM     18  C   UNL     1       5.524   3.674  13.713  0.00  0.00    +0.000 A 
ENDBRANCH   8  12
BRANCH   1  20
ATOM     19  C   UNL     1       0.946   2.453  18.643  0.00  0.00    +0.000 C 
ATOM     20  C   UNL     1       1.826   3.515  17.991  0.00  0.00    +0.000 C 
ENDBRANCH   1  20
TORSDOF 2
ENDMDL
MODEL 3
REMARK VINA RESULT:      -8.1      1.016      1.047
REMARK  Name = 
REMARK  3 active torsions:
REMARK  status: ('A' for Active; 'I' for Inactive)
REMARK    1  A    between atoms: C_1  and  C_2
REMARK    2  A    between atoms: C_2  and  C_3
REMARK    3  A    between atoms: C_10  and  C_11
REMARK                            x       y       z     vdW  Elec       q    Type
REMARK                         _______ _______ _______ _____ _____    ______ ____
ROOT
ATOM      1  C   UNL     1       6.007   4.675  13.628  0.00  0.00    +0.000 C 
ATOM      2  C   UNL     1       7.437   5.240  13.545  0.00  0.00    +0.000 C 
ATOM      3  O   UNL     1       8.064   5.508  12.532  0.00  0.00    +0.000 OA
ATOM      4  N   UNL     1       7.904   5.388  14.845  0.00  0.00    +0.000 N 
ATOM      5  C   UNL     1       6.960   4.974  15.769  0.00  0.00    +0.000 A 
ATOM      6  C   UNL     1       7.085   4.935  17.136  0.00  0.00    +0.000 A 
ATOM      7  C   UNL     1       5.994   4.446  17.864  0.00  0.00    +0.000 A 
ATOM      8  C   UNL     1       4.785   4.036  17.238  0.00  0.00    +0.000 A 
ATOM      9  C   UNL     1       4.709   4.116  15.832  0.00  0.00    +0.000 A 
ATOM     10  C   UNL     1       5.808   4.557  15.115  0.00  0.00    +0.000 A 
ATOM     11  H   UNL     1       8.829   5.732  15.058  0.00  0.00    +0.000 HD
ENDROOT
BRANCH   8  12
ATOM     12  C   UNL     1       3.640   3.528  18.033  0.00  0.00    +0.000 A 
ATOM     13  C   UNL     1       3.218   2.187  17.935  0.00  0.00    +0.000 A 
ATOM     14  C   UNL     1       2.125   1.704  18.661  0.00  0.00    +0.000 A 
ATOM     15  C   UNL     1       1.435   2.552  19.521  0.00  0.00    +0.000 A 
ATOM     16  C   UNL     1       1.841   3.876  19.647  0.00  0.00    +0.000 A 
ATOM     17 CL   UNL     1       0.999   4.928  20.718  0.00  0.00    +0.000 Cl
ATOM     18  C   UNL     1       2.925   4.362  18.912  0.00  0.00    +0.000 A 
ENDBRANCH   8  12
BRANCH   1  20
ATOM     19  C   UNL     1       4.747   3.357  11.805  0.00  0.00    +0.000 C 
ATOM     20  C   UNL     1       5.857   3.363  12.852  0.00  0.00    +0.000 C 
ENDBRANCH   1  20
TORSDOF 2
ENDMDL
MODEL 4
REMARK VINA RESULT:      -7.9      1.282      1.563
REMARK  Name = 
REMARK  3 active torsions:
REMARK  status: ('A' for Active; 'I' for Inactive)
REMARK    1  A    between atoms: C_1  and  C_2
REMARK    2  A    between atoms: C_2  and  C_3
REMARK    3  A    between atoms: C_10  and  C_11
REMARK                            x       y       z     vdW  Elec       q    Type
REMARK                         _______ _______ _______ _____ _____    ______ ____
ROOT
ATOM      1  C   UNL     1       5.890   4.911  14.308  0.00  0.00    +0.000 C 
ATOM      2  C   UNL     1       7.337   5.422  14.173  0.00  0.00    +0.000 C 
ATOM      3  O   UNL     1       8.007   5.470  13.153  0.00  0.00    +0.000 OA
ATOM      4  N   UNL     1       7.761   5.817  15.435  0.00  0.00    +0.000 N 
ATOM      5  C   UNL     1       6.774   5.613  16.384  0.00  0.00    +0.000 A 
ATOM      6  C   UNL     1       6.849   5.844  17.736  0.00  0.00    +0.000 A 
ATOM      7  C   UNL     1       5.720   5.531  18.501  0.00  0.00    +0.000 A 
ATOM      8  C   UNL     1       4.524   5.027  17.921  0.00  0.00    +0.000 A 
ATOM      9  C   UNL     1       4.500   4.827  16.525  0.00  0.00    +0.000 A 
ATOM     10  C   UNL     1       5.635   5.096  15.779  0.00  0.00    +0.000 A 
ATOM     11  H   UNL     1       8.686   6.178  15.613  0.00  0.00    +0.000 HD
ENDROOT
BRANCH   8  12
ATOM     12  C   UNL     1       3.337   4.710  18.754  0.00  0.00    +0.000 A 
ATOM     13  C   UNL     1       3.017   5.477  19.893  0.00  0.00    +0.000 A 
ATOM     14  C   UNL     1       1.916   5.172  20.699  0.00  0.00    +0.000 A 
ATOM     15  C   UNL     1       1.094   4.099  20.372  0.00  0.00    +0.000 A 
ATOM     16  C   UNL     1       1.379   3.337  19.245  0.00  0.00    +0.000 A 
ATOM     17 CL   UNL     1       0.359   2.014  18.827  0.00  0.00    +0.000 Cl
ATOM     18  C   UNL     1       2.488   3.633  18.446  0.00  0.00    +0.000 A 
ENDBRANCH   8  12
BRANCH   1  20
ATOM     19  C   UNL     1       5.375   3.348  12.324  0.00  0.00    +0.000 C 
ATOM     20  C   UNL     1       5.734   3.475  13.802  0.00  0.00    +0.000 C 
ENDBRANCH   1  20
TORSDOF 2
ENDMDL
MODEL 5
REMARK VINA RESULT:      -7.9      4.497      6.025
REMARK  Name = 
REMARK  3 active torsions:
REMARK  status: ('A' for Active; 'I' for Inactive)
REMARK    1  A    between atoms: C_1  and  C_2
REMARK    2  A    between atoms: C_2  and  C_3
REMARK    3  A    between atoms: C_10  and  C_11
REMARK                            x       y       z     vdW  Elec       q    Type
REMARK                         _______ _______ _______ _____ _____    ______ ____
ROOT
ATOM      1  C   UNL     1       2.610   2.911  19.251  0.00  0.00    +0.000 C 
ATOM      2  C   UNL     1       3.645   2.121  18.427  0.00  0.00    +0.000 C 
ATOM      3  O   UNL     1       3.852   0.918  18.466  0.00  0.00    +0.000 OA
ATOM      4  N   UNL     1       4.323   3.030  17.625  0.00  0.00    +0.000 N 
ATOM      5  C   UNL     1       3.869   4.321  17.833  0.00  0.00    +0.000 A 
ATOM      6  C   UNL     1       4.331   5.477  17.252  0.00  0.00    +0.000 A 
ATOM      7  C   UNL     1       3.727   6.676  17.647  0.00  0.00    +0.000 A 
ATOM      8  C   UNL     1       2.655   6.716  18.580  0.00  0.00    +0.000 A 
ATOM      9  C   UNL     1       2.211   5.495  19.130  0.00  0.00    +0.000 A 
ATOM     10  C   UNL     1       2.844   4.317  18.770  0.00  0.00    +0.000 A 
ATOM     11  H   UNL     1       5.066   2.758  16.999  0.00  0.00    +0.000 HD
ENDROOT
BRANCH   8  12
ATOM     12  C   UNL     1       2.026   8.001  18.976  0.00  0.00    +0.000 A 
ATOM     13  C   UNL     1       1.893   9.063  18.059  0.00  0.00    +0.000 A 
ATOM     14  C   UNL     1       1.323  10.286  18.428  0.00  0.00    +0.000 A 
ATOM     15  C   UNL     1       0.856  10.469  19.725  0.00  0.00    +0.000 A 
ATOM     16  C   UNL     1       0.962   9.431  20.644  0.00  0.00    +0.000 A 
ATOM     17 CL   UNL     1       0.374   9.648  22.248  0.00  0.00    +0.000 Cl
ATOM     18  C   UNL     1       1.543   8.213  20.279  0.00  0.00    +0.000 A 
ENDBRANCH   8  12
BRANCH   1  20
ATOM     19  C   UNL     1       1.498   2.721  21.569  0.00  0.00    +0.000 C 
ATOM     20  C   UNL     1       2.791   2.706  20.757  0.00  0.00    +0.000 C 
ENDBRANCH   1  20
TORSDOF 2
ENDMDL
MODEL 6
REMARK VINA RESULT:      -7.9      3.978      4.862
REMARK  Name = 
REMARK  3 active torsions:
REMARK  status: ('A' for Active; 'I' for Inactive)
REMARK    1  A    between atoms: C_1  and  C_2
REMARK    2  A    between atoms: C_2  and  C_3
REMARK    3  A    between atoms: C_10  and  C_11
REMARK                            x       y       z     vdW  Elec       q    Type
REMARK                         _______ _______ _______ _____ _____    ______ ____
ROOT
ATOM      1  C   UNL     1       6.869   5.998  17.923  0.00  0.00    +0.000 C 
ATOM      2  C   UNL     1       7.150   4.588  17.371  0.00  0.00    +0.000 C 
ATOM      3  O   UNL     1       8.241   4.102  17.118  0.00  0.00    +0.000 OA
ATOM      4  N   UNL     1       5.926   3.955  17.197  0.00  0.00    +0.000 N 
ATOM      5  C   UNL     1       4.876   4.783  17.554  0.00  0.00    +0.000 A 
ATOM      6  C   UNL     1       3.531   4.515  17.477  0.00  0.00    +0.000 A 
ATOM      7  C   UNL     1       2.653   5.530  17.873  0.00  0.00    +0.000 A 
ATOM      8  C   UNL     1       3.111   6.780  18.372  0.00  0.00    +0.000 A 
ATOM      9  C   UNL     1       4.504   6.991  18.446  0.00  0.00    +0.000 A 
ATOM     10  C   UNL     1       5.367   6.000  18.010  0.00  0.00    +0.000 A 
ATOM     11  H   UNL     1       5.842   3.018  16.831  0.00  0.00    +0.000 HD
ENDROOT
BRANCH   8  12
ATOM     12  C   UNL     1       2.159   7.837  18.793  0.00  0.00    +0.000 A 
ATOM     13  C   UNL     1       1.650   8.774  17.871  0.00  0.00    +0.000 A 
ATOM     14  C   UNL     1       0.772   9.789  18.261  0.00  0.00    +0.000 A 
ATOM     15  C   UNL     1       0.365   9.880  19.588  0.00  0.00    +0.000 A 
ATOM     16  C   UNL     1       0.840   8.959  20.515  0.00  0.00    +0.000 A 
ATOM     17 CL   UNL     1       0.332   9.060  22.156  0.00  0.00    +0.000 Cl
ATOM     18  C   UNL     1       1.729   7.952  20.127  0.00  0.00    +0.000 A 
ENDBRANCH   8  12
BRANCH   1  20
ATOM     19  C   UNL     1       7.938   8.340  17.786  0.00  0.00    +0.000 C 
ATOM     20  C   UNL     1       7.466   7.096  17.039  0.00  0.00    +0.000 C 
ENDBRANCH   1  20
TORSDOF 2
ENDMDL
MODEL 7
REMARK VINA RESULT:      -7.8      4.043      6.728
REMARK  Name = 
REMARK  3 active torsions:
REMARK  status: ('A' for Active; 'I' for Inactive)
REMARK    1  A    between atoms: C_1  and  C_2
REMARK    2  A    between atoms: C_2  and  C_3
REMARK    3  A    between atoms: C_10  and  C_11
REMARK                            x       y       z     vdW  Elec       q    Type
REMARK                         _______ _______ _______ _____ _____    ______ ____
ROOT
ATOM      1  C   UNL     1       3.026   2.724  20.051  0.00  0.00    +0.000 C 
ATOM      2  C   UNL     1       2.361   3.568  21.155  0.00  0.00    +0.000 C 
ATOM      3  O   UNL     1       1.727   3.156  22.114  0.00  0.00    +0.000 OA
ATOM      4  N   UNL     1       2.602   4.904  20.862  0.00  0.00    +0.000 N 
ATOM      5  C   UNL     1       3.330   5.040  19.693  0.00  0.00    +0.000 A 
ATOM      6  C   UNL     1       3.715   6.204  19.075  0.00  0.00    +0.000 A 
ATOM      7  C   UNL     1       4.428   6.085  17.876  0.00  0.00    +0.000 A 
ATOM      8  C   UNL     1       4.780   4.824  17.322  0.00  0.00    +0.000 A 
ATOM      9  C   UNL     1       4.372   3.662  18.012  0.00  0.00    +0.000 A 
ATOM     10  C   UNL     1       3.629   3.787  19.174  0.00  0.00    +0.000 A 
ATOM     11  H   UNL     1       2.254   5.660  21.434  0.00  0.00    +0.000 HD
ENDROOT
BRANCH   8  12
ATOM     12  C   UNL     1       5.543   4.725  16.053  0.00  0.00    +0.000 A 
ATOM     13  C   UNL     1       6.859   5.220  15.951  0.00  0.00    +0.000 A 
ATOM     14  C   UNL     1       7.579   5.154  14.754  0.00  0.00    +0.000 A 
ATOM     15  C   UNL     1       7.002   4.572  13.630  0.00  0.00    +0.000 A 
ATOM     16  C   UNL     1       5.710   4.063  13.709  0.00  0.00    +0.000 A 
ATOM     17 CL   UNL     1       4.994   3.331  12.326  0.00  0.00    +0.000 Cl
ATOM     18  C   UNL     1       4.986   4.140  14.902  0.00  0.00    +0.000 A 
ENDBRANCH   8  12
BRANCH   1  20
ATOM     19  C   UNL     1       0.784   2.490  18.799  0.00  0.00    +0.000 C 
ATOM     20  C   UNL     1       2.028   1.798  19.350  0.00  0.00    +0.000 C 
ENDBRANCH   1  20
TORSDOF 2
ENDMDL
MODEL 8
REMARK VINA RESULT:      -7.6      3.780      6.601
REMARK  Name = 
REMARK  3 active torsions:
REMARK  status: ('A' for Active; 'I' for Inactive)
REMARK    1  A    between atoms: C_1  and  C_2
REMARK    2  A    between atoms: C_2  and  C_3
REMARK    3  A    between atoms: C_10  and  C_11
REMARK                            x       y       z     vdW  Elec       q    Type
REMARK                         _______ _______ _______ _____ _____    ______ ____
ROOT
ATOM      1  C   UNL     1       3.099   3.838  18.355  0.00  0.00    +0.000 C 
ATOM      2  C   UNL     1       3.441   4.128  19.828  0.00  0.00    +0.000 C 
ATOM      3  O   UNL     1       2.686   4.062  20.785  0.00  0.00    +0.000 OA
ATOM      4  N   UNL     1       4.781   4.493  19.882  0.00  0.00    +0.000 N 
ATOM      5  C   UNL     1       5.353   4.493  18.622  0.00  0.00    +0.000 A 
ATOM      6  C   UNL     1       6.639   4.839  18.284  0.00  0.00    +0.000 A 
ATOM      7  C   UNL     1       6.980   4.786  16.928  0.00  0.00    +0.000 A 
ATOM      8  C   UNL     1       6.062   4.359  15.930  0.00  0.00    +0.000 A 
ATOM      9  C   UNL     1       4.761   3.998  16.339  0.00  0.00    +0.000 A 
ATOM     10  C   UNL     1       4.417   4.096  17.676  0.00  0.00    +0.000 A 
ATOM     11  H   UNL     1       5.243   4.747  20.742  0.00  0.00    +0.000 HD
ENDROOT
BRANCH   8  12
ATOM     12  C   UNL     1       6.451   4.303  14.499  0.00  0.00    +0.000 A 
ATOM     13  C   UNL     1       7.437   5.163  13.975  0.00  0.00    +0.000 A 
ATOM     14  C   UNL     1       7.795   5.136  12.623  0.00  0.00    +0.000 A 
ATOM     15  C   UNL     1       7.183   4.230  11.763  0.00  0.00    +0.000 A 
ATOM     16  C   UNL     1       6.218   3.361  12.258  0.00  0.00    +0.000 A 
ATOM     17 CL   UNL     1       5.465   2.229  11.202  0.00  0.00    +0.000 Cl
ATOM     18  C   UNL     1       5.851   3.397  13.607  0.00  0.00    +0.000 A 
ENDBRANCH   8  12
BRANCH   1  20
ATOM     19  C   UNL     1       2.147   6.203  17.970  0.00  0.00    +0.000 C 
ATOM     20  C   UNL     1       1.935   4.696  17.851  0.00  0.00    +0.000 C 
ENDBRANCH   1  20
TORSDOF 2
ENDMDL
MODEL 9
REMARK VINA RESULT:      -7.5      4.194      6.665
REMARK  Name = 
REMARK  3 active torsions:
REMARK  status: ('A' for Active; 'I' for Inactive)
REMARK    1  A    between atoms: C_1  and  C_2
REMARK    2  A    between atoms: C_2  and  C_3
REMARK    3  A    between atoms: C_10  and  C_11
REMARK                            x       y       z     vdW  Elec       q    Type
REMARK                         _______ _______ _______ _____ _____    ______ ____
ROOT
ATOM      1  C   UNL     1       2.672   6.713  18.164  0.00  0.00    +0.000 C 
ATOM      2  C   UNL     1       2.666   6.464  19.684  0.00  0.00    +0.000 C 
ATOM      3  O   UNL     1       1.904   6.951  20.505  0.00  0.00    +0.000 OA
ATOM      4  N   UNL     1       3.701   5.582  19.968  0.00  0.00    +0.000 N 
ATOM      5  C   UNL     1       4.394   5.234  18.821  0.00  0.00    +0.000 A 
ATOM      6  C   UNL     1       5.497   4.422  18.721  0.00  0.00    +0.000 A 
ATOM      7  C   UNL     1       6.044   4.241  17.446  0.00  0.00    +0.000 A 
ATOM      8  C   UNL     1       5.477   4.833  16.284  0.00  0.00    +0.000 A 
ATOM      9  C   UNL     1       4.334   5.643  16.447  0.00  0.00    +0.000 A 
ATOM     10  C   UNL     1       3.825   5.855  17.717  0.00  0.00    +0.000 A 
ATOM     11  H   UNL     1       3.913   5.272  20.904  0.00  0.00    +0.000 HD
ENDROOT
BRANCH   8  12
ATOM     12  C   UNL     1       6.072   4.619  14.942  0.00  0.00    +0.000 A 
ATOM     13  C   UNL     1       7.254   5.281  14.551  0.00  0.00    +0.000 A 
ATOM     14  C   UNL     1       7.809   5.105  13.280  0.00  0.00    +0.000 A 
ATOM     15  C   UNL     1       7.202   4.244  12.372  0.00  0.00    +0.000 A 
ATOM     16  C   UNL     1       6.044   3.568  12.738  0.00  0.00    +0.000 A 
ATOM     17 CL   UNL     1       5.294   2.493  11.623  0.00  0.00    +0.000 Cl
ATOM     18  C   UNL     1       5.481   3.754  14.004  0.00  0.00    +0.000 A 
ENDBRANCH   8  12
BRANCH   1  20
ATOM     19  C   UNL     1       1.486   8.968  17.771  0.00  0.00    +0.000 C 
ATOM     20  C   UNL     1       2.803   8.199  17.821  0.00  0.00    +0.000 C 
ENDBRANCH   1  20
TORSDOF 2
ENDMDL
