MODEL 1
REMARK VINA RESULT:      -7.0      0.000      0.000
REMARK  Name = 
REMARK  6 active torsions:
REMARK  status: ('A' for Active; 'I' for Inactive)
REMARK    1  A    between atoms: C_2  and  C_3
REMARK    2  A    between atoms: C_4  and  C_5
REMARK    3  A    between atoms: C_11  and  N_12
REMARK    4  A    between atoms: N_12  and  C_13
REMARK    5  A    between atoms: C_13  and  C_14
REMARK    6  A    between atoms: C_14  and  C_15
REMARK                            x       y       z     vdW  Elec       q    Type
REMARK                         _______ _______ _______ _____ _____    ______ ____
ROOT
ATOM      1  C   UNL     1       2.532   5.268  19.996  0.00  0.00    +0.000 A 
ATOM      2  C   UNL     1       2.253   6.651  19.839  0.00  0.00    +0.000 A 
ATOM      3  C   UNL     1       2.883   7.071  18.644  0.00  0.00    +0.000 A 
ATOM      4  N   UNL     1       3.551   5.927  18.048  0.00  0.00    +0.000 N 
ATOM      5  C   UNL     1       4.357   5.649  16.871  0.00  0.00    +0.000 A 
ATOM      6 CL   UNL     1       4.974   6.703  15.632  0.00  0.00    +0.000 Cl
ATOM      7  C   UNL     1       4.775   4.386  16.616  0.00  0.00    +0.000 A 
ATOM      8  C   UNL     1       4.434   3.306  17.487  0.00  0.00    +0.000 A 
ATOM      9  C   UNL     1       3.716   3.525  18.587  0.00  0.00    +0.000 A 
ATOM     10  C   UNL     1       3.256   4.840  18.910  0.00  0.00    +0.000 A 
ENDROOT
BRANCH   2  11
ATOM     11  C   UNL     1       1.454   7.487  20.774  0.00  0.00    +0.000 A 
ATOM     12  C   UNL     1       0.052   7.488  20.774  0.00  0.00    +0.000 A 
ATOM     13  C   UNL     1      -0.676   8.330  21.631  0.00  0.00    +0.000 A 
ATOM     14  C   UNL     1      -0.017   9.225  22.472  0.00  0.00    +0.000 A 
ATOM     15  C   UNL     1       1.370   9.263  22.474  0.00  0.00    +0.000 A 
ATOM     16  C   UNL     1       2.095   8.389  21.651  0.00  0.00    +0.000 A 
ENDBRANCH   2  11
BRANCH   1  18
ATOM     17  N   UNL     1       1.862   3.697  21.949  0.00  0.00    +0.000 NA
ATOM     18  C   UNL     1       2.138   4.394  21.067  0.00  0.00    +0.000 C 
ENDBRANCH   1  18
BRANCH   3  19
ATOM     19  N   UNL     1       2.830   8.352  18.141  0.00  0.00    +0.000 N 
ATOM     20  H   UNL     1       3.673   8.920  18.069  0.00  0.00    +0.000 HD
BRANCH  19  21
ATOM     21  C   UNL     1       1.596   9.018  17.831  0.00  0.00    +0.000 C 
BRANCH  21  22
ATOM     22  C   UNL     1       1.226  10.300  18.551  0.00  0.00    +0.000 C 
BRANCH  22  23
ATOM     23  C   UNL     1      -0.242  10.624  18.527  0.00  0.00    +0.000 A 
ATOM     24  C   UNL     1      -1.126   9.994  17.636  0.00  0.00    +0.000 A 
ATOM     25  C   UNL     1      -2.481  10.323  17.637  0.00  0.00    +0.000 A 
ATOM     26  C   UNL     1      -2.956  11.266  18.544  0.00  0.00    +0.000 A 
ATOM     27 CL   UNL     1      -4.624  11.683  18.552  0.00  0.00    +0.000 Cl
ATOM     28  C   UNL     1      -2.093  11.876  19.451  0.00  0.00    +0.000 A 
ATOM     29  C   UNL     1      -0.738  11.554  19.445  0.00  0.00    +0.000 A 
ENDBRANCH  22  23
ENDBRANCH  21  22
ENDBRANCH  19  21
ENDBRANCH   3  19
TORSDOF 6
ENDMDL
MODEL 2
REMARK VINA RESULT:      -6.6      0.864      1.038
REMARK  Name = 
REMARK  6 active torsions:
REMARK  status: ('A' for Active; 'I' for Inactive)
REMARK    1  A    between atoms: C_2  and  C_3
REMARK    2  A    between atoms: C_4  and  C_5
REMARK    3  A    between atoms: C_11  and  N_12
REMARK    4  A    between atoms: N_12  and  C_13
REMARK    5  A    between atoms: C_13  and  C_14
REMARK    6  A    between atoms: C_14  and  C_15
REMARK                            x       y       z     vdW  Elec       q    Type
REMARK                         _______ _______ _______ _____ _____    ______ ____
ROOT
ATOM      1  C   UNL     1       2.494   5.205  19.990  0.00  0.00    +0.000 A 
ATOM      2  C   UNL     1       2.259   6.596  19.832  0.00  0.00    +0.000 A 
ATOM      3  C   UNL     1       2.920   6.998  18.647  0.00  0.00    +0.000 A 
ATOM      4  N   UNL     1       3.562   5.835  18.059  0.00  0.00    +0.000 N 
ATOM      5  C   UNL     1       4.377   5.534  16.894  0.00  0.00    +0.000 A 
ATOM      6 CL   UNL     1       5.045   6.571  15.667  0.00  0.00    +0.000 Cl
ATOM      7  C   UNL     1       4.760   4.259  16.643  0.00  0.00    +0.000 A 
ATOM      8  C   UNL     1       4.373   3.189  17.506  0.00  0.00    +0.000 A 
ATOM      9  C   UNL     1       3.645   3.428  18.596  0.00  0.00    +0.000 A 
ATOM     10  C   UNL     1       3.221   4.757  18.915  0.00  0.00    +0.000 A 
ENDROOT
BRANCH   2  11
ATOM     11  C   UNL     1       1.472   7.454  20.755  0.00  0.00    +0.000 A 
ATOM     12  C   UNL     1       0.070   7.455  20.774  0.00  0.00    +0.000 A 
ATOM     13  C   UNL     1      -0.647   8.318  21.619  0.00  0.00    +0.000 A 
ATOM     14  C   UNL     1       0.021   9.234  22.428  0.00  0.00    +0.000 A 
ATOM     15  C   UNL     1       1.409   9.272  22.411  0.00  0.00    +0.000 A 
ATOM     16  C   UNL     1       2.124   8.379  21.601  0.00  0.00    +0.000 A 
ENDBRANCH   2  11
BRANCH   1  18
ATOM     17  N   UNL     1       1.748   3.632  21.913  0.00  0.00    +0.000 NA
ATOM     18  C   UNL     1       2.057   4.342  21.054  0.00  0.00    +0.000 C 
ENDBRANCH   1  18
BRANCH   3  19
ATOM     19  N   UNL     1       2.914   8.280  18.145  0.00  0.00    +0.000 N 
ATOM     20  H   UNL     1       3.786   8.786  17.995  0.00  0.00    +0.000 HD
BRANCH  19  21
ATOM     21  C   UNL     1       1.708   9.035  17.945  0.00  0.00    +0.000 C 
BRANCH  21  22
ATOM     22  C   UNL     1       1.705  10.533  18.176  0.00  0.00    +0.000 C 
BRANCH  22  23
ATOM     23  C   UNL     1       0.504  11.044  18.922  0.00  0.00    +0.000 A 
ATOM     24  C   UNL     1      -0.796  10.606  18.623  0.00  0.00    +0.000 A 
ATOM     25  C   UNL     1      -1.889  11.105  19.331  0.00  0.00    +0.000 A 
ATOM     26  C   UNL     1      -1.679  12.027  20.353  0.00  0.00    +0.000 A 
ATOM     27 CL   UNL     1      -3.018  12.652  21.230  0.00  0.00    +0.000 Cl
ATOM     28  C   UNL     1      -0.391  12.447  20.676  0.00  0.00    +0.000 A 
ATOM     29  C   UNL     1       0.700  11.954  19.964  0.00  0.00    +0.000 A 
ENDBRANCH  22  23
ENDBRANCH  21  22
ENDBRANCH  19  21
ENDBRANCH   3  19
TORSDOF 6
ENDMDL
MODEL 3
REMARK VINA RESULT:      -6.5      2.846      5.135
REMARK  Name = 
REMARK  6 active torsions:
REMARK  status: ('A' for Active; 'I' for Inactive)
REMARK    1  A    between atoms: C_2  and  C_3
REMARK    2  A    between atoms: C_4  and  C_5
REMARK    3  A    between atoms: C_11  and  N_12
REMARK    4  A    between atoms: N_12  and  C_13
REMARK    5  A    between atoms: C_13  and  C_14
REMARK    6  A    between atoms: C_14  and  C_15
REMARK                            x       y       z     vdW  Elec       q    Type
REMARK                         _______ _______ _______ _____ _____    ______ ____
ROOT
ATOM      1  C   UNL     1       4.670   4.136  17.298  0.00  0.00    +0.000 A 
ATOM      2  C   UNL     1       4.833   5.246  18.168  0.00  0.00    +0.000 A 
ATOM      3  C   UNL     1       3.748   5.229  19.074  0.00  0.00    +0.000 A 
ATOM      4  N   UNL     1       2.907   4.084  18.768  0.00  0.00    +0.000 N 
ATOM      5  C   UNL     1       1.682   3.487  19.272  0.00  0.00    +0.000 A 
ATOM      6 CL   UNL     1       0.579   4.013  20.511  0.00  0.00    +0.000 Cl
ATOM      7  C   UNL     1       1.216   2.335  18.734  0.00  0.00    +0.000 A 
ATOM      8  C   UNL     1       1.912   1.681  17.672  0.00  0.00    +0.000 A 
ATOM      9  C   UNL     1       3.026   2.210  17.168  0.00  0.00    +0.000 A 
ATOM     10  C   UNL     1       3.559   3.430  17.692  0.00  0.00    +0.000 A 
ENDROOT
BRANCH   2  11
ATOM     11  C   UNL     1       5.940   6.236  18.112  0.00  0.00    +0.000 A 
ATOM     12  C   UNL     1       5.903   7.363  17.277  0.00  0.00    +0.000 A 
ATOM     13  C   UNL     1       6.989   8.251  17.204  0.00  0.00    +0.000 A 
ATOM     14  C   UNL     1       8.153   8.007  17.928  0.00  0.00    +0.000 A 
ATOM     15  C   UNL     1       8.227   6.886  18.743  0.00  0.00    +0.000 A 
ATOM     16  C   UNL     1       7.125   6.025  18.849  0.00  0.00    +0.000 A 
ENDBRANCH   2  11
BRANCH   1  18
ATOM     17  N   UNL     1       6.194   3.450  15.315  0.00  0.00    +0.000 NA
ATOM     18  C   UNL     1       5.496   3.741  16.190  0.00  0.00    +0.000 C 
ENDBRANCH   1  18
BRANCH   3  19
ATOM     19  N   UNL     1       3.560   6.144  20.087  0.00  0.00    +0.000 N 
ATOM     20  H   UNL     1       4.310   6.353  20.746  0.00  0.00    +0.000 HD
BRANCH  19  21
ATOM     21  C   UNL     1       2.286   6.739  20.376  0.00  0.00    +0.000 C 
BRANCH  21  22
ATOM     22  C   UNL     1       1.889   8.042  19.711  0.00  0.00    +0.000 C 
BRANCH  22  23
ATOM     23  C   UNL     1       1.057   8.950  20.571  0.00  0.00    +0.000 A 
ATOM     24  C   UNL     1       0.815   8.672  21.927  0.00  0.00    +0.000 A 
ATOM     25  C   UNL     1       0.033   9.534  22.695  0.00  0.00    +0.000 A 
ATOM     26  C   UNL     1      -0.491  10.685  22.112  0.00  0.00    +0.000 A 
ATOM     27 CL   UNL     1      -1.460  11.753  23.048  0.00  0.00    +0.000 Cl
ATOM     28  C   UNL     1      -0.234  10.984  20.777  0.00  0.00    +0.000 A 
ATOM     29  C   UNL     1       0.540  10.120  20.007  0.00  0.00    +0.000 A 
ENDBRANCH  22  23
ENDBRANCH  21  22
ENDBRANCH  19  21
ENDBRANCH   3  19
TORSDOF 6
ENDMDL
MODEL 4
REMARK VINA RESULT:      -6.5      4.068      9.044
REMARK  Name = 
REMARK  6 active torsions:
REMARK  status: ('A' for Active; 'I' for Inactive)
REMARK    1  A    between atoms: C_2  and  C_3
REMARK    2  A    between atoms: C_4  and  C_5
REMARK    3  A    between atoms: C_11  and  N_12
REMARK    4  A    between atoms: N_12  and  C_13
REMARK    5  A    between atoms: C_13  and  C_14
REMARK    6  A    between atoms: C_14  and  C_15
REMARK                            x       y       z     vdW  Elec       q    Type
REMARK                         _______ _______ _______ _____ _____    ______ ____
ROOT
ATOM      1  C   UNL     1      -5.069  11.961  19.853  0.00  0.00    +0.000 A 
ATOM      2  C   UNL     1      -3.846  12.043  19.136  0.00  0.00    +0.000 A 
ATOM      3  C   UNL     1      -2.993  12.906  19.864  0.00  0.00    +0.000 A 
ATOM      4  N   UNL     1      -3.696  13.355  21.054  0.00  0.00    +0.000 N 
ATOM      5  C   UNL     1      -3.433  14.218  22.193  0.00  0.00    +0.000 A 
ATOM      6 CL   UNL     1      -2.067  15.226  22.573  0.00  0.00    +0.000 Cl
ATOM      7  C   UNL     1      -4.360  14.352  23.172  0.00  0.00    +0.000 A 
ATOM      8  C   UNL     1      -5.604  13.652  23.112  0.00  0.00    +0.000 A 
ATOM      9  C   UNL     1      -5.889  12.870  22.073  0.00  0.00    +0.000 A 
ATOM     10  C   UNL     1      -4.952  12.698  21.006  0.00  0.00    +0.000 A 
ENDROOT
BRANCH   2  11
ATOM     11  C   UNL     1      -3.543  11.351  17.857  0.00  0.00    +0.000 A 
ATOM     12  C   UNL     1      -4.234  11.625  16.668  0.00  0.00    +0.000 A 
ATOM     13  C   UNL     1      -3.963  10.915  15.487  0.00  0.00    +0.000 A 
ATOM     14  C   UNL     1      -3.029   9.882  15.480  0.00  0.00    +0.000 A 
ATOM     15  C   UNL     1      -2.347   9.573  16.648  0.00  0.00    +0.000 A 
ATOM     16  C   UNL     1      -2.586  10.313  17.815  0.00  0.00    +0.000 A 
ENDBRANCH   2  11
BRANCH   1  18
ATOM     17  N   UNL     1      -7.194  10.608  19.236  0.00  0.00    +0.000 NA
ATOM     18  C   UNL     1      -6.259  11.233  19.507  0.00  0.00    +0.000 C 
ENDBRANCH   1  18
BRANCH   3  19
ATOM     19  N   UNL     1      -1.706  13.226  19.494  0.00  0.00    +0.000 N 
ATOM     20  H   UNL     1      -1.526  13.791  18.665  0.00  0.00    +0.000 HD
BRANCH  19  21
ATOM     21  C   UNL     1      -0.548  12.678  20.142  0.00  0.00    +0.000 C 
BRANCH  21  22
ATOM     22  C   UNL     1      -0.588  11.269  20.702  0.00  0.00    +0.000 C 
BRANCH  22  23
ATOM     23  C   UNL     1       0.323  10.298  20.005  0.00  0.00    +0.000 A 
ATOM     24  C   UNL     1       0.803  10.532  18.706  0.00  0.00    +0.000 A 
ATOM     25  C   UNL     1       1.642   9.607  18.087  0.00  0.00    +0.000 A 
ATOM     26  C   UNL     1       2.018   8.456  18.775  0.00  0.00    +0.000 A 
ATOM     27 CL   UNL     1       3.049   7.306  18.021  0.00  0.00    +0.000 Cl
ATOM     28  C   UNL     1       1.570   8.228  20.074  0.00  0.00    +0.000 A 
ATOM     29  C   UNL     1       0.726   9.148  20.689  0.00  0.00    +0.000 A 
ENDBRANCH  22  23
ENDBRANCH  21  22
ENDBRANCH  19  21
ENDBRANCH   3  19
TORSDOF 6
ENDMDL
MODEL 5
REMARK VINA RESULT:      -6.5      2.686      4.837
REMARK  Name = 
REMARK  6 active torsions:
REMARK  status: ('A' for Active; 'I' for Inactive)
REMARK    1  A    between atoms: C_2  and  C_3
REMARK    2  A    between atoms: C_4  and  C_5
REMARK    3  A    between atoms: C_11  and  N_12
REMARK    4  A    between atoms: N_12  and  C_13
REMARK    5  A    between atoms: C_13  and  C_14
REMARK    6  A    between atoms: C_14  and  C_15
REMARK                            x       y       z     vdW  Elec       q    Type
REMARK                         _______ _______ _______ _____ _____    ______ ____
ROOT
ATOM      1  C   UNL     1       4.718   4.112  17.268  0.00  0.00    +0.000 A 
ATOM      2  C   UNL     1       4.884   5.266  18.077  0.00  0.00    +0.000 A 
ATOM      3  C   UNL     1       3.790   5.307  18.974  0.00  0.00    +0.000 A 
ATOM      4  N   UNL     1       2.943   4.154  18.722  0.00  0.00    +0.000 N 
ATOM      5  C   UNL     1       1.708   3.596  19.247  0.00  0.00    +0.000 A 
ATOM      6 CL   UNL     1       0.599   4.197  20.445  0.00  0.00    +0.000 Cl
ATOM      7  C   UNL     1       1.237   2.420  18.768  0.00  0.00    +0.000 A 
ATOM      8  C   UNL     1       1.937   1.704  17.749  0.00  0.00    +0.000 A 
ATOM      9  C   UNL     1       3.060   2.195  17.228  0.00  0.00    +0.000 A 
ATOM     10  C   UNL     1       3.598   3.437  17.689  0.00  0.00    +0.000 A 
ENDROOT
BRANCH   2  11
ATOM     11  C   UNL     1       5.999   6.243  17.978  0.00  0.00    +0.000 A 
ATOM     12  C   UNL     1       7.219   6.066  18.646  0.00  0.00    +0.000 A 
ATOM     13  C   UNL     1       8.235   7.034  18.578  0.00  0.00    +0.000 A 
ATOM     14  C   UNL     1       8.034   8.222  17.881  0.00  0.00    +0.000 A 
ATOM     15  C   UNL     1       6.827   8.436  17.231  0.00  0.00    +0.000 A 
ATOM     16  C   UNL     1       5.832   7.449  17.262  0.00  0.00    +0.000 A 
ENDBRANCH   2  11
BRANCH   1  18
ATOM     17  N   UNL     1       6.244   3.318  15.327  0.00  0.00    +0.000 NA
ATOM     18  C   UNL     1       5.551   3.650  16.191  0.00  0.00    +0.000 C 
ENDBRANCH   1  18
BRANCH   3  19
ATOM     19  N   UNL     1       3.602   6.277  19.934  0.00  0.00    +0.000 N 
ATOM     20  H   UNL     1       4.224   6.342  20.739  0.00  0.00    +0.000 HD
BRANCH  19  21
ATOM     21  C   UNL     1       2.460   7.147  19.952  0.00  0.00    +0.000 C 
BRANCH  21  22
ATOM     22  C   UNL     1       2.260   8.159  18.841  0.00  0.00    +0.000 C 
BRANCH  22  23
ATOM     23  C   UNL     1       1.146   9.138  19.086  0.00  0.00    +0.000 A 
ATOM     24  C   UNL     1       0.396   9.686  18.033  0.00  0.00    +0.000 A 
ATOM     25  C   UNL     1      -0.628  10.597  18.295  0.00  0.00    +0.000 A 
ATOM     26  C   UNL     1      -0.914  10.943  19.613  0.00  0.00    +0.000 A 
ATOM     27 CL   UNL     1      -2.170  12.068  19.949  0.00  0.00    +0.000 Cl
ATOM     28  C   UNL     1      -0.194  10.384  20.666  0.00  0.00    +0.000 A 
ATOM     29  C   UNL     1       0.833   9.481  20.404  0.00  0.00    +0.000 A 
ENDBRANCH  22  23
ENDBRANCH  21  22
ENDBRANCH  19  21
ENDBRANCH   3  19
TORSDOF 6
ENDMDL
MODEL 6
REMARK VINA RESULT:      -6.5      0.969      1.729
REMARK  Name = 
REMARK  6 active torsions:
REMARK  status: ('A' for Active; 'I' for Inactive)
REMARK    1  A    between atoms: C_2  and  C_3
REMARK    2  A    between atoms: C_4  and  C_5
REMARK    3  A    between atoms: C_11  and  N_12
REMARK    4  A    between atoms: N_12  and  C_13
REMARK    5  A    between atoms: C_13  and  C_14
REMARK    6  A    between atoms: C_14  and  C_15
REMARK                            x       y       z     vdW  Elec       q    Type
REMARK                         _______ _______ _______ _____ _____    ______ ____
ROOT
ATOM      1  C   UNL     1       2.545   5.340  19.933  0.00  0.00    +0.000 A 
ATOM      2  C   UNL     1       2.307   6.727  19.753  0.00  0.00    +0.000 A 
ATOM      3  C   UNL     1       2.951   7.109  18.553  0.00  0.00    +0.000 A 
ATOM      4  N   UNL     1       3.586   5.937  17.975  0.00  0.00    +0.000 N 
ATOM      5  C   UNL     1       4.384   5.616  16.804  0.00  0.00    +0.000 A 
ATOM      6 CL   UNL     1       5.033   6.632  15.550  0.00  0.00    +0.000 Cl
ATOM      7  C   UNL     1       4.764   4.337  16.570  0.00  0.00    +0.000 A 
ATOM      8  C   UNL     1       4.391   3.282  17.457  0.00  0.00    +0.000 A 
ATOM      9  C   UNL     1       3.679   3.540  18.553  0.00  0.00    +0.000 A 
ATOM     10  C   UNL     1       3.257   4.873  18.855  0.00  0.00    +0.000 A 
ENDROOT
BRANCH   2  11
ATOM     11  C   UNL     1       1.533   7.601  20.673  0.00  0.00    +0.000 A 
ATOM     12  C   UNL     1       2.148   8.463  21.591  0.00  0.00    +0.000 A 
ATOM     13  C   UNL     1       1.390   9.235  22.487  0.00  0.00    +0.000 A 
ATOM     14  C   UNL     1       0.002   9.126  22.516  0.00  0.00    +0.000 A 
ATOM     15  C   UNL     1      -0.633   8.262  21.635  0.00  0.00    +0.000 A 
ATOM     16  C   UNL     1       0.123   7.526  20.711  0.00  0.00    +0.000 A 
ENDBRANCH   2  11
BRANCH   1  18
ATOM     17  N   UNL     1       1.820   3.832  21.915  0.00  0.00    +0.000 NA
ATOM     18  C   UNL     1       2.125   4.495  21.017  0.00  0.00    +0.000 C 
ENDBRANCH   1  18
BRANCH   3  19
ATOM     19  N   UNL     1       2.936   8.383  18.028  0.00  0.00    +0.000 N 
ATOM     20  H   UNL     1       3.806   8.867  17.809  0.00  0.00    +0.000 HD
BRANCH  19  21
ATOM     21  C   UNL     1       1.735   9.160  17.899  0.00  0.00    +0.000 C 
BRANCH  21  22
ATOM     22  C   UNL     1       1.765  10.651  18.167  0.00  0.00    +0.000 C 
BRANCH  22  23
ATOM     23  C   UNL     1       0.661  11.145  19.058  0.00  0.00    +0.000 A 
ATOM     24  C   UNL     1       0.911  11.994  20.149  0.00  0.00    +0.000 A 
ATOM     25  C   UNL     1      -0.137  12.428  20.960  0.00  0.00    +0.000 A 
ATOM     26  C   UNL     1      -1.439  12.030  20.667  0.00  0.00    +0.000 A 
ATOM     27 CL   UNL     1      -2.739  12.555  21.661  0.00  0.00    +0.000 Cl
ATOM     28  C   UNL     1      -1.702  11.211  19.571  0.00  0.00    +0.000 A 
ATOM     29  C   UNL     1      -0.654  10.771  18.767  0.00  0.00    +0.000 A 
ENDBRANCH  22  23
ENDBRANCH  21  22
ENDBRANCH  19  21
ENDBRANCH   3  19
TORSDOF 6
ENDMDL
MODEL 7
REMARK VINA RESULT:      -6.5      2.842      5.143
REMARK  Name = 
REMARK  6 active torsions:
REMARK  status: ('A' for Active; 'I' for Inactive)
REMARK    1  A    between atoms: C_2  and  C_3
REMARK    2  A    between atoms: C_4  and  C_5
REMARK    3  A    between atoms: C_11  and  N_12
REMARK    4  A    between atoms: N_12  and  C_13
REMARK    5  A    between atoms: C_13  and  C_14
REMARK    6  A    between atoms: C_14  and  C_15
REMARK                            x       y       z     vdW  Elec       q    Type
REMARK                         _______ _______ _______ _____ _____    ______ ____
ROOT
ATOM      1  C   UNL     1       4.710   4.147  17.227  0.00  0.00    +0.000 A 
ATOM      2  C   UNL     1       4.913   5.253  18.095  0.00  0.00    +0.000 A 
ATOM      3  C   UNL     1       3.839   5.264  19.014  0.00  0.00    +0.000 A 
ATOM      4  N   UNL     1       2.965   4.142  18.718  0.00  0.00    +0.000 N 
ATOM      5  C   UNL     1       1.730   3.578  19.236  0.00  0.00    +0.000 A 
ATOM      6 CL   UNL     1       0.656   4.132  20.487  0.00  0.00    +0.000 Cl
ATOM      7  C   UNL     1       1.227   2.438  18.704  0.00  0.00    +0.000 A 
ATOM      8  C   UNL     1       1.894   1.766  17.633  0.00  0.00    +0.000 A 
ATOM      9  C   UNL     1       3.015   2.265  17.117  0.00  0.00    +0.000 A 
ATOM     10  C   UNL     1       3.586   3.471  17.634  0.00  0.00    +0.000 A 
ENDROOT
BRANCH   2  11
ATOM     11  C   UNL     1       6.045   6.213  18.026  0.00  0.00    +0.000 A 
ATOM     12  C   UNL     1       7.237   6.027  18.740  0.00  0.00    +0.000 A 
ATOM     13  C   UNL     1       8.268   6.980  18.699  0.00  0.00    +0.000 A 
ATOM     14  C   UNL     1       8.110   8.164  17.982  0.00  0.00    +0.000 A 
ATOM     15  C   UNL     1       6.930   8.386  17.286  0.00  0.00    +0.000 A 
ATOM     16  C   UNL     1       5.920   7.413  17.291  0.00  0.00    +0.000 A 
ENDBRANCH   2  11
BRANCH   1  18
ATOM     17  N   UNL     1       6.196   3.395  15.238  0.00  0.00    +0.000 NA
ATOM     18  C   UNL     1       5.513   3.730  16.110  0.00  0.00    +0.000 C 
ENDBRANCH   1  18
BRANCH   3  19
ATOM     19  N   UNL     1       3.688   6.183  20.029  0.00  0.00    +0.000 N 
ATOM     20  H   UNL     1       4.461   6.397  20.658  0.00  0.00    +0.000 HD
BRANCH  19  21
ATOM     21  C   UNL     1       2.423   6.777  20.363  0.00  0.00    +0.000 C 
BRANCH  21  22
ATOM     22  C   UNL     1       1.976   8.047  19.669  0.00  0.00    +0.000 C 
BRANCH  22  23
ATOM     23  C   UNL     1       1.082   8.927  20.498  0.00  0.00    +0.000 A 
ATOM     24  C   UNL     1       0.219   9.868  19.914  0.00  0.00    +0.000 A 
ATOM     25  C   UNL     1      -0.593  10.672  20.714  0.00  0.00    +0.000 A 
ATOM     26  C   UNL     1      -0.556  10.519  22.097  0.00  0.00    +0.000 A 
ATOM     27 CL   UNL     1      -1.549  11.508  23.094  0.00  0.00    +0.000 Cl
ATOM     28  C   UNL     1       0.276   9.570  22.685  0.00  0.00    +0.000 A 
ATOM     29  C   UNL     1       1.092   8.772  21.887  0.00  0.00    +0.000 A 
ENDBRANCH  22  23
ENDBRANCH  21  22
ENDBRANCH  19  21
ENDBRANCH   3  19
TORSDOF 6
ENDMDL
MODEL 8
REMARK VINA RESULT:      -6.5      2.672      4.844
REMARK  Name = 
REMARK  6 active torsions:
REMARK  status: ('A' for Active; 'I' for Inactive)
REMARK    1  A    between atoms: C_2  and  C_3
REMARK    2  A    between atoms: C_4  and  C_5
REMARK    3  A    between atoms: C_11  and  N_12
REMARK    4  A    between atoms: N_12  and  C_13
REMARK    5  A    between atoms: C_13  and  C_14
REMARK    6  A    between atoms: C_14  and  C_15
REMARK                            x       y       z     vdW  Elec       q    Type
REMARK                         _______ _______ _______ _____ _____    ______ ____
ROOT
ATOM      1  C   UNL     1       4.671   4.146  17.315  0.00  0.00    +0.000 A 
ATOM      2  C   UNL     1       4.800   5.298  18.133  0.00  0.00    +0.000 A 
ATOM      3  C   UNL     1       3.698   5.306  19.020  0.00  0.00    +0.000 A 
ATOM      4  N   UNL     1       2.882   4.135  18.753  0.00  0.00    +0.000 N 
ATOM      5  C   UNL     1       1.656   3.542  19.263  0.00  0.00    +0.000 A 
ATOM      6 CL   UNL     1       0.522   4.108  20.455  0.00  0.00    +0.000 Cl
ATOM      7  C   UNL     1       1.219   2.358  18.772  0.00  0.00    +0.000 A 
ATOM      8  C   UNL     1       1.945   1.666  17.755  0.00  0.00    +0.000 A 
ATOM      9  C   UNL     1       3.060   2.188  17.248  0.00  0.00    +0.000 A 
ATOM     10  C   UNL     1       3.564   3.441  17.722  0.00  0.00    +0.000 A 
ENDROOT
BRANCH   2  11
ATOM     11  C   UNL     1       5.892   6.303  18.050  0.00  0.00    +0.000 A 
ATOM     12  C   UNL     1       5.809   7.443  17.239  0.00  0.00    +0.000 A 
ATOM     13  C   UNL     1       6.880   8.346  17.137  0.00  0.00    +0.000 A 
ATOM     14  C   UNL     1       8.077   8.103  17.807  0.00  0.00    +0.000 A 
ATOM     15  C   UNL     1       8.197   6.968  18.598  0.00  0.00    +0.000 A 
ATOM     16  C   UNL     1       7.110   6.092  18.734  0.00  0.00    +0.000 A 
ENDBRANCH   2  11
BRANCH   1  18
ATOM     17  N   UNL     1       6.173   3.350  15.356  0.00  0.00    +0.000 NA
ATOM     18  C   UNL     1       5.524   3.711  16.242  0.00  0.00    +0.000 C 
ENDBRANCH   1  18
BRANCH   3  19
ATOM     19  N   UNL     1       3.478   6.265  19.984  0.00  0.00    +0.000 N 
ATOM     20  H   UNL     1       4.072   6.319  20.811  0.00  0.00    +0.000 HD
BRANCH  19  21
ATOM     21  C   UNL     1       2.336   7.135  19.973  0.00  0.00    +0.000 C 
BRANCH  21  22
ATOM     22  C   UNL     1       2.218   8.217  18.918  0.00  0.00    +0.000 C 
BRANCH  22  23
ATOM     23  C   UNL     1       1.097   9.192  19.150  0.00  0.00    +0.000 A 
ATOM     24  C   UNL     1       0.861   9.763  20.410  0.00  0.00    +0.000 A 
ATOM     25  C   UNL     1      -0.192  10.660  20.592  0.00  0.00    +0.000 A 
ATOM     26  C   UNL     1      -0.996  11.000  19.507  0.00  0.00    +0.000 A 
ATOM     27 CL   UNL     1      -2.299  12.100  19.719  0.00  0.00    +0.000 Cl
ATOM     28  C   UNL     1      -0.753  10.460  18.247  0.00  0.00    +0.000 A 
ATOM     29  C   UNL     1       0.294   9.559  18.067  0.00  0.00    +0.000 A 
ENDBRANCH  22  23
ENDBRANCH  21  22
ENDBRANCH  19  21
ENDBRANCH   3  19
TORSDOF 6
ENDMDL
MODEL 9
REMARK VINA RESULT:      -6.5      2.835      5.115
REMARK  Name = 
REMARK  6 active torsions:
REMARK  status: ('A' for Active; 'I' for Inactive)
REMARK    1  A    between atoms: C_2  and  C_3
REMARK    2  A    between atoms: C_4  and  C_5
REMARK    3  A    between atoms: C_11  and  N_12
REMARK    4  A    between atoms: N_12  and  C_13
REMARK    5  A    between atoms: C_13  and  C_14
REMARK    6  A    between atoms: C_14  and  C_15
REMARK                            x       y       z     vdW  Elec       q    Type
REMARK                         _______ _______ _______ _____ _____    ______ ____
ROOT
ATOM      1  C   UNL     1       4.674   4.154  17.334  0.00  0.00    +0.000 A 
ATOM      2  C   UNL     1       4.809   5.295  18.168  0.00  0.00    +0.000 A 
ATOM      3  C   UNL     1       3.704   5.299  19.051  0.00  0.00    +0.000 A 
ATOM      4  N   UNL     1       2.880   4.137  18.767  0.00  0.00    +0.000 N 
ATOM      5  C   UNL     1       1.648   3.547  19.264  0.00  0.00    +0.000 A 
ATOM      6 CL   UNL     1       0.514   4.105  20.459  0.00  0.00    +0.000 Cl
ATOM      7  C   UNL     1       1.204   2.372  18.757  0.00  0.00    +0.000 A 
ATOM      8  C   UNL     1       1.929   1.689  17.733  0.00  0.00    +0.000 A 
ATOM      9  C   UNL     1       3.050   2.209  17.236  0.00  0.00    +0.000 A 
ATOM     10  C   UNL     1       3.561   3.451  17.728  0.00  0.00    +0.000 A 
ENDROOT
BRANCH   2  11
ATOM     11  C   UNL     1       5.908   6.292  18.101  0.00  0.00    +0.000 A 
ATOM     12  C   UNL     1       5.841   7.436  17.294  0.00  0.00    +0.000 A 
ATOM     13  C   UNL     1       6.919   8.333  17.208  0.00  0.00    +0.000 A 
ATOM     14  C   UNL     1       8.106   8.079  17.892  0.00  0.00    +0.000 A 
ATOM     15  C   UNL     1       8.210   6.941  18.679  0.00  0.00    +0.000 A 
ATOM     16  C   UNL     1       7.116   6.071  18.799  0.00  0.00    +0.000 A 
ENDBRANCH   2  11
BRANCH   1  18
ATOM     17  N   UNL     1       6.188   3.408  15.365  0.00  0.00    +0.000 NA
ATOM     18  C   UNL     1       5.527   3.728  16.259  0.00  0.00    +0.000 C 
ENDBRANCH   1  18
BRANCH   3  19
ATOM     19  N   UNL     1       3.487   6.247  20.027  0.00  0.00    +0.000 N 
ATOM     20  H   UNL     1       3.978   6.199  20.919  0.00  0.00    +0.000 HD
BRANCH  19  21
ATOM     21  C   UNL     1       2.470   7.255  19.924  0.00  0.00    +0.000 C 
BRANCH  21  22
ATOM     22  C   UNL     1       1.310   7.265  20.900  0.00  0.00    +0.000 C 
BRANCH  22  23
ATOM     23  C   UNL     1       0.774   8.634  21.213  0.00  0.00    +0.000 A 
ATOM     24  C   UNL     1       0.796   9.673  20.268  0.00  0.00    +0.000 A 
ATOM     25  C   UNL     1       0.295  10.933  20.594  0.00  0.00    +0.000 A 
ATOM     26  C   UNL     1      -0.248  11.147  21.858  0.00  0.00    +0.000 A 
ATOM     27 CL   UNL     1      -0.865  12.698  22.272  0.00  0.00    +0.000 Cl
ATOM     28  C   UNL     1      -0.301  10.116  22.792  0.00  0.00    +0.000 A 
ATOM     29  C   UNL     1       0.207   8.860  22.470  0.00  0.00    +0.000 A 
ENDBRANCH  22  23
ENDBRANCH  21  22
ENDBRANCH  19  21
ENDBRANCH   3  19
TORSDOF 6
ENDMDL
