MODEL 1
REMARK VINA RESULT:      -6.9      0.000      0.000
REMARK  Name = 
REMARK  6 active torsions:
REMARK  status: ('A' for Active; 'I' for Inactive)
REMARK    1  A    between atoms: C_1  and  C_2
REMARK    2  A    between atoms: N_14  and  C_15
REMARK    3  A    between atoms: C_21  and  C_22
REMARK    4  A    between atoms: N_25  and  C_26
REMARK    5  A    between atoms: C_26  and  C_27
REMARK    6  A    between atoms: C_32  and  C_33
REMARK                            x       y       z     vdW  Elec       q    Type
REMARK                         _______ _______ _______ _____ _____    ______ ____
ROOT
ATOM      1  C   UNL     1      -6.814  15.792  18.082  0.00  0.00    +0.000 C 
ATOM      2  C   UNL     1      -6.914  14.300  18.249  0.00  0.00    +0.000 C 
ATOM      3  O   UNL     1      -7.550  13.629  17.430  0.00  0.00    +0.000 OA
ATOM      4  N   UNL     1      -6.228  13.727  19.299  0.00  0.00    +0.000 N 
ATOM      5  C   UNL     1      -6.167  12.260  19.388  0.00  0.00    +0.000 C 
ATOM      6  C   UNL     1      -4.756  11.761  19.026  0.00  0.00    +0.000 C 
ATOM      7  C   UNL     1      -3.714  12.581  19.732  0.00  0.00    +0.000 A 
ATOM      8  C   UNL     1      -4.033  13.818  20.272  0.00  0.00    +0.000 A 
ATOM      9  S   UNL     1      -2.708  14.544  21.044  0.00  0.00    +0.000 S 
ATOM     10  C   UNL     1      -1.704  13.237  20.645  0.00  0.00    +0.000 A 
ATOM     11  C   UNL     1      -2.334  12.268  19.924  0.00  0.00    +0.000 A 
ATOM     12  C   UNL     1      -1.594  11.115  19.459  0.00  0.00    +0.000 A 
ATOM     13  O   UNL     1      -2.112  10.294  18.711  0.00  0.00    +0.000 OA
ATOM     14  N   UNL     1      -0.277  11.046  19.950  0.00  0.00    +0.000 N 
ATOM     15  C   UNL     1       0.349  12.048  20.722  0.00  0.00    +0.000 A 
ATOM     16  O   UNL     1       1.532  11.926  21.087  0.00  0.00    +0.000 OA
ATOM     17  N   UNL     1      -0.374  13.210  21.035  0.00  0.00    +0.000 N 
ATOM     18  C   UNL     1      -5.384  14.458  20.252  0.00  0.00    +0.000 C 
ENDROOT
BRANCH  14  19
ATOM     19  C   UNL     1       0.554   9.977  19.470  0.00  0.00    +0.000 A 
ATOM     20  C   UNL     1       1.237  10.173  18.252  0.00  0.00    +0.000 A 
ATOM     21  C   UNL     1       2.171   9.244  17.801  0.00  0.00    +0.000 A 
ATOM     22  C   UNL     1       2.432   8.112  18.564  0.00  0.00    +0.000 A 
ATOM     23  C   UNL     1       1.750   7.892  19.767  0.00  0.00    +0.000 A 
ATOM     24 CL   UNL     1       2.161   6.449  20.630  0.00  0.00    +0.000 Cl
ATOM     25  C   UNL     1       0.786   8.807  20.238  0.00  0.00    +0.000 A 
ATOM     26  C   UNL     1      -0.005   8.535  21.497  0.00  0.00    +0.000 C 
ENDBRANCH  14  19
BRANCH  17  27
ATOM     27  C   UNL     1       0.287  14.352  21.711  0.00  0.00    +0.000 C 
BRANCH  27  28
ATOM     28  C   UNL     1       0.786  15.479  20.823  0.00  0.00    +0.000 A 
ATOM     29  C   UNL     1       1.411  15.160  19.608  0.00  0.00    +0.000 A 
ATOM     30  C   UNL     1       1.639  16.128  18.636  0.00  0.00    +0.000 A 
ATOM     31  C   UNL     1       1.249  17.443  18.870  0.00  0.00    +0.000 A 
ATOM     32  C   UNL     1       0.675  17.798  20.090  0.00  0.00    +0.000 A 
ATOM     33  C   UNL     1       0.446  16.832  21.087  0.00  0.00    +0.000 A 
ATOM     34  C   UNL     1      -0.246  17.262  22.359  0.00  0.00    +0.000 C 
ENDBRANCH  27  28
ENDBRANCH  17  27
TORSDOF 3
ENDMDL
MODEL 2
REMARK VINA RESULT:      -6.9      3.036      6.121
REMARK  Name = 
REMARK  6 active torsions:
REMARK  status: ('A' for Active; 'I' for Inactive)
REMARK    1  A    between atoms: C_1  and  C_2
REMARK    2  A    between atoms: N_14  and  C_15
REMARK    3  A    between atoms: C_21  and  C_22
REMARK    4  A    between atoms: N_25  and  C_26
REMARK    5  A    between atoms: C_26  and  C_27
REMARK    6  A    between atoms: C_32  and  C_33
REMARK                            x       y       z     vdW  Elec       q    Type
REMARK                         _______ _______ _______ _____ _____    ______ ____
ROOT
ATOM      1  C   UNL     1      -5.600  13.326  23.878  0.00  0.00    +0.000 C 
ATOM      2  C   UNL     1      -5.217  14.647  23.269  0.00  0.00    +0.000 C 
ATOM      3  O   UNL     1      -5.272  15.678  23.947  0.00  0.00    +0.000 OA
ATOM      4  N   UNL     1      -4.756  14.643  21.970  0.00  0.00    +0.000 N 
ATOM      5  C   UNL     1      -4.215  15.889  21.406  0.00  0.00    +0.000 C 
ATOM      6  C   UNL     1      -2.683  15.798  21.279  0.00  0.00    +0.000 C 
ATOM      7  C   UNL     1      -2.287  14.485  20.665  0.00  0.00    +0.000 A 
ATOM      8  C   UNL     1      -3.178  13.422  20.630  0.00  0.00    +0.000 A 
ATOM      9  S   UNL     1      -2.522  12.057  19.864  0.00  0.00    +0.000 S 
ATOM     10  C   UNL     1      -1.052  12.858  19.600  0.00  0.00    +0.000 A 
ATOM     11  C   UNL     1      -1.029  14.129  20.091  0.00  0.00    +0.000 A 
ATOM     12  C   UNL     1       0.178  14.921  19.994  0.00  0.00    +0.000 A 
ATOM     13  O   UNL     1       0.256  16.019  20.534  0.00  0.00    +0.000 OA
ATOM     14  N   UNL     1       1.198  14.316  19.236  0.00  0.00    +0.000 N 
ATOM     15  C   UNL     1       1.143  13.008  18.709  0.00  0.00    +0.000 A 
ATOM     16  O   UNL     1       2.106  12.534  18.080  0.00  0.00    +0.000 OA
ATOM     17  N   UNL     1      -0.002  12.232  18.947  0.00  0.00    +0.000 N 
ATOM     18  C   UNL     1      -4.582  13.443  21.142  0.00  0.00    +0.000 C 
ENDROOT
BRANCH  14  19
ATOM     19  C   UNL     1       2.459  14.999  19.160  0.00  0.00    +0.000 A 
ATOM     20  C   UNL     1       2.655  15.897  18.090  0.00  0.00    +0.000 A 
ATOM     21  C   UNL     1       3.790  16.702  18.033  0.00  0.00    +0.000 A 
ATOM     22  C   UNL     1       4.739  16.618  19.045  0.00  0.00    +0.000 A 
ATOM     23  C   UNL     1       4.569  15.720  20.105  0.00  0.00    +0.000 A 
ATOM     24 CL   UNL     1       5.815  15.706  21.307  0.00  0.00    +0.000 Cl
ATOM     25  C   UNL     1       3.439  14.880  20.178  0.00  0.00    +0.000 A 
ATOM     26  C   UNL     1       3.291  13.856  21.281  0.00  0.00    +0.000 C 
ENDBRANCH  14  19
BRANCH  17  27
ATOM     27  C   UNL     1      -0.044  10.805  18.546  0.00  0.00    +0.000 C 
BRANCH  27  28
ATOM     28  C   UNL     1       0.603   9.808  19.490  0.00  0.00    +0.000 A 
ATOM     29  C   UNL     1       0.071   9.650  20.780  0.00  0.00    +0.000 A 
ATOM     30  C   UNL     1       0.434   8.576  21.586  0.00  0.00    +0.000 A 
ATOM     31  C   UNL     1       1.348   7.639  21.113  0.00  0.00    +0.000 A 
ATOM     32  C   UNL     1       1.931   7.801  19.857  0.00  0.00    +0.000 A 
ATOM     33  C   UNL     1       1.582   8.887  19.034  0.00  0.00    +0.000 A 
ATOM     34  C   UNL     1       2.192   8.968  17.654  0.00  0.00    +0.000 C 
ENDBRANCH  27  28
ENDBRANCH  17  27
TORSDOF 3
ENDMDL
MODEL 3
REMARK VINA RESULT:      -6.6      1.116      1.487
REMARK  Name = 
REMARK  6 active torsions:
REMARK  status: ('A' for Active; 'I' for Inactive)
REMARK    1  A    between atoms: C_1  and  C_2
REMARK    2  A    between atoms: N_14  and  C_15
REMARK    3  A    between atoms: C_21  and  C_22
REMARK    4  A    between atoms: N_25  and  C_26
REMARK    5  A    between atoms: C_26  and  C_27
REMARK    6  A    between atoms: C_32  and  C_33
REMARK                            x       y       z     vdW  Elec       q    Type
REMARK                         _______ _______ _______ _____ _____    ______ ____
ROOT
ATOM      1  C   UNL     1      -6.498  16.439  18.871  0.00  0.00    +0.000 C 
ATOM      2  C   UNL     1      -6.676  14.952  19.014  0.00  0.00    +0.000 C 
ATOM      3  O   UNL     1      -7.409  14.340  18.231  0.00  0.00    +0.000 OA
ATOM      4  N   UNL     1      -5.952  14.314  20.000  0.00  0.00    +0.000 N 
ATOM      5  C   UNL     1      -5.974  12.844  20.054  0.00  0.00    +0.000 C 
ATOM      6  C   UNL     1      -4.626  12.271  19.579  0.00  0.00    +0.000 C 
ATOM      7  C   UNL     1      -3.488  13.011  20.223  0.00  0.00    +0.000 A 
ATOM      8  C   UNL     1      -3.691  14.251  20.810  0.00  0.00    +0.000 A 
ATOM      9  S   UNL     1      -2.272  14.879  21.497  0.00  0.00    +0.000 S 
ATOM     10  C   UNL     1      -1.381  13.525  20.999  0.00  0.00    +0.000 A 
ATOM     11  C   UNL     1      -2.119  12.613  20.307  0.00  0.00    +0.000 A 
ATOM     12  C   UNL     1      -1.486  11.430  19.766  0.00  0.00    +0.000 A 
ATOM     13  O   UNL     1      -2.105  10.660  19.041  0.00  0.00    +0.000 OA
ATOM     14  N   UNL     1      -0.143  11.271  20.157  0.00  0.00    +0.000 N 
ATOM     15  C   UNL     1       0.596  12.216  20.900  0.00  0.00    +0.000 A 
ATOM     16  O   UNL     1       1.793  12.015  21.175  0.00  0.00    +0.000 OA
ATOM     17  N   UNL     1      -0.031  13.410  21.289  0.00  0.00    +0.000 N 
ATOM     18  C   UNL     1      -4.999  14.970  20.902  0.00  0.00    +0.000 C 
ENDROOT
BRANCH  14  19
ATOM     19  C   UNL     1       0.584  10.167  19.596  0.00  0.00    +0.000 A 
ATOM     20  C   UNL     1       1.229  10.368  18.358  0.00  0.00    +0.000 A 
ATOM     21  C   UNL     1       2.072   9.395  17.827  0.00  0.00    +0.000 A 
ATOM     22  C   UNL     1       2.277   8.212  18.529  0.00  0.00    +0.000 A 
ATOM     23  C   UNL     1       1.631   7.989  19.750  0.00  0.00    +0.000 A 
ATOM     24 CL   UNL     1       1.968   6.482  20.532  0.00  0.00    +0.000 Cl
ATOM     25  C   UNL     1       0.759   8.949  20.302  0.00  0.00    +0.000 A 
ATOM     26  C   UNL     1       0.002   8.679  21.582  0.00  0.00    +0.000 C 
ENDBRANCH  14  19
BRANCH  17  27
ATOM     27  C   UNL     1       0.745  14.494  21.937  0.00  0.00    +0.000 C 
BRANCH  27  28
ATOM     28  C   UNL     1       1.962  15.009  21.189  0.00  0.00    +0.000 A 
ATOM     29  C   UNL     1       3.241  14.718  21.689  0.00  0.00    +0.000 A 
ATOM     30  C   UNL     1       4.382  14.917  20.920  0.00  0.00    +0.000 A 
ATOM     31  C   UNL     1       4.262  15.422  19.629  0.00  0.00    +0.000 A 
ATOM     32  C   UNL     1       3.008  15.770  19.127  0.00  0.00    +0.000 A 
ATOM     33  C   UNL     1       1.846  15.583  19.896  0.00  0.00    +0.000 A 
ATOM     34  C   UNL     1       0.510  15.910  19.271  0.00  0.00    +0.000 C 
ENDBRANCH  27  28
ENDBRANCH  17  27
TORSDOF 3
ENDMDL
MODEL 4
REMARK VINA RESULT:      -6.5      7.274      9.913
REMARK  Name = 
REMARK  6 active torsions:
REMARK  status: ('A' for Active; 'I' for Inactive)
REMARK    1  A    between atoms: C_1  and  C_2
REMARK    2  A    between atoms: N_14  and  C_15
REMARK    3  A    between atoms: C_21  and  C_22
REMARK    4  A    between atoms: N_25  and  C_26
REMARK    5  A    between atoms: C_26  and  C_27
REMARK    6  A    between atoms: C_32  and  C_33
REMARK                            x       y       z     vdW  Elec       q    Type
REMARK                         _______ _______ _______ _____ _____    ______ ____
ROOT
ATOM      1  C   UNL     1       3.529  15.709  17.040  0.00  0.00    +0.000 C 
ATOM      2  C   UNL     1       2.910  16.259  18.296  0.00  0.00    +0.000 C 
ATOM      3  O   UNL     1       1.689  16.178  18.468  0.00  0.00    +0.000 OA
ATOM      4  N   UNL     1       3.755  16.790  19.247  0.00  0.00    +0.000 N 
ATOM      5  C   UNL     1       3.199  17.178  20.552  0.00  0.00    +0.000 C 
ATOM      6  C   UNL     1       3.636  16.178  21.639  0.00  0.00    +0.000 C 
ATOM      7  C   UNL     1       5.107  15.895  21.525  0.00  0.00    +0.000 A 
ATOM      8  C   UNL     1       5.799  16.197  20.362  0.00  0.00    +0.000 A 
ATOM      9  S   UNL     1       7.449  15.817  20.478  0.00  0.00    +0.000 S 
ATOM     10  C   UNL     1       7.248  15.229  22.055  0.00  0.00    +0.000 A 
ATOM     11  C   UNL     1       5.961  15.292  22.498  0.00  0.00    +0.000 A 
ATOM     12  C   UNL     1       5.620  14.774  23.806  0.00  0.00    +0.000 A 
ATOM     13  O   UNL     1       4.452  14.712  24.174  0.00  0.00    +0.000 OA
ATOM     14  N   UNL     1       6.732  14.377  24.571  0.00  0.00    +0.000 N 
ATOM     15  C   UNL     1       8.063  14.348  24.103  0.00  0.00    +0.000 A 
ATOM     16  O   UNL     1       8.988  13.949  24.834  0.00  0.00    +0.000 OA
ATOM     17  N   UNL     1       8.322  14.737  22.779  0.00  0.00    +0.000 N 
ATOM     18  C   UNL     1       5.219  16.834  19.141  0.00  0.00    +0.000 C 
ENDROOT
BRANCH  14  19
ATOM     19  C   UNL     1       6.476  13.774  25.849  0.00  0.00    +0.000 A 
ATOM     20  C   UNL     1       6.427  14.621  26.976  0.00  0.00    +0.000 A 
ATOM     21  C   UNL     1       6.038  14.130  28.220  0.00  0.00    +0.000 A 
ATOM     22  C   UNL     1       5.694  12.790  28.349  0.00  0.00    +0.000 A 
ATOM     23  C   UNL     1       5.754  11.931  27.245  0.00  0.00    +0.000 A 
ATOM     24 CL   UNL     1       5.300  10.285  27.527  0.00  0.00    +0.000 Cl
ATOM     25  C   UNL     1       6.162  12.397  25.978  0.00  0.00    +0.000 A 
ATOM     26  C   UNL     1       6.300  11.456  24.803  0.00  0.00    +0.000 C 
ENDBRANCH  14  19
BRANCH  17  27
ATOM     27  C   UNL     1       9.677  14.580  22.197  0.00  0.00    +0.000 C 
BRANCH  27  28
ATOM     28  C   UNL     1       9.940  13.311  21.405  0.00  0.00    +0.000 A 
ATOM     29  C   UNL     1       9.236  12.144  21.738  0.00  0.00    +0.000 A 
ATOM     30  C   UNL     1       9.223  11.040  20.893  0.00  0.00    +0.000 A 
ATOM     31  C   UNL     1       9.928  11.084  19.694  0.00  0.00    +0.000 A 
ATOM     32  C   UNL     1      10.679  12.211  19.363  0.00  0.00    +0.000 A 
ATOM     33  C   UNL     1      10.709  13.332  20.212  0.00  0.00    +0.000 A 
ATOM     34  C   UNL     1      11.481  14.551  19.765  0.00  0.00    +0.000 C 
ENDBRANCH  27  28
ENDBRANCH  17  27
TORSDOF 3
ENDMDL
MODEL 5
REMARK VINA RESULT:      -6.5      3.215      6.310
REMARK  Name = 
REMARK  6 active torsions:
REMARK  status: ('A' for Active; 'I' for Inactive)
REMARK    1  A    between atoms: C_1  and  C_2
REMARK    2  A    between atoms: N_14  and  C_15
REMARK    3  A    between atoms: C_21  and  C_22
REMARK    4  A    between atoms: N_25  and  C_26
REMARK    5  A    between atoms: C_26  and  C_27
REMARK    6  A    between atoms: C_32  and  C_33
REMARK                            x       y       z     vdW  Elec       q    Type
REMARK                         _______ _______ _______ _____ _____    ______ ____
ROOT
ATOM      1  C   UNL     1      -5.997  13.463  23.703  0.00  0.00    +0.000 C 
ATOM      2  C   UNL     1      -5.408  14.804  23.358  0.00  0.00    +0.000 C 
ATOM      3  O   UNL     1      -5.476  15.735  24.168  0.00  0.00    +0.000 OA
ATOM      4  N   UNL     1      -4.751  14.923  22.151  0.00  0.00    +0.000 N 
ATOM      5  C   UNL     1      -4.021  16.166  21.862  0.00  0.00    +0.000 C 
ATOM      6  C   UNL     1      -2.502  15.924  21.940  0.00  0.00    +0.000 C 
ATOM      7  C   UNL     1      -2.134  14.669  21.200  0.00  0.00    +0.000 A 
ATOM      8  C   UNL     1      -3.099  13.726  20.881  0.00  0.00    +0.000 A 
ATOM      9  S   UNL     1      -2.456  12.412  20.022  0.00  0.00    +0.000 S 
ATOM     10  C   UNL     1      -0.897  13.073  20.091  0.00  0.00    +0.000 A 
ATOM     11  C   UNL     1      -0.838  14.257  20.764  0.00  0.00    +0.000 A 
ATOM     12  C   UNL     1       0.435  14.917  20.957  0.00  0.00    +0.000 A 
ATOM     13  O   UNL     1       0.525  15.917  21.660  0.00  0.00    +0.000 OA
ATOM     14  N   UNL     1       1.503  14.310  20.270  0.00  0.00    +0.000 N 
ATOM     15  C   UNL     1       1.414  13.099  19.552  0.00  0.00    +0.000 A 
ATOM     16  O   UNL     1       2.417  12.609  19.001  0.00  0.00    +0.000 OA
ATOM     17  N   UNL     1       0.182  12.429  19.506  0.00  0.00    +0.000 N 
ATOM     18  C   UNL     1      -4.559  13.833  21.187  0.00  0.00    +0.000 C 
ENDROOT
BRANCH  14  19
ATOM     19  C   UNL     1       2.816  14.854  20.475  0.00  0.00    +0.000 A 
ATOM     20  C   UNL     1       3.555  14.386  21.582  0.00  0.00    +0.000 A 
ATOM     21  C   UNL     1       4.885  14.755  21.760  0.00  0.00    +0.000 A 
ATOM     22  C   UNL     1       5.490  15.596  20.832  0.00  0.00    +0.000 A 
ATOM     23  C   UNL     1       4.768  16.084  19.737  0.00  0.00    +0.000 A 
ATOM     24 CL   UNL     1       5.628  17.119  18.649  0.00  0.00    +0.000 Cl
ATOM     25  C   UNL     1       3.414  15.740  19.543  0.00  0.00    +0.000 A 
ATOM     26  C   UNL     1       2.611  16.326  18.405  0.00  0.00    +0.000 C 
ENDBRANCH  14  19
BRANCH  17  27
ATOM     27  C   UNL     1       0.076  11.082  18.895  0.00  0.00    +0.000 C 
BRANCH  27  28
ATOM     28  C   UNL     1       0.646   9.921  19.691  0.00  0.00    +0.000 A 
ATOM     29  C   UNL     1       0.108   9.634  20.955  0.00  0.00    +0.000 A 
ATOM     30  C   UNL     1       0.388   8.438  21.607  0.00  0.00    +0.000 A 
ATOM     31  C   UNL     1       1.225   7.505  21.002  0.00  0.00    +0.000 A 
ATOM     32  C   UNL     1       1.815   7.787  19.770  0.00  0.00    +0.000 A 
ATOM     33  C   UNL     1       1.549   8.997  19.103  0.00  0.00    +0.000 A 
ATOM     34  C   UNL     1       2.159   9.214  17.739  0.00  0.00    +0.000 C 
ENDBRANCH  27  28
ENDBRANCH  17  27
TORSDOF 3
ENDMDL
MODEL 6
REMARK VINA RESULT:      -6.3      6.710      8.729
REMARK  Name = 
REMARK  6 active torsions:
REMARK  status: ('A' for Active; 'I' for Inactive)
REMARK    1  A    between atoms: C_1  and  C_2
REMARK    2  A    between atoms: N_14  and  C_15
REMARK    3  A    between atoms: C_21  and  C_22
REMARK    4  A    between atoms: N_25  and  C_26
REMARK    5  A    between atoms: C_26  and  C_27
REMARK    6  A    between atoms: C_32  and  C_33
REMARK                            x       y       z     vdW  Elec       q    Type
REMARK                         _______ _______ _______ _____ _____    ______ ____
ROOT
ATOM      1  C   UNL     1      -0.589  17.018  20.132  0.00  0.00    +0.000 C 
ATOM      2  C   UNL     1      -0.081  16.100  19.055  0.00  0.00    +0.000 C 
ATOM      3  O   UNL     1      -0.461  16.246  17.888  0.00  0.00    +0.000 OA
ATOM      4  N   UNL     1       0.851  15.148  19.413  0.00  0.00    +0.000 N 
ATOM      5  C   UNL     1       1.491  14.351  18.355  0.00  0.00    +0.000 C 
ATOM      6  C   UNL     1       2.954  14.794  18.162  0.00  0.00    +0.000 C 
ATOM      7  C   UNL     1       3.638  14.930  19.492  0.00  0.00    +0.000 A 
ATOM      8  C   UNL     1       2.900  15.025  20.663  0.00  0.00    +0.000 A 
ATOM      9  S   UNL     1       3.886  15.140  22.039  0.00  0.00    +0.000 S 
ATOM     10  C   UNL     1       5.290  15.089  21.090  0.00  0.00    +0.000 A 
ATOM     11  C   UNL     1       5.040  15.006  19.754  0.00  0.00    +0.000 A 
ATOM     12  C   UNL     1       6.137  15.012  18.810  0.00  0.00    +0.000 A 
ATOM     13  O   UNL     1       5.930  15.059  17.603  0.00  0.00    +0.000 OA
ATOM     14  N   UNL     1       7.408  14.951  19.412  0.00  0.00    +0.000 N 
ATOM     15  C   UNL     1       7.645  15.007  20.802  0.00  0.00    +0.000 A 
ATOM     16  O   UNL     1       8.805  14.984  21.253  0.00  0.00    +0.000 OA
ATOM     17  N   UNL     1       6.548  15.135  21.669  0.00  0.00    +0.000 N 
ATOM     18  C   UNL     1       1.409  14.982  20.760  0.00  0.00    +0.000 C 
ENDROOT
BRANCH  14  19
ATOM     19  C   UNL     1       8.554  15.037  18.550  0.00  0.00    +0.000 A 
ATOM     20  C   UNL     1       9.005  16.322  18.184  0.00  0.00    +0.000 A 
ATOM     21  C   UNL     1      10.192  16.485  17.475  0.00  0.00    +0.000 A 
ATOM     22  C   UNL     1      10.940  15.367  17.127  0.00  0.00    +0.000 A 
ATOM     23  C   UNL     1      10.498  14.083  17.466  0.00  0.00    +0.000 A 
ATOM     24 CL   UNL     1      11.514  12.768  16.982  0.00  0.00    +0.000 Cl
ATOM     25  C   UNL     1       9.291  13.887  18.168  0.00  0.00    +0.000 A 
ATOM     26  C   UNL     1       8.774  12.498  18.469  0.00  0.00    +0.000 C 
ENDBRANCH  14  19
BRANCH  17  27
ATOM     27  C   UNL     1       6.755  15.350  23.122  0.00  0.00    +0.000 C 
BRANCH  27  28
ATOM     28  C   UNL     1       7.017  14.116  23.968  0.00  0.00    +0.000 A 
ATOM     29  C   UNL     1       6.228  12.974  23.765  0.00  0.00    +0.000 A 
ATOM     30  C   UNL     1       6.587  11.741  24.301  0.00  0.00    +0.000 A 
ATOM     31  C   UNL     1       7.748  11.634  25.060  0.00  0.00    +0.000 A 
ATOM     32  C   UNL     1       8.522  12.764  25.321  0.00  0.00    +0.000 A 
ATOM     33  C   UNL     1       8.167  14.019  24.794  0.00  0.00    +0.000 A 
ATOM     34  C   UNL     1       9.084  15.191  25.050  0.00  0.00    +0.000 C 
ENDBRANCH  27  28
ENDBRANCH  17  27
TORSDOF 3
ENDMDL
MODEL 7
REMARK VINA RESULT:      -6.3      1.772      2.102
REMARK  Name = 
REMARK  6 active torsions:
REMARK  status: ('A' for Active; 'I' for Inactive)
REMARK    1  A    between atoms: C_1  and  C_2
REMARK    2  A    between atoms: N_14  and  C_15
REMARK    3  A    between atoms: C_21  and  C_22
REMARK    4  A    between atoms: N_25  and  C_26
REMARK    5  A    between atoms: C_26  and  C_27
REMARK    6  A    between atoms: C_32  and  C_33
REMARK                            x       y       z     vdW  Elec       q    Type
REMARK                         _______ _______ _______ _____ _____    ______ ____
ROOT
ATOM      1  C   UNL     1      -5.734  17.500  19.631  0.00  0.00    +0.000 C 
ATOM      2  C   UNL     1      -6.045  16.047  19.864  0.00  0.00    +0.000 C 
ATOM      3  O   UNL     1      -6.932  15.492  19.206  0.00  0.00    +0.000 OA
ATOM      4  N   UNL     1      -5.271  15.366  20.780  0.00  0.00    +0.000 N 
ATOM      5  C   UNL     1      -5.437  13.910  20.905  0.00  0.00    +0.000 C 
ATOM      6  C   UNL     1      -4.228  13.179  20.293  0.00  0.00    +0.000 C 
ATOM      7  C   UNL     1      -2.946  13.811  20.756  0.00  0.00    +0.000 A 
ATOM      8  C   UNL     1      -2.943  15.085  21.306  0.00  0.00    +0.000 A 
ATOM      9  S   UNL     1      -1.391  15.577  21.782  0.00  0.00    +0.000 S 
ATOM     10  C   UNL     1      -0.715  14.119  21.240  0.00  0.00    +0.000 A 
ATOM     11  C   UNL     1      -1.626  13.270  20.688  0.00  0.00    +0.000 A 
ATOM     12  C   UNL     1      -1.194  12.008  20.127  0.00  0.00    +0.000 A 
ATOM     13  O   UNL     1      -1.977  11.287  19.521  0.00  0.00    +0.000 OA
ATOM     14  N   UNL     1       0.165  11.718  20.356  0.00  0.00    +0.000 N 
ATOM     15  C   UNL     1       1.087  12.600  20.958  0.00  0.00    +0.000 A 
ATOM     16  O   UNL     1       2.282  12.280  21.091  0.00  0.00    +0.000 OA
ATOM     17  N   UNL     1       0.642  13.868  21.366  0.00  0.00    +0.000 N 
ATOM     18  C   UNL     1      -4.147  15.944  21.526  0.00  0.00    +0.000 C 
ENDROOT
BRANCH  14  19
ATOM     19  C   UNL     1       0.696  10.524  19.760  0.00  0.00    +0.000 A 
ATOM     20  C   UNL     1       1.260  10.628  18.472  0.00  0.00    +0.000 A 
ATOM     21  C   UNL     1       1.924   9.549  17.895  0.00  0.00    +0.000 A 
ATOM     22  C   UNL     1       2.031   8.356  18.601  0.00  0.00    +0.000 A 
ATOM     23  C   UNL     1       1.463   8.229  19.873  0.00  0.00    +0.000 A 
ATOM     24 CL   UNL     1       1.663   6.698  20.655  0.00  0.00    +0.000 Cl
ATOM     25  C   UNL     1       0.769   9.300  20.474  0.00  0.00    +0.000 A 
ATOM     26  C   UNL     1       0.088   9.142  21.814  0.00  0.00    +0.000 C 
ENDBRANCH  14  19
BRANCH  17  27
ATOM     27  C   UNL     1       1.603  14.882  21.862  0.00  0.00    +0.000 C 
BRANCH  27  28
ATOM     28  C   UNL     1       2.637  15.390  20.873  0.00  0.00    +0.000 A 
ATOM     29  C   UNL     1       2.202  16.071  19.725  0.00  0.00    +0.000 A 
ATOM     30  C   UNL     1       3.088  16.792  18.932  0.00  0.00    +0.000 A 
ATOM     31  C   UNL     1       4.437  16.837  19.274  0.00  0.00    +0.000 A 
ATOM     32  C   UNL     1       4.904  16.126  20.378  0.00  0.00    +0.000 A 
ATOM     33  C   UNL     1       4.022  15.384  21.184  0.00  0.00    +0.000 A 
ATOM     34  C   UNL     1       4.575  14.695  22.409  0.00  0.00    +0.000 C 
ENDBRANCH  27  28
ENDBRANCH  17  27
TORSDOF 3
ENDMDL
MODEL 8
REMARK VINA RESULT:      -6.2      1.246      1.315
REMARK  Name = 
REMARK  6 active torsions:
REMARK  status: ('A' for Active; 'I' for Inactive)
REMARK    1  A    between atoms: C_1  and  C_2
REMARK    2  A    between atoms: N_14  and  C_15
REMARK    3  A    between atoms: C_21  and  C_22
REMARK    4  A    between atoms: N_25  and  C_26
REMARK    5  A    between atoms: C_26  and  C_27
REMARK    6  A    between atoms: C_32  and  C_33
REMARK                            x       y       z     vdW  Elec       q    Type
REMARK                         _______ _______ _______ _____ _____    ______ ____
ROOT
ATOM      1  C   UNL     1      -6.713  16.784  20.144  0.00  0.00    +0.000 C 
ATOM      2  C   UNL     1      -6.844  15.297  20.334  0.00  0.00    +0.000 C 
ATOM      3  O   UNL     1      -7.685  14.663  19.688  0.00  0.00    +0.000 OA
ATOM      4  N   UNL     1      -5.961  14.683  21.197  0.00  0.00    +0.000 N 
ATOM      5  C   UNL     1      -5.951  13.214  21.274  0.00  0.00    +0.000 C 
ATOM      6  C   UNL     1      -4.690  12.651  20.594  0.00  0.00    +0.000 C 
ATOM      7  C   UNL     1      -3.474  13.415  21.035  0.00  0.00    +0.000 A 
ATOM      8  C   UNL     1      -3.597  14.661  21.631  0.00  0.00    +0.000 A 
ATOM      9  S   UNL     1      -2.095  15.317  22.070  0.00  0.00    +0.000 S 
ATOM     10  C   UNL     1      -1.276  13.967  21.452  0.00  0.00    +0.000 A 
ATOM     11  C   UNL     1      -2.103  13.035  20.901  0.00  0.00    +0.000 A 
ATOM     12  C   UNL     1      -1.549  11.852  20.280  0.00  0.00    +0.000 A 
ATOM     13  O   UNL     1      -2.266  11.063  19.676  0.00  0.00    +0.000 OA
ATOM     14  N   UNL     1      -0.158  11.716  20.450  0.00  0.00    +0.000 N 
ATOM     15  C   UNL     1       0.678  12.681  21.052  0.00  0.00    +0.000 A 
ATOM     16  O   UNL     1       1.906  12.499  21.131  0.00  0.00    +0.000 OA
ATOM     17  N   UNL     1       0.105  13.873  21.521  0.00  0.00    +0.000 N 
ATOM     18  C   UNL     1      -4.883  15.365  21.924  0.00  0.00    +0.000 C 
ENDROOT
BRANCH  14  19
ATOM     19  C   UNL     1       0.485  10.613  19.793  0.00  0.00    +0.000 A 
ATOM     20  C   UNL     1       1.022  10.836  18.509  0.00  0.00    +0.000 A 
ATOM     21  C   UNL     1       1.787   9.860  17.876  0.00  0.00    +0.000 A 
ATOM     22  C   UNL     1       2.021   8.651  18.520  0.00  0.00    +0.000 A 
ATOM     23  C   UNL     1       1.480   8.405  19.788  0.00  0.00    +0.000 A 
ATOM     24 CL   UNL     1       1.843   6.865  20.492  0.00  0.00    +0.000 Cl
ATOM     25  C   UNL     1       0.688   9.369  20.444  0.00  0.00    +0.000 A 
ATOM     26  C   UNL     1       0.041   9.077  21.779  0.00  0.00    +0.000 C 
ENDBRANCH  14  19
BRANCH  17  27
ATOM     27  C   UNL     1       0.959  14.977  22.020  0.00  0.00    +0.000 C 
BRANCH  27  28
ATOM     28  C   UNL     1       1.259  16.106  21.050  0.00  0.00    +0.000 A 
ATOM     29  C   UNL     1       1.457  15.802  19.694  0.00  0.00    +0.000 A 
ATOM     30  C   UNL     1       1.460  16.796  18.722  0.00  0.00    +0.000 A 
ATOM     31  C   UNL     1       1.271  18.123  19.095  0.00  0.00    +0.000 A 
ATOM     32  C   UNL     1       1.125  18.459  20.440  0.00  0.00    +0.000 A 
ATOM     33  C   UNL     1       1.129  17.466  21.436  0.00  0.00    +0.000 A 
ATOM     34  C   UNL     1       0.893  17.883  22.868  0.00  0.00    +0.000 C 
ENDBRANCH  27  28
ENDBRANCH  17  27
TORSDOF 3
ENDMDL
MODEL 9
REMARK VINA RESULT:      -6.2      7.080     10.631
REMARK  Name = 
REMARK  6 active torsions:
REMARK  status: ('A' for Active; 'I' for Inactive)
REMARK    1  A    between atoms: C_1  and  C_2
REMARK    2  A    between atoms: N_14  and  C_15
REMARK    3  A    between atoms: C_21  and  C_22
REMARK    4  A    between atoms: N_25  and  C_26
REMARK    5  A    between atoms: C_26  and  C_27
REMARK    6  A    between atoms: C_32  and  C_33
REMARK                            x       y       z     vdW  Elec       q    Type
REMARK                         _______ _______ _______ _____ _____    ______ ____
ROOT
ATOM      1  C   UNL     1      10.845  16.317  16.865  0.00  0.00    +0.000 C 
ATOM      2  C   UNL     1      11.144  15.055  17.627  0.00  0.00    +0.000 C 
ATOM      3  O   UNL     1      12.313  14.758  17.895  0.00  0.00    +0.000 OA
ATOM      4  N   UNL     1      10.074  14.296  18.052  0.00  0.00    +0.000 N 
ATOM      5  C   UNL     1      10.327  13.152  18.942  0.00  0.00    +0.000 C 
ATOM      6  C   UNL     1       9.853  13.472  20.372  0.00  0.00    +0.000 C 
ATOM      7  C   UNL     1       8.483  14.088  20.343  0.00  0.00    +0.000 A 
ATOM      8  C   UNL     1       7.973  14.625  19.170  0.00  0.00    +0.000 A 
ATOM      9  S   UNL     1       6.402  15.235  19.372  0.00  0.00    +0.000 S 
ATOM     10  C   UNL     1       6.402  14.814  21.014  0.00  0.00    +0.000 A 
ATOM     11  C   UNL     1       7.567  14.239  21.428  0.00  0.00    +0.000 A 
ATOM     12  C   UNL     1       7.742  13.876  22.817  0.00  0.00    +0.000 A 
ATOM     13  O   UNL     1       8.821  13.470  23.231  0.00  0.00    +0.000 OA
ATOM     14  N   UNL     1       6.580  14.030  23.598  0.00  0.00    +0.000 N 
ATOM     15  C   UNL     1       5.373  14.600  23.142  0.00  0.00    +0.000 A 
ATOM     16  O   UNL     1       4.401  14.733  23.908  0.00  0.00    +0.000 OA
ATOM     17  N   UNL     1       5.300  15.058  21.817  0.00  0.00    +0.000 N 
ATOM     18  C   UNL     1       8.662  14.640  17.844  0.00  0.00    +0.000 C 
ENDROOT
BRANCH  14  19
ATOM     19  C   UNL     1       6.690  13.772  25.006  0.00  0.00    +0.000 A 
ATOM     20  C   UNL     1       7.019  14.854  25.849  0.00  0.00    +0.000 A 
ATOM     21  C   UNL     1       6.998  14.712  27.233  0.00  0.00    +0.000 A 
ATOM     22  C   UNL     1       6.647  13.487  27.789  0.00  0.00    +0.000 A 
ATOM     23  C   UNL     1       6.335  12.397  26.969  0.00  0.00    +0.000 A 
ATOM     24 CL   UNL     1       5.911  10.926  27.775  0.00  0.00    +0.000 Cl
ATOM     25  C   UNL     1       6.366  12.508  25.564  0.00  0.00    +0.000 A 
ATOM     26  C   UNL     1       6.104  11.313  24.676  0.00  0.00    +0.000 C 
ENDBRANCH  14  19
BRANCH  17  27
ATOM     27  C   UNL     1       4.108  15.800  21.338  0.00  0.00    +0.000 C 
BRANCH  27  28
ATOM     28  C   UNL     1       3.120  15.030  20.480  0.00  0.00    +0.000 A 
ATOM     29  C   UNL     1       2.897  13.671  20.754  0.00  0.00    +0.000 A 
ATOM     30  C   UNL     1       1.821  12.988  20.198  0.00  0.00    +0.000 A 
ATOM     31  C   UNL     1       0.948  13.656  19.345  0.00  0.00    +0.000 A 
ATOM     32  C   UNL     1       1.177  14.992  19.014  0.00  0.00    +0.000 A 
ATOM     33  C   UNL     1       2.266  15.694  19.561  0.00  0.00    +0.000 A 
ATOM     34  C   UNL     1       2.420  17.158  19.223  0.00  0.00    +0.000 C 
ENDBRANCH  27  28
ENDBRANCH  17  27
TORSDOF 3
ENDMDL
